/*--------------------------------*- C++ -*----------------------------------*\
| =========                 |                                                 |
| \\      /  F ield         | OpenFOAM: The Open Source CFD Toolbox           |
|  \\    /   O peration     | Version:  2.3.1                                 |
|   \\  /    A nd           | Web:      www.OpenFOAM.org                      |
|    \\/     M anipulation  |                                                 |
\*---------------------------------------------------------------------------*/
FoamFile
{
    version     2.0;
    format      ascii;
    class       dictionary;
    location    "constant";
    object      CH3O2H;
}
// * * * * * * * * * * * * * * * * * * * * * * * * * * * * * * * * * * * * * //

CH3O2H_table
101
(

101
(
1.201914968e-12
1.429767311e-08
2.301714805e-07
1.032391331e-06
2.807024627e-06
5.868016977e-06
1.050109435e-05
1.724952587e-05
2.660756797e-05
3.928193772e-05
5.606948067e-05
7.789721834e-05
0.0001055005781
0.000139989677
0.0001817132958
0.0002308094946
0.0002871702699
0.0003502553498
0.0004183585788
0.0004906485439
0.000564815542
0.0006391327445
0.0007115303038
0.0007802711884
0.000843988533
0.0009016271699
0.0009525647771
0.0009966052435
0.001033660918
0.001064202506
0.001088707924
0.001107905662
0.001122792053
0.001132570405
0.001138977032
0.001142111172
0.001140395887
0.001135792769
0.001136326252
0.00113578061
0.001134447107
0.00113261429
0.001130333463
0.001127756076
0.00112497431
0.001122006585
0.001118892682
0.001115637773
0.001112253472
0.001108724096
0.001105020428
0.001101107467
0.001096944962
0.001092485113
0.001087664988
0.001082437683
0.001076683629
0.001070453061
0.001063576528
0.001056074417
0.001047837484
0.001038748507
0.001028842756
0.001018003825
0.001006164387
0.0009932328505
0.0009792285123
0.0009641143136
0.0009477272517
0.0009300726752
0.0009110530925
0.0008905415612
0.000868320202
0.0008441450717
0.0008147153653
0.0007870557052
0.0007623576214
0.0007362255024
0.0007087050474
0.0006798226343
0.0006493372471
0.0006169417848
0.0005823078224
0.000542882904
0.0005077939921
0.0004731856231
0.0004370755241
0.0003993853241
0.0003595107083
0.0003141219409
0.0002742358164
0.0002326369475
0.0001869516676
0.000141539045
9.30183038e-05
4.700569893e-05
1.289718912e-12
-3.728417102e-32
1.521671675e-24
-1.939195788e-22
0
)


101
(
1.193645747e-12
1.297934061e-08
2.203355313e-07
9.953689845e-07
2.711845766e-06
5.672163529e-06
1.01482639e-05
1.664916647e-05
2.564639105e-05
3.780065015e-05
5.386547587e-05
7.471573651e-05
0.0001010731591
0.0001339594639
0.0001738067201
0.0002207837966
0.0002748270261
0.0003354912377
0.0004013977902
0.0004715241962
0.0005440518781
0.0006172003841
0.000688992284
0.0007577774941
0.0008221379535
0.0008809538696
0.0009334986706
0.0009794465864
0.001018646417
0.001051383571
0.001078078493
0.001099353192
0.001116072337
0.001128019964
0.00113614403
0.001140915119
0.001141551574
0.001138789938
0.001137608945
0.001137077904
0.001136161181
0.001134748168
0.001132854039
0.001130566052
0.001127988157
0.001125186169
0.001122211253
0.001119091944
0.001115838861
0.001112450958
0.001108908896
0.001105187524
0.001101254833
0.001097082389
0.001092608049
0.001087768898
0.001082486634
0.001076734571
0.001070443517
0.001063563462
0.00105603879
0.00104777337
0.001038729611
0.001028855748
0.001018078394
0.001006292707
0.0009934788729
0.0009796166346
0.0009646356217
0.0009484496584
0.0009310152735
0.0009122701366
0.0008921042679
0.000870331024
0.0008454877241
0.000818898716
0.0007928620982
0.0007672086964
0.0007411645175
0.0007140979442
0.0006855818045
0.0006554707011
0.0006235873271
0.0005886618501
0.0005525351761
0.0005174212857
0.0004826849009
0.0004468833808
0.000409474689
0.000369244433
0.0003272614017
0.0002864065732
0.0002444469555
0.0001996499382
0.0001540462769
0.0001074456631
6.234411103e-05
6.162658164e-05
6.097259554e-05
6.084330965e-05
6.072783633e-05
)


101
(
1.185376525e-12
1.171347774e-08
2.107795057e-07
9.592665187e-07
2.618964922e-06
5.481147577e-06
9.804654642e-06
1.606609834e-05
2.471469611e-05
3.636793423e-05
5.173717815e-05
7.164719434e-05
9.680247393e-05
0.0001281458187
0.0001661692429
0.0002110759784
0.0002628428148
0.0003211078032
0.0003847674686
0.0004527067131
0.000523455906
0.0005952829168
0.0006662806662
0.0007348805397
0.000799649029
0.0008594121265
0.0009133542067
0.0009610330728
0.001002217041
0.001037045667
0.001065847585
0.001089149821
0.001107703067
0.001121603121
0.001131493799
0.001137871357
0.001140431007
0.001139482918
0.001138001612
0.001137005332
0.001136074084
0.001134862041
0.001133215279
0.00113112742
0.001128669618
0.001125918725
0.001122945889
0.001119806582
0.001116520974
0.001113099991
0.001109533217
0.001105805591
0.001101887629
0.00109775214
0.001093360054
0.001088657897
0.001083584937
0.001078083371
0.00107210515
0.001065597618
0.00105850835
0.001050769234
0.001042324417
0.001033111077
0.001023062502
0.001012103683
0.001000194866
0.000987298117
0.0009733627391
0.000958326934
0.0009421212697
0.0009247223597
0.0009060551213
0.0008860696326
0.000864097996
0.0008399601982
0.0008146013749
0.000788969025
0.0007634275712
0.000737590921
0.0007107050099
0.0006823702568
0.0006525265303
0.000620712628
0.000586708212
0.0005516049676
0.0005169619426
0.0004824331036
0.0004466268855
0.0004089196129
0.0003692450412
0.0003280119356
0.0002872638436
0.0002446703919
0.0001993838166
0.000154758113
0.00011214485
0.0001095483236
0.0001070125352
0.0001049788057
0.0001029452491
)


101
(
1.177107304e-12
1.049929841e-08
2.014995798e-07
9.240707753e-07
2.528344207e-06
5.294874448e-06
9.470054349e-06
1.549985761e-05
2.381168259e-05
3.498240028e-05
4.96824733e-05
6.868857082e-05
9.268507457e-05
0.0001225439457
0.0001587981358
0.0002016855221
0.0002512204764
0.0003071140448
0.0003684936621
0.0004342210471
0.0005030808565
0.000573442961
0.0006434713055
0.0007116723889
0.0007766220482
0.0008371074982
0.0008922385029
0.0009414700948
0.0009844830609
0.001021294186
0.001052127949
0.0010774153
0.001097803463
0.001113536757
0.001125170651
0.001133187014
0.001137454133
0.001138227801
0.001137251648
0.001135990901
0.00113481092
0.001133551186
0.001131991242
0.001130020773
0.00112763196
0.001124873363
0.001121826389
0.001118564843
0.001115135653
0.001111557818
0.001107836376
0.001103961528
0.001099912676
0.001095666206
0.001091189388
0.001086435503
0.001081370926
0.00107593093
0.001070065519
0.001063729515
0.001056869235
0.001049428966
0.001041353803
0.001032582441
0.001023050541
0.001012694017
0.001001460744
0.0009893172754
0.0009761974452
0.0009620556387
0.0009468280218
0.0009304806032
0.0009129578287
0.0008942601016
0.0008741357012
0.0008522206462
0.000828558358
0.0008037127532
0.0007784810395
0.0007532408207
0.0007275423056
0.0007007150384
0.0006724622596
0.0006426693901
0.0006110557305
0.0005775805561
0.0005431638061
0.0005091642309
0.0004747730559
0.0004388405721
0.0004011232309
0.0003614481736
0.000320776612
0.0002796337103
0.0002356587342
0.0001925447711
0.000152895858
0.0001481867735
0.0001435763037
0.0001397736562
0.0001359295715
)


101
(
1.168838083e-12
9.336016924e-09
1.924919465e-07
8.897687689e-07
2.439946551e-06
5.113251771e-06
9.144255888e-06
1.494999118e-05
2.293656223e-05
3.364267982e-05
4.769925802e-05
6.58368319e-05
8.871738654e-05
0.0001171489388
0.0001516899866
0.0001926110656
0.0002399616751
0.0002935171028
0.0003525983037
0.0004160913439
0.0004829728283
0.0005517392757
0.0006206349445
0.0006882380238
0.0007531505606
0.000814137789
0.0008702495633
0.0009208516428
0.0009655370065
0.001004214244
0.00103700271
0.001064233981
0.001086457023
0.001103963314
0.001117295571
0.001126885644
0.001132824165
0.00113524797
0.001135208512
0.001134078322
0.001132678416
0.001131215022
0.001129576111
0.001127613959
0.001125241245
0.001122445521
0.001119289857
0.001115855917
0.001112214583
0.001108399261
0.001104430774
0.001100308512
0.001096020859
0.0010915485
0.00108686786
0.001081943058
0.001076734158
0.00107120113
0.001065290313
0.00105896709
0.001052174019
0.001044859407
0.001036973671
0.001028457899
0.001019253915
0.00100931041
0.0009985640206
0.0009869705149
0.0009744760344
0.0009610324609
0.0009465969317
0.0009311096181
0.0009145189209
0.000896811788
0.0008779219282
0.0008576339019
0.0008357379305
0.0008122572685
0.0007877266487
0.0007628771552
0.0007379019363
0.0007122940972
0.0006854466719
0.0006571725005
0.0006273794889
0.0005958864676
0.0005627708522
0.0005291056299
0.000495580501
0.0004610913439
0.0004249426932
0.0003869997614
0.0003473416739
0.0003071545735
0.0002646245364
0.0002226980049
0.0001848821587
0.0001785870839
0.0001724662574
0.0001677390167
0.0001630505516
)


101
(
1.16056886e-12
8.222840781e-09
1.837528105e-07
8.563476707e-07
2.353735598e-06
4.936189348e-06
8.827057194e-06
1.44160566e-05
2.208855968e-05
3.234742585e-05
4.578544314e-05
6.308893887e-05
8.489572307e-05
0.0001119557792
0.0001448407715
0.0001838504038
0.0002290669232
0.0002803223391
0.0003370996178
0.0003983402778
0.0004631721502
0.0005302262876
0.0005978378989
0.0006646567037
0.0007293228748
0.0007905955011
0.000847479526
0.0008992650751
0.0009454614185
0.0009858793584
0.001020535758
0.001049665531
0.001073718449
0.001092972939
0.001107979879
0.001119142916
0.001126672872
0.001130697412
0.001131844609
0.001131213415
0.001129790439
0.001128107644
0.001126274062
0.001124206655
0.001121784165
0.00111892799
0.001115653298
0.00111202572
0.001108131506
0.001104026807
0.001099749885
0.001095311317
0.001090707844
0.001085925386
0.00108094705
0.001075750089
0.00107029603
0.001064553498
0.001058469565
0.001052022527
0.001045163246
0.001037831996
0.001029991154
0.001021580141
0.00101254395
0.001002839663
0.000992409748
0.0009812037245
0.0009691717178
0.0009562475255
0.0009424140372
0.0009276131935
0.0009117912243
0.000894907492
0.0008769395014
0.0008577964697
0.0008373036127
0.0008152890607
0.0007918824154
0.0007676201239
0.0007431024932
0.0007183187612
0.0006926921056
0.0006657532325
0.0006374073183
0.0006075623289
0.0005761047266
0.0005434161748
0.0005104959427
0.0004771784319
0.0004424467259
0.0004059611115
0.0003676923951
0.0003284622115
0.0002872848841
0.0002465278783
0.000210227548
0.0002032653611
0.0001963444334
0.0001898363725
0.000183268952
)


101
(
1.15229964e-12
7.158975869e-09
1.752783985e-07
8.237948302e-07
2.269675763e-06
4.763599281e-06
8.518261566e-06
1.389762281e-05
2.126691419e-05
3.109531579e-05
4.393896094e-05
6.044186021e-05
8.121632016e-05
0.0001069593706
0.0001382459772
0.0001754005991
0.0002185357247
0.0002675335944
0.0003220126642
0.0003809889077
0.0004437147081
0.0005089544343
0.0005751429333
0.0006410035622
0.0007052236175
0.0007665701299
0.0008240178769
0.0008767951944
0.0009243347005
0.0009663582799
0.00100278593
0.001033757188
0.001059625603
0.001080618397
0.001097286555
0.001110019624
0.001119097791
0.001124679295
0.001127150439
0.001127319844
0.001126141839
0.001124349362
0.001122289672
0.001120028848
0.001117482105
0.001114531784
0.001111134892
0.001107316222
0.00110315877
0.001098738633
0.001094112708
0.001089309478
0.001084334887
0.001079180624
0.001073832849
0.001068282763
0.001062500305
0.001056457466
0.001050107796
0.00104342918
0.001036379785
0.001028909437
0.001020981952
0.001012547419
0.001003547062
0.0009939385158
0.0009836747702
0.0009727055763
0.0009609824632
0.0009484421527
0.000935048708
0.000920761835
0.0009055373485
0.0008893274102
0.0008721014214
0.0008538124239
0.0008343579636
0.0008135888147
0.0007914212345
0.0007680480994
0.0007440247595
0.0007197724168
0.0006950792766
0.000669340248
0.0006422660874
0.0006138050745
0.0005838719394
0.0005525086326
0.0005203434883
0.0004879679923
0.0004545600732
0.0004194864539
0.000382584699
0.0003443941516
0.0003045221894
0.0002651897738
0.0002302373416
0.0002220984512
0.0002140287299
0.0002065215444
0.0001990469929
)


101
(
1.144030417e-12
6.143625855e-09
1.670649354e-07
7.920977002e-07
2.18773203e-06
4.59539555e-06
8.217676861e-06
1.339426877e-05
2.047087837e-05
2.988504976e-05
4.21577654e-05
5.789257409e-05
7.767534503e-05
0.0001021545386
0.0001319006422
0.0001672579957
0.0002083665963
0.0002551532534
0.0003073495736
0.0003640562978
0.0004246325219
0.0004879701352
0.0005526093404
0.0006173502296
0.0006809344935
0.0007421493068
0.0007999532319
0.0008535265929
0.0009022344742
0.0009457183071
0.0009838079708
0.001016550897
0.001044207677
0.001066932156
0.001085257164
0.001099558775
0.001110160126
0.001117262945
0.001121127724
0.001122322596
0.001121666639
0.001119959529
0.001117733917
0.001115242458
0.00111250448
0.001109413198
0.001105882941
0.001101885715
0.001097477504
0.001092739771
0.001087748084
0.001082551713
0.001077167401
0.001071595587
0.001065828966
0.001059863925
0.001053679334
0.001047260766
0.001040564596
0.001033570754
0.001026240972
0.001018531686
0.001010408873
0.00100183032
0.0009927455818
0.0009831095531
0.0009728815301
0.000962010029
0.0009504528002
0.0009381517192
0.0009250591656
0.0009111417381
0.0008963612936
0.0008806762419
0.0008640449125
0.0008464287569
0.0008277573646
0.0008079414274
0.0007868691622
0.0007645200436
0.0007411872003
0.0007173887446
0.0006933354564
0.0006686008995
0.0006426836184
0.000615442475
0.0005868489516
0.0005568466177
0.000525702621
0.0004941544608
0.0004619135506
0.0004281967629
0.0003927101113
0.0003556607893
0.000317148353
0.0002790399427
0.0002450919151
0.0002359933133
0.0002269542971
0.0002184429465
0.0002099659663
)


101
(
1.135761197e-12
5.175988548e-09
1.591086671e-07
7.612439189e-07
2.107870168e-06
4.431494455e-06
7.92511636e-06
1.290558498e-05
1.969972101e-05
2.871535526e-05
4.043984049e-05
5.543808339e-05
7.42689225e-05
9.753605652e-05
0.0001257994372
0.0001594182876
0.0001985571452
0.000243182356
0.0002931199102
0.0003475593582
0.0004059541839
0.0004673159715
0.0005302929186
0.0005937649594
0.0006565342402
0.0007174185716
0.0007753731803
0.0008295437615
0.0008792383027
0.0009240265299
0.000963655581
0.0009980855727
0.001027488061
0.001051931996
0.001071913823
0.001087787331
0.001099899636
0.001108496324
0.001113784383
0.001116159798
0.001116273147
0.001114885674
0.001112633395
0.001109941513
0.001106975769
0.001103696291
0.001100009654
0.001095840629
0.001091201076
0.001086160196
0.001080806618
0.001075205303
0.001069389188
0.001063373073
0.001057152117
0.001050726711
0.001044087963
0.001037231021
0.001030118494
0.001022734108
0.001015043269
0.001007008719
0.0009986014236
0.0009897795481
0.0009805012904
0.00097072238
0.0009604060255
0.0009495089808
0.0009379900838
0.0009258029661
0.0009128875087
0.0008992103018
0.0008847281153
0.0008694165045
0.000853239807
0.0008361510499
0.0008180886357
0.0007989962304
0.0007787983253
0.0007574132146
0.0007349001692
0.0007116349891
0.0006880476337
0.0006640762669
0.0006391782302
0.0006130576009
0.0005856452415
0.0005569235397
0.000526934602
0.0004962554068
0.0004650979768
0.00043269153
0.0003985619813
0.0003627615765
0.0003255850302
0.0002887466065
0.0002560062767
0.0002459272799
0.0002358930749
0.0002262254176
0.000216518872
)


101
(
1.127491971e-12
4.25525634e-09
1.514058334e-07
7.312211924e-07
2.030056431e-06
4.271814046e-06
7.64039785e-06
1.243117211e-05
1.895272515e-05
2.75849843e-05
3.878319808e-05
5.307541452e-05
7.0993143e-05
9.309865391e-05
0.0001199367207
0.0001518765629
0.0001891041026
0.0002316206627
0.0002793308254
0.0003315127451
0.0003877050631
0.0004470306525
0.0005082458221
0.000570312621
0.0006320986776
0.0006924613892
0.000750364411
0.0008049316619
0.0008554251704
0.0009013521803
0.0009423849974
0.0009784021906
0.001009490922
0.001035630836
0.001057268317
0.001074720761
0.0010883404
0.001098409873
0.001105126064
0.00110877825
0.001109861151
0.001109035227
0.001106950613
0.001104155642
0.00110097067
0.001097468768
0.001093595379
0.001089250456
0.001084400485
0.001079082526
0.001073381664
0.001067375764
0.001061118191
0.001054637641
0.00104793834
0.001041025898
0.001033892863
0.001026550691
0.001018964692
0.001011125189
0.001003004773
0.0009945686935
0.0009857938551
0.0009766413744
0.0009670752428
0.0009570559682
0.0009465469319
0.0009355133518
0.0009239154502
0.0009117126692
0.0008988485319
0.0008852851704
0.0008709837995
0.0008559163922
0.0008400546192
0.000823355374
0.0008057632971
0.0007872245356
0.0007676905586
0.0007471022852
0.0007254129232
0.0007027782897
0.0006796303557
0.0006562055915
0.0006321606837
0.0006070535494
0.0005807120428
0.0005531605627
0.0005243482557
0.000494629528
0.0004644718956
0.0004333144397
0.0004005261414
0.0003660559962
0.0003302302083
0.000294693797
0.0002628940246
0.0002519541135
0.0002410168164
0.0002301772623
0.0002191700347
)


101
(
1.119222751e-12
3.380621639e-09
1.439526951e-07
7.02017417e-07
1.954257866e-06
4.116274768e-06
7.363344877e-06
1.197064335e-05
1.822919178e-05
2.649271856e-05
3.71858881e-05
5.080163565e-05
6.784409234e-05
8.883704199e-05
0.0001143066067
0.0001446273914
0.0001800034168
0.0002204667827
0.0002659873476
0.0003159288394
0.0003699075782
0.0004271493528
0.0004865165896
0.0005470547585
0.0006077008588
0.0006673594197
0.0007250130754
0.0007797761006
0.000830875999
0.0008777670932
0.0009200552712
0.0009575444437
0.0009902426079
0.001018039523
0.001041323008
0.001060360815
0.001075491019
0.001087020197
0.001095158099
0.001100139318
0.001102337591
0.001102290685
0.001100593261
0.001097849348
0.001094508147
0.001090777924
0.001086689362
0.001082155301
0.001077108638
0.001071542151
0.001065520275
0.00105912398
0.001052425296
0.001045470583
0.001038280202
0.001030859193
0.001023203433
0.001015335783
0.001007229629
0.0009988808628
0.0009902703212
0.0009813688252
0.0009721528015
0.0009625920069
0.0009526557787
0.0009423092634
0.0009315115236
0.000920237344
0.0009084482695
0.0008961139618
0.0008831830972
0.0008696165907
0.0008553724364
0.0008404243386
0.0008247476636
0.0008083098973
0.0007910567554
0.0007729315292
0.0007539006835
0.0007339272043
0.0007129512258
0.000690980274
0.000668312787
0.0006453157131
0.0006219355799
0.0005977298836
0.0005723780368
0.0005458896951
0.0005182179761
0.0004895127332
0.0004603222152
0.0004303626183
0.0003989023253
0.0003658036507
0.0003313504159
0.0002971781206
0.0002663378036
0.0002543961296
0.0002424456567
0.000230409595
0.0002184196774
)


101
(
1.110953664e-12
2.551266838e-09
1.367454998e-07
6.736205329e-07
1.880441933e-06
3.964798664e-06
7.09378528e-06
1.152362197e-05
1.752843685e-05
2.543736492e-05
3.564599329e-05
4.86138489e-05
6.481785271e-05
8.474590858e-05
0.0001089029847
0.0001376648461
0.0001712502622
0.000209718174
0.0002530925186
0.0003008176707
0.0003525811589
0.0004077036198
0.0004651500356
0.0005240494739
0.0005834109901
0.0006421925154
0.0006994050073
0.0007541642403
0.0008056744779
0.0008533470234
0.0008967300374
0.0009355602248
0.0009697726832
0.0009991692358
0.001024075127
0.001044698651
0.001061346305
0.001074330922
0.001083880494
0.001090211613
0.001093619177
0.001094526714
0.001093432991
0.001090931252
0.001087550543
0.001083627806
0.001079311148
0.001074568972
0.001069326085
0.001063533813
0.001057222506
0.001050462338
0.001043335146
0.001035906723
0.001028215068
0.001020266991
0.001012070081
0.001003647605
0.0009949858483
0.0009860816942
0.0009769262424
0.0009674992682
0.0009577787919
0.0009477397565
0.000937353741
0.0009265946194
0.0009154251113
0.0009038152348
0.0008917344959
0.0008791588007
0.000866044681
0.0008523573614
0.0008380540627
0.0008231074466
0.0008074937265
0.0007911886348
0.0007741432208
0.0007563003609
0.0007376380064
0.000718121191
0.0006977066946
0.0006763486841
0.0006541906348
0.0006315788854
0.0006087030572
0.0005852616239
0.0005608192544
0.0005352977451
0.0005086915344
0.0004810448587
0.0004528132419
0.0004240001257
0.0003938698772
0.0003621694454
0.0003291342844
0.0002963256153
0.0002664162766
0.0002534608115
0.0002404115097
0.0002267860016
0.0002130466946
)


101
(
1.102684909e-12
1.766370039e-09
1.297804981e-07
6.460186014e-07
1.808576709e-06
3.817309803e-06
6.831552025e-06
1.108974274e-05
1.68497937e-05
2.441775975e-05
3.416163657e-05
4.650920403e-05
6.19105233e-05
8.081995106e-05
0.0001037195827
0.000130982578
0.0001628391119
0.000199371274
0.0002406475228
0.0002861870248
0.0003357424147
0.0003887215288
0.0004441873779
0.0005013515452
0.0005592968365
0.000617039421
0.0006736264219
0.0007281852147
0.0007799077665
0.0008281724962
0.0008724787748
0.0009125036457
0.0009481160687
0.0009790348595
0.001005521497
0.001027719108
0.001045888868
0.001060331176
0.001071284913
0.001078967755
0.001083635261
0.001085623252
0.001085323436
0.001083268812
0.00108001024
0.001075979747
0.001071450031
0.001066482351
0.00106103178
0.001055024619
0.001048452426
0.001041359526
0.001033825841
0.001025931847
0.001017732922
0.001009249418
0.001000494098
0.0009914959238
0.0009822468864
0.0009727497875
0.000963001921
0.0009529937916
0.000942707317
0.0009321232586
0.0009212170366
0.0009099622531
0.0008983341988
0.0008863011882
0.0008738327712
0.0008609138854
0.0008475048346
0.000833578917
0.0008191006784
0.0008040388076
0.0007883679283
0.000772066083
0.0007550977934
0.0007374108198
0.0007189793415
0.0006997789021
0.0006797788377
0.0006589235933
0.0006372572054
0.0006150280515
0.0005925347289
0.000569698457
0.0005460756197
0.0005214501019
0.0004958281523
0.0004692347844
0.0004419870962
0.0004142681775
0.0003854499031
0.000355182248
0.000323622381
0.0002922135391
0.0002632520784
0.0002489945851
0.0002345461283
0.0002189647209
0.0002032894689
)


101
(
1.094416153e-12
1.025105114e-09
1.230539373e-07
6.191997767e-07
1.738630798e-06
3.673734096e-06
6.576482942e-06
1.06686517e-05
1.619261248e-05
2.343276776e-05
3.273098186e-05
4.44849015e-05
5.911822968e-05
7.705388626e-05
9.875001118e-05
0.0001245738682
0.0001547637986
0.0001894215269
0.0002286518917
0.0002720424394
0.0003194051492
0.0003702278087
0.0004236661538
0.0004790120865
0.0005354228034
0.0005919763265
0.0006477623919
0.0007019288408
0.0007536656098
0.0008023283845
0.0008473769339
0.0008884363549
0.000925316297
0.0009576590473
0.0009856641389
0.001009407473
0.001029095445
0.001044998864
0.001057352974
0.001066381081
0.001072327704
0.001075474419
0.001076117172
0.001074702943
0.001071752706
0.001067744461
0.001063056866
0.00105786347
0.001052187369
0.001045960368
0.001039145889
0.001031751147
0.001023837212
0.001015492727
0.001006789368
0.0009977649466
0.0009884349796
0.0009788406882
0.0009689753276
0.0009588509328
0.0009484662965
0.0009378254171
0.000926915173
0.0009157202989
0.0009042193359
0.0008923930304
0.0008802221336
0.0008676760602
0.0008547306073
0.000841365891
0.0008275532749
0.0008132708185
0.0007984962168
0.0007831984098
0.0007673502891
0.0007509291825
0.0007339052247
0.000716234885
0.0006979040224
0.0006788812481
0.0006591504813
0.0006386599145
0.0006174151525
0.0005955554114
0.0005733724269
0.000550988053
0.0005280660653
0.0005042637127
0.0004795525747
0.0004539616271
0.0004277221813
0.00040106554
0.0003735476957
0.0003447256658
0.0003147056007
0.0002847437224
0.0002567432566
0.000240805077
0.0002245415006
0.0002066214095
0.0001884000989
)


101
(
1.086147392e-12
3.266366025e-10
1.165620559e-07
5.931522775e-07
1.670573265e-06
3.533999132e-06
6.328420366e-06
1.026000556e-05
1.555626043e-05
2.248128239e-05
3.135223407e-05
4.253819349e-05
5.643713451e-05
7.344245936e-05
9.398778183e-05
0.0001184316759
0.0001470175662
0.0001798634571
0.0002171036105
0.0002583873596
0.000303580421
0.0003522436937
0.0004036199636
0.0004570782184
0.0005118496028
0.0005670764378
0.0006218962884
0.0006754851526
0.0007270403158
0.0007759043822
0.0008215067189
0.0008634286039
0.0009014275187
0.0009350763084
0.0009645157878
0.0009897556439
0.001010942546
0.001028304542
0.001042056751
0.001052422279
0.001059648326
0.001063991631
0.001065677264
0.001065064765
0.00106260996
0.001058785191
0.001054037114
0.0010486478
0.001042735508
0.001036274357
0.001029220092
0.001021543974
0.001013275893
0.001004500212
0.000995298496
0.000985725918
0.000975808152
0.0009655946649
0.0009550882611
0.0009443026949
0.0009332392198
0.0009219131454
0.0009103219559
0.00089844997
0.000886280363
0.0008738051652
0.0008610030096
0.0008478561527
0.0008343330737
0.0008204215659
0.000806097977
0.000791342562
0.0007761445105
0.0007604800473
0.0007443256822
0.0007276582378
0.0007104425353
0.000692651798
0.0006742768341
0.0006552886161
0.0006356847753
0.0006154152806
0.0005944732662
0.0005729310554
0.0005510181226
0.0005289576748
0.0005065858836
0.0004835213936
0.0004596462165
0.0004349882364
0.0004097620528
0.0003841328183
0.0003579213747
0.0003305592299
0.0003021327263
0.0002736684384
0.0002467132785
0.0002287055552
0.0002101987638
0.0001896869893
0.0001683081242
)


101
(
1.077878631e-12
-3.298765188e-10
1.103010946e-07
5.678644372e-07
1.604373759e-06
3.398034445e-06
6.087211603e-06
9.863472607e-06
1.494012353e-05
2.156222817e-05
3.002364235e-05
4.06663942e-05
5.386345128e-05
6.998046409e-05
8.942635431e-05
0.0001125487074
0.0001395931418
0.0001706907895
0.0002059992816
0.0002452233281
0.0002882767862
0.0003347872394
0.000384078597
0.0004355930197
0.0004886340929
0.00054240972
0.0005961093529
0.0006489436633
0.000700125674
0.0007489938981
0.0007949561694
0.0008375583337
0.000876513405
0.0009113318266
0.0009421001238
0.0009687646287
0.0009914112238
0.00101021682
0.00102536169
0.001037056732
0.001045552661
0.001051102167
0.001053886898
0.00105419326
0.001052398025
0.00104892792
0.001044251587
0.001038731761
0.001032591921
0.001025880452
0.001018572829
0.001010619729
0.001002017199
0.0009928287532
0.000983136708
0.0009730116182
0.0009624917167
0.0009516353768
0.0009404577061
0.0009289754964
0.0009171943003
0.0009051302965
0.0008927953509
0.0008801747208
0.0008672605149
0.0008540530173
0.000840532391
0.0008266852749
0.0008124814196
0.000797916703
0.0007829689837
0.0007676202694
0.000751870291
0.0007356988747
0.0007190951038
0.0007020445789
0.000684503029
0.0006664495856
0.000647874828
0.0006287735638
0.0006091438323
0.0005889412776
0.0005681675273
0.0005468472735
0.000525142007
0.0005033102868
0.0004813447451
0.0004589033112
0.0004357922974
0.0004119997066
0.0003877719938
0.0003631544434
0.0003382224211
0.0003123482186
0.0002855570794
0.0002586718353
0.0002328609465
0.0002124058271
0.0001913076655
0.0001683789425
0.0001449826114
)


101
(
1.069609882e-12
-9.452813338e-10
1.042672894e-07
5.433246739e-07
1.540002418e-06
3.265771298e-06
5.852708581e-06
9.478732126e-06
1.43436061e-05
2.067456029e-05
2.874350037e-05
3.886687937e-05
5.139345272e-05
6.666275248e-05
8.505916549e-05
0.0001069174583
0.0001324827974
0.0001618964795
0.000195334272
0.0002325500437
0.0002735003157
0.000317873297
0.0003650680058
0.0004145954202
0.0004658290778
0.0005180425976
0.0005704803207
0.0006223928894
0.0006730163214
0.000721693344
0.0007678190112
0.0008109118867
0.0008506480412
0.0008864832368
0.0009184542991
0.0009464482993
0.0009704920537
0.0009907079483
0.001007230408
0.001020244152
0.001029997267
0.001036745393
0.001040648488
0.001041944651
0.001040936708
0.001037981097
0.001033524865
0.001027972305
0.001021641769
0.00101467146
0.001007087002
0.0009988436595
0.0009899119333
0.0009803217542
0.0009701478676
0.0009594690511
0.0009483308963
0.0009368049799
0.0009249215189
0.0009127034286
0.0009001566751
0.0008873001906
0.0008741525641
0.0008607068771
0.0008469704282
0.0008329341315
0.0008185973198
0.0008039485356
0.0007889579863
0.0007736263993
0.0007579297626
0.0007418622899
0.0007254236702
0.0007086018781
0.0006913964912
0.0006738065417
0.0006557996374
0.000637327938
0.0006184063531
0.0005990323178
0.0005792112333
0.0005589200648
0.0005381698365
0.0005169508063
0.0004953840812
0.0004736942953
0.0004520071805
0.0004300660857
0.0004076433087
0.0003846598602
0.0003613935684
0.0003378043548
0.0003141184877
0.0002897647547
0.0002646658371
0.0002394316877
0.0002148281768
0.0001918526387
0.0001681656336
0.0001434346709
0.0001182322499
)


101
(
1.061341121e-12
-1.520435406e-09
9.845672279e-08
5.195213596e-07
1.477429529e-06
3.137141955e-06
5.624766567e-06
9.105472249e-06
1.376612834e-05
1.981726117e-05
2.751014073e-05
3.71370788e-05
4.902346522e-05
6.348423171e-05
8.087964111e-05
0.0001015302251
0.0001256783738
0.0001534727435
0.000185102678
0.0002203653853
0.0002592546212
0.0003015134775
0.0003466102928
0.000394120038
0.000443483091
0.0004940377656
0.0005450850597
0.0005959197337
0.0006458069579
0.0006941011934
0.0007401933058
0.000783582578
0.000823915022
0.0008605998773
0.0008936290517
0.0009228350609
0.0009481891345
0.0009697594122
0.0009876289901
0.001001944383
0.001012938341
0.001020867344
0.001025883868
0.001028199867
0.001028061509
0.001025749965
0.001021660173
0.001016195956
0.001009739011
0.001002518161
0.0009946338011
0.0009860723862
0.0009767965593
0.0009668036005
0.0009561474615
0.0009449089394
0.0009331353543
0.0009209125577
0.0009082814659
0.0008952787842
0.0008819127566
0.0008682042743
0.0008541705576
0.0008398188584
0.0008251674155
0.0008102042058
0.000794948315
0.0007793851468
0.0007634918194
0.0007472627651
0.0007306870578
0.000713767674
0.0006964996736
0.0006788820562
0.0006609243093
0.0006426314179
0.0006239849145
0.0006049514987
0.0005855326812
0.0005657286238
0.0005455569637
0.0005250317195
0.0005041481553
0.0004829069597
0.0004613984284
0.0004397958091
0.0004182980426
0.0003967529964
0.0003749502421
0.0003527402685
0.0003304087629
0.0003078906607
0.0002854628141
0.0002626604228
0.0002393496261
0.0002158676539
0.000192604144
0.0001674302587
0.0001416569865
0.000116240483
9.084262427e-05
)


101
(
1.053072359e-12
-2.056201394e-09
9.286572224e-08
4.964430279e-07
1.416626057e-06
3.012080777e-06
5.403246108e-06
8.743393159e-06
1.32071322e-05
1.89893506e-05
2.632194757e-05
3.547449366e-05
4.674989469e-05
6.043990429e-05
7.68812681e-05
9.637924262e-05
0.0001191714193
0.0001454112426
0.0001752976094
0.0002086655795
0.0002455410437
0.0002857164621
0.0003287239082
0.0003741973082
0.0004216402193
0.0004704536915
0.0005199959127
0.0005696088395
0.0006185918935
0.000666317878
0.0007121814407
0.0007556704109
0.0007964072884
0.00083376305
0.0008676897922
0.0008979704797
0.0009245248416
0.0009473694576
0.0009665344989
0.0009821199529