/*--------------------------------*- C++ -*----------------------------------*\
| =========                 |                                                 |
| \\      /  F ield         | OpenFOAM: The Open Source CFD Toolbox           |
|  \\    /   O peration     | Version:  2.3.1                                 |
|   \\  /    A nd           | Web:      www.OpenFOAM.org                      |
|    \\/     M anipulation  |                                                 |
\*---------------------------------------------------------------------------*/
FoamFile
{
    version     2.0;
    format      ascii;
    class       dictionary;
    location    "constant";
    object      CO2;
}
// * * * * * * * * * * * * * * * * * * * * * * * * * * * * * * * * * * * * * //

CO2_table
101
(

101
(
0.1503724804
0.1472170967
0.1437846053
0.1402633721
0.1367603552
0.1333332189
0.1300063342
0.1267994436
0.1237121931
0.120743313
0.1178876754
0.1151402173
0.1124923395
0.1099427217
0.1074824207
0.1051053109
0.102807531
0.1005863548
0.09842977196
0.09634463449
0.09431782143
0.09234574139
0.0904310008
0.08856671288
0.08674870005
0.0849743261
0.08324088617
0.08154552992
0.07988688731
0.07826217304
0.07666958693
0.07510655249
0.0735686767
0.07206346161
0.07058210287
0.06912458982
0.06768931956
0.06627404974
0.06487925363
0.06350567251
0.06215139842
0.06081252663
0.05949113414
0.05818559222
0.05689388153
0.05561705011
0.05435322263
0.05310300801
0.05186493137
0.05063923641
0.04942457567
0.04822083156
0.04702747754
0.04584395585
0.04466968934
0.04350429107
0.04234847634
0.04120003396
0.04006011221
0.03892744653
0.03780226481
0.03668390908
0.03557206406
0.03446659566
0.0333671107
0.03227342689
0.03118513605
0.03010200597
0.02902399245
0.02795058164
0.02688167994
0.02581704507
0.0247566433
0.02369990624
0.02264660191
0.02159640866
0.02054960266
0.01950579466
0.01846465173
0.01742596867
0.01638958752
0.01535557923
0.01432349064
0.01329330815
0.01226473836
0.01123763004
0.01021186668
0.009187304494
0.008163822286
0.007141317708
0.006119558583
0.005098462834
0.004077965523
0.003057914194
0.002038222028
0.0010187852
1.51441378e-23
0
1.059501007e-36
-4.31245149e-21
0
)


101
(
0.1503734625
0.1472496337
0.1438514703
0.1403654544
0.1368974737
0.1335046181
0.1302109407
0.1270361331
0.123979771
0.121040595
0.1182135291
0.115493565
0.1128721873
0.1103480878
0.1079124121
0.1055590994
0.1032843237
0.1010853828
0.09895038864
0.09688612473
0.09487960642
0.09292727138
0.0910317009
0.08918607707
0.08738626352
0.08562964986
0.08391355716
0.08223516273
0.08059310913
0.07898463736
0.07740796419
0.07586053807
0.07433800968
0.07284779892
0.07138119195
0.06993817534
0.06851716005
0.06711592577
0.0657349387
0.06437493033
0.06303400583
0.06170830667
0.06039988181
0.05910711935
0.05782802154
0.05656362097
0.05531206428
0.05407395228
0.05284782467
0.05163391905
0.05043090436
0.04923866402
0.04805667588
0.0468843871
0.04572122661
0.04456681171
0.04342184446
0.04228414329
0.04115483656
0.04003267617
0.03891788338
0.03780980636
0.03670813096
0.03561271692
0.0345231856
0.03343934054
0.03236077985
0.03128726714
0.0302187531
0.02915472092
0.02809508779
0.02703959078
0.02598818335
0.02494030899
0.02389573137
0.02285412366
0.02181571328
0.02078014878
0.019747051
0.01871622099
0.017687475
0.01666085932
0.01563592254
0.01461261715
0.0135906226
0.01256981949
0.01154999904
0.01053105328
0.009512779866
0.008495196015
0.007477839653
0.006460900368
0.00544416197
0.004427499333
0.00341088118
0.002394211298
0.001377845173
0.001369757132
0.001361627948
0.0013531559
0.001344683852
)


101
(
0.1503744445
0.1472821707
0.1439183353
0.1404675368
0.1370345922
0.1336760172
0.1304155471
0.1272728226
0.1242473488
0.1213378769
0.1185393827
0.1158469126
0.1132520351
0.1107534538
0.1083424035
0.1060128878
0.1037611164
0.1015844108
0.09947100532
0.09742761496
0.09544139142
0.09350880138
0.09163240101
0.08980544126
0.08802382698
0.08628497362
0.08458622814
0.08292479554
0.08129933096
0.07970710169
0.07814634144
0.07661452365
0.07510734267
0.07363213622
0.07218028103
0.07075176085
0.06934500053
0.0679578018
0.06659062378
0.06524418815
0.06391661323
0.0626040867
0.06130862948
0.06002864648
0.05876216155
0.05751019184
0.05627090593
0.05504489656
0.05383071798
0.0526286017
0.05143723304
0.05025649647
0.04908587421
0.04792481835
0.04677276388
0.04562933235
0.04449521258
0.04336825262
0.04224956092
0.04113790581
0.04003350194
0.03893570363
0.03784419786
0.03675883817
0.0356792605
0.03460525419
0.03353642365
0.03247252831
0.03141351375
0.0303588602
0.02930849565
0.02826213648
0.0272197234
0.02618071174
0.02514486082
0.02411183866
0.0230818239
0.02205450289
0.02102945027
0.0200064733
0.01898536249
0.01796613942
0.01694835443
0.01593192615
0.01491650684
0.01390200893
0.0128881314
0.01187480207
0.01086173745
0.009849074322
0.008836120724
0.007823337903
0.006810358418
0.005797084473
0.004783540332
0.003769608108
0.002755692363
0.002739516308
0.002723258048
0.002706313835
0.002689369622
)


101
(
0.1503754265
0.1473147077
0.1439852003
0.1405696192
0.1371717107
0.1338474163
0.1306201536
0.1275095121
0.1245149267
0.1216351589
0.1188652363
0.1162002603
0.1136318829
0.1111588198
0.1087723949
0.1064666763
0.1042379091
0.1020834388
0.099991622
0.0979691052
0.09600317642
0.09409033138
0.09223310111
0.09042480544
0.08866139045
0.08694029737
0.08525889913
0.08361442836
0.08200555278
0.08042956601
0.0788847187
0.07736850923
0.07587667565
0.07441647353
0.07297937011
0.07156534636
0.07017284102
0.06879967784
0.06744630885
0.06611344597
0.06479922064
0.06349986673
0.06221737714
0.0609501736
0.05969630155
0.05845676271
0.05722974758
0.05601584084
0.05481361129
0.05362328434
0.05244356172
0.05127432893
0.05011507255
0.0489652496
0.04782430115
0.04669185299
0.04556858069
0.04445236195
0.04334428527
0.04224313545
0.0411491205
0.04006160091
0.03898026477
0.03790495943
0.0368353354
0.03577116785
0.03471206745
0.03365778949
0.0326082744
0.03156299949
0.03052190351
0.02948468218
0.02845126344
0.02742111449
0.02639399028
0.02536955365
0.02434793452
0.023328857
0.02231184955
0.02129672562
0.02028324997
0.01927141952
0.01826078632
0.01725123514
0.01624239108
0.01523419837
0.01422626375
0.01321855085
0.01221069503
0.01120295263
0.01019440179
0.009185775437
0.008176554866
0.007166669612
0.006156199483
0.005144985988
0.004133540044
0.004109276332
0.004084889306
0.004059472323
0.00403405534
)


101
(
0.1503764086
0.1473472447
0.1440520652
0.1406717015
0.1373088292
0.1340188155
0.1308247601
0.1277462017
0.1247825046
0.1219324409
0.11919109
0.1165536079
0.1140117307
0.1115641858
0.1092023863
0.1069204648
0.1047147018
0.1025824668
0.1005122387
0.09851059543
0.09656496141
0.09467186137
0.09283380122
0.09104416963
0.08929895391
0.08759562113
0.08593157012
0.08430406117
0.0827117746
0.08115203033
0.07962309596
0.07812249481
0.07664600863
0.07520081084
0.07377845919
0.07237893187
0.0710006815
0.06964155387
0.06830199393
0.06698270379
0.06568182804
0.06439564676
0.06312612481
0.06187170073
0.06063044156
0.05940333358
0.05818858923
0.05698678512
0.0557965046
0.05461796699
0.05344989041
0.05229216139
0.05114427089
0.05000568085
0.04887583843
0.04775437363
0.04664194881
0.04553647129
0.04443900963
0.04334836509
0.04226473907
0.04118749818
0.04011633167
0.03905108069
0.0379914103
0.0369370815
0.03588771125
0.03484305066
0.03380303505
0.03276713877
0.03173531136
0.03070722788
0.02968280349
0.02866151724
0.02764311973
0.02662726865
0.02561404514
0.02460321112
0.02359424882
0.02258697794
0.02158113746
0.02057669961
0.01957321821
0.01857054414
0.01756827532
0.01656638782
0.01556439611
0.01456229964
0.01355965261
0.01255683094
0.01155268287
0.01054821297
0.009542751313
0.008536254751
0.007528858635
0.006520355442
0.005511387816
0.00547903549
0.005446518837
0.005412629792
0.005378740747
)


101
(
0.1503773906
0.1473797817
0.1441189303
0.1407737839
0.1374459477
0.1341902147
0.1310293666
0.1279828912
0.1250500825
0.122229723
0.1195169436
0.1169069556
0.1143915785
0.1119695519
0.1096323777
0.1073742533
0.1051914946
0.1030814949
0.1010328555
0.09905208577
0.09712674651
0.09525339148
0.09343450143
0.09166353393
0.08993651749
0.08825094501
0.08660424123
0.08499369412
0.08341799655
0.08187449479
0.08036147336
0.07887648054
0.07741534176
0.07598514829
0.07457754842
0.07319251754
0.07182852214
0.07048343007
0.06915767917
0.06785196177
0.06656443561
0.06529142696
0.06403487265
0.06279322803
0.06156458174
0.06034990462
0.05914743105
0.05795772957
0.0567793981
0.05561264982
0.05445621928
0.05330999403
0.05217346943
0.0510461123
0.0499273759
0.04881689447
0.04771531713
0.04662058082
0.04553373419
0.04445359493
0.04338035784
0.04231339567
0.04125239879
0.04019720216
0.03914748542
0.03810299537
0.03706335527
0.03602831206
0.03499779593
0.03397127828
0.03294871944
0.03192977381
0.03091434377
0.02990192022
0.02889224942
0.02788498388
0.026880156
0.02587756547
0.02487664833
0.0238772305
0.02287902519
0.02188197995
0.02088565034
0.01988985339
0.0188941598
0.01789857751
0.01690252871
0.01590604867
0.01490861044
0.0139107095
0.01291096419
0.01191065076
0.01090894802
0.009905840146
0.008901518042
0.007895725474
0.006889236441
0.006848793757
0.006808145894
0.006765785744
0.006723425593
)


101
(
0.1503783726
0.1474123188
0.1441857952
0.1408758663
0.1375830661
0.1343616138
0.131233973
0.1282195807
0.1253176603
0.1225270049
0.1198427972
0.1172603032
0.1147714263
0.1123749178
0.1100623691
0.1078280417
0.1056682872
0.1035805227
0.101553472
0.0995935759
0.09768853141
0.09583492137
0.09403520143
0.092282898
0.09057408084
0.08890626864
0.08727691209
0.0856833268
0.08412421824
0.08259695898
0.08109985048
0.07963046598
0.07818467459
0.07676948545
0.07537663735
0.0740061029
0.07265636248
0.07132530594
0.07001336408
0.06872121943
0.06744704285
0.06618720683
0.06494362014
0.06371475499
0.06249872158
0.06129647532
0.06010627252
0.05892867367
0.05776229122
0.05660733228
0.05546254777
0.0543278263
0.05320266757
0.05208654335
0.05097891297
0.04987941491
0.04878868505
0.04770468995
0.04662845834
0.04555882437
0.0444959762
0.04343929273
0.04238846548
0.0413433232
0.0403035601
0.03926890881
0.03823899885
0.03721357301
0.03619255636
0.03517541734
0.03416212708
0.03315231929
0.03214588358
0.03114232274
0.03014137864
0.02914269864
0.02814626639
0.02715191935
0.02615904737
0.02516748257
0.02417691243
0.02318725981
0.02219808199
0.02120916214
0.0202200438
0.01923076671
0.01824066082
0.01724979721
0.01625756777
0.01526458755
0.01426924501
0.01327308804
0.01227514421
0.01127542503
0.01027417694
0.009271090876
0.008267084451
0.00821855371
0.0081697767
0.008118943616
0.008068110532
)


101
(
0.1503793547
0.1474448558
0.1442526602
0.1409779487
0.1377201846
0.1345330129
0.1314385795
0.1284562702
0.1255852382
0.1228242869
0.1201686509
0.1176136509
0.1151512741
0.1127802839
0.1104923605
0.1082818303
0.10614508
0.1040795508
0.1020740888
0.1001350662
0.09825031651
0.09641645147
0.09463590164
0.0929022623
0.09121164442
0.08956159252
0.0879495832
0.08637295975
0.08483044019
0.08331942344
0.08183822788
0.0803844517
0.07895400772
0.0775538229
0.07617572658
0.07481968856
0.07348420312
0.07216718213
0.07086904932
0.06959047741
0.06832965042
0.06708298702
0.06585236798
0.06463628229
0.06343286176
0.06224304636
0.06106511435
0.05989961813
0.05874518472
0.05760201511
0.05646887664
0.05534565895
0.05423186611
0.0531269748
0.05203045044
0.05094193575
0.04986205336
0.04878879948
0.0477231829
0.04666405421
0.04561159497
0.04456519022
0.0435245326
0.04248944467
0.04145963522
0.04043482268
0.03941464287
0.03839883441
0.03738731723
0.03637955685
0.03537553516
0.03437486522
0.03337742386
0.03238272572
0.03139050833
0.03040041387
0.02941237725
0.0284262737
0.02744144688
0.02645773513
0.02547480016
0.02449254015
0.02351051412
0.02252847138
0.02154592828
0.0205629564
0.01957879343
0.01859354624
0.0176065256
0.01661846611
0.01562752633
0.01463552583
0.01364134091
0.01264501042
0.01164683635
0.01064642453
0.009644927127
0.009588309823
0.009531405082
0.00947210119
0.009412797298
)


101
(
0.1503803367
0.1474773928
0.1443195252
0.141080031
0.1378573031
0.134704412
0.1316431859
0.1286929597
0.125852816
0.1231215689
0.1204945045
0.1179669985
0.1155311219
0.1131856499
0.1109223518
0.1087356187
0.1066218726
0.1045785787
0.1025947054
0.1006765564
0.0988121014
0.09699798136
0.09523660163
0.09352162637
0.09184920777
0.09021691616
0.08862225406
0.08706259243
0.08553666188
0.08404188763
0.082576605
0.08113843714
0.07972334056
0.07833816006
0.07697481551
0.07563327393
0.07431204345
0.07300905801
0.07172473423
0.07045973507
0.06921225766
0.06797876689
0.06676111548
0.06555780925
0.06436700159
0.06318961705
0.06202395582
0.06087056222
0.05972807784
0.05859669757
0.05747520514
0.05636349122
0.05526106425
0.05416740585
0.05308198752
0.05200445619
0.05093542128
0.04987290861
0.04881790705
0.04776928364
0.04672721333
0.04569108729
0.04466059929
0.04363556572
0.0426157099
0.04160073612
0.04059028645
0.03958409536
0.03858207766
0.03758369591
0.03658894279
0.03559741069
0.03460896368
0.03362312824
0.03263963755
0.03165812863
0.03067848763
0.02970062757
0.02872384592
0.02774798721
0.0267726874
0.02579782
0.02482294577
0.02384778013
0.02287181228
0.0218951456
0.02091692554
0.01993729478
0.01895548293
0.01797234417
0.01698580715
0.01599796311
0.0150075371
0.01401459531
0.01301949524
0.01202177983
0.01102277271
0.01095806732
0.01089303337
0.01082525726
0.01075748114
)


101
(
0.1503813187
0.1475099298
0.1443863903
0.1411821134
0.1379944216
0.1348758113
0.1318477925
0.1289296493
0.126120394
0.123418851
0.1208203583
0.1183203464
0.1159109699
0.1135910161
0.1113523435
0.1091894074
0.1070986656
0.105077607
0.1031153224
0.1012180469
0.09937388671
0.09757951168
0.09583730207
0.09414099091
0.09248677159
0.09087224028
0.08929492542
0.08775222563
0.0862428841
0.08476435236
0.08331498267
0.08189242314
0.08049267397
0.0791224978
0.07777390504
0.07644685989
0.07513988439
0.07385093452
0.07258041979
0.07132899338
0.07009486556
0.06887454742
0.06766986365
0.06647933689
0.06530114212
0.06413618845
0.06298279801
0.06184150704
0.0607109717
0.05959138077
0.05848153439
0.05738132424
0.05629026317
0.05520783769
0.05413352538
0.05306697743
0.05200879
0.05095701855
0.04991263202
0.0488745139
0.04784283252
0.04681698519
0.04579666683
0.04478168762
0.04377178545
0.04276665042
0.0417659309
0.0407693572
0.03977683898
0.03878783587
0.03780235132
0.03681995708
0.03584050441
0.03486353168
0.03388876771
0.03291584433
0.03194459896
0.0309749824
0.03000624591
0.02903824025
0.02807057561
0.02710310083
0.02613537839
0.02516708987
0.02419769726
0.02322733579
0.02225505864
0.02128104432
0.02030444126
0.01932622323
0.01834408898
0.01736040141
0.01637373432
0.01538418121
0.01439215516
0.01339713953
0.01240061994
0.01232782563
0.01225466165
0.01217841324
0.01210216482
)


101
(
0.1503823008
0.1475424668
0.1444532552
0.1412841958
0.1381315401
0.1350472104
0.132052399
0.1291663388
0.1263879718
0.123716133
0.1211462119
0.118673694
0.1162908176
0.113996382
0.1117823348
0.1096431958
0.1075754582
0.1055766349
0.103635939
0.101759537
0.0999356716
0.09816104157
0.09643800207
0.09476035498
0.09312433493
0.09152756391
0.08996759628
0.08844185832
0.08694910579
0.08548681655
0.08405335979
0.08264640859
0.08126200681
0.07990683496
0.07857299397
0.07726044526
0.07596772473
0.0746928104
0.0734361047
0.07219825103
0.0709774728
0.06977032729
0.06857861115
0.06740086385
0.06623528196
0.06508275914
0.06394163948
0.06281245114
0.06169386483
0.06058606323
0.05948786288
0.05839915651
0.05731946132
0.05624826874
0.05518506246
0.05412949787
0.05308215792
0.05204112768
0.05100735617
0.04997974333
0.04895845087
0.04794288226
0.04693273352
0.04592780866
0.04492786013
0.04393256386
0.04294157448
0.04195461815
0.04097159941
0.03999197493
0.03901575895
0.03804250255
0.03707204423
0.0361039342
0.03513789693
0.03417355909
0.03321070935
0.03224933627
0.03128864494
0.03032849232
0.02936846286
0.02840838068
0.02744781004
0.02648639862
0.02552358125
0.02455952498
0.02359319075
0.02262479285
0.02165339859
0.02068010129
0.0197023698
0.01872283869
0.01773993051
0.0167537661
0.01576481406
0.01477249003
0.01377846386
0.01369758085
0.01361628692
0.01353156575
0.01344684458
)


101
(
0.1503832828
0.1475750038
0.1445201202
0.1413862781
0.1382686586
0.1352186095
0.1322570054
0.1294030282
0.1266555496
0.1240134149
0.1214720654
0.1190270415
0.1166706653
0.114401748
0.1122123261
0.1100969842
0.1080522508
0.1060756628
0.1041565555
0.1023010272
0.1004974565
0.09874257146
0.09703870206
0.09537971905
0.09376189828
0.09218288755
0.09064026714
0.08913149101
0.08765532748
0.08620928074
0.08479173692
0.08340039403
0.08203133965
0.08069117212
0.0793720829
0.07807403062
0.07679556506
0.07553468627
0.07429178962
0.07306750869
0.07186008004
0.07066610715
0.06948735865
0.06832239081
0.06716942179
0.06602932983
0.06490048095
0.06378339523
0.06267675795
0.06158074569
0.06049419138
0.05941698878
0.05834865947
0.0572886998
0.05623659953
0.05519201831
0.05415552583
0.05312523681
0.05210208033
0.05108497277
0.05007406923
0.04906877932
0.04806880021
0.0470739297
0.04608393482
0.0450984773
0.04411721806
0.04313987911
0.04216635984
0.04119611399
0.04022916658
0.03926504803
0.03830358405
0.03734433671
0.03638702615
0.03543127385
0.03447681973
0.03352369015
0.03257104398
0.0316187444
0.0306663501
0.02971366054
0.02876024168
0.02780570737
0.02684946524
0.02589171418
0.02493132285
0.02396854139
0.02300235592
0.02203397934
0.02106065061
0.02008527597
0.0191061267
0.01812335098
0.01713747295
0.01614783736
0.01515630631
0.01506733503
0.01497791166
0.01488471922
0.01479152678
)


101
(
0.1503842648
0.1476075408
0.1445869852
0.1414883605
0.138405777
0.1353900086
0.1324616118
0.1296397177
0.1269231274
0.1243106968
0.121797919
0.1193803891
0.1170505131
0.1148071139
0.1126423174
0.1105507726
0.1085290434
0.1065746906
0.1046771721
0.1028425173
0.1010592414
0.09932410134
0.09763940205
0.09599908312
0.09439946163
0.09283821118
0.091312938
0.08982112369
0.08836154916
0.08693174493
0.08553011404
0.08415437947
0.08280067249
0.08147550928
0.08017117183
0.07888761598
0.07762340539
0.07637656215
0.07514747454
0.07393676635
0.07274268729
0.07156188702
0.07039610615
0.06924391776
0.06810356162
0.06697590053
0.06585932242
0.06475433933
0.06365965108
0.06257542815
0.06150051987
0.06043482104
0.05937785761
0.05832913085
0.05728813661
0.05625453876
0.05522889375
0.05420934594
0.05319680448
0.0521902022
0.05118968759
0.05019467639
0.0492048669
0.04822005075
0.0472400095
0.04626439073
0.04529286164
0.04432514006
0.04336112027
0.04240025305
0.04144257421
0.0404875935
0.03953512387
0.03858473923
0.03763615538
0.03668898861
0.03574293012
0.03479804403
0.03385344301
0.03290899648
0.03196423735
0.03101894039
0.03007267333
0.02912501612
0.02817534924
0.02722390338
0.02626945496
0.02531228992
0.02435131325
0.0233878574
0.02241893143
0.02144771325
0.02047232289
0.01949293587
0.01851013185
0.0175231927
0.01653415076
0.01643709153
0.01633953897
0.01623787383
0.01613620869
)


101
(
0.1503852469
0.1476400778
0.1446538502
0.1415904428
0.1385428955
0.1355614077
0.1326662182
0.1298764072
0.1271907052
0.1246079787
0.1221237726
0.1197337367
0.1174303608
0.1152124798
0.1130723087
0.111004561
0.1090058361
0.1070737185
0.1051977887
0.1033840074
0.1016210263
0.09990563123
0.09824010204
0.09661844719
0.09503702497
0.09349353482
0.09198560886
0.09051075638
0.08906777085
0.08765420912
0.08626849116
0.08490836491
0.08357000533
0.08225984644
0.08097026076
0.07970120134
0.07845124572
0.07721843803
0.07600315945
0.07480602401
0.07362529453
0.07245766688
0.07130485365
0.07016544472
0.06903770146
0.06792247122
0.06681816389
0.06572528343
0.06464254421
0.06357011061
0.06250684837
0.06145265331
0.06040705576
0.05936956191
0.05833967369
0.0573170592
0.05630226167
0.05529345507
0.05429152863
0.05329543163
0.05230530594
0.05132057345
0.05034093359
0.04936617179
0.04839608419
0.04743030417
0.04646850522
0.04551040101
0.04455588069
0.04360439211
0.04265598184
0.04171013898
0.04076666368
0.03982514175
0.0388852846
0.03794670337
0.03700904051
0.0360723979
0.03513584205
0.03419924855
0.03326212459
0.03232422025
0.03138510497
0.03044432488
0.02950123323
0.02855609257
0.02760758707
0.02665603846
0.02570027058
0.02474173545
0.02377721225
0.02281015053
0.02183851909
0.02086252075
0.01988279074
0.01889854513
0.01791199393
0.01780684505
0.01770116189
0.01759102694
0.01748089199
)


101
(
0.1503862289
0.1476726149
0.1447207152
0.1416925253
0.138680014
0.1357328069
0.1328708248
0.1301130968
0.1274582833
0.1249052609
0.1224496264
0.1200870846
0.1178102088
0.1156178461
0.1135023003
0.1114583497
0.109482629
0.1075727468
0.1057184057
0.103925498
0.1021828116
0.1004871616
0.09884080248
0.09723781172
0.09567458879
0.09414885894
0.09265828022
0.09120038958
0.08977399307
0.08837667385
0.08700686883
0.08566235091
0.08433933874
0.08304418419
0.08176935029
0.08051478731
0.07927908667
0.07806031453
0.07685884501
0.07567528231
0.07450790242
0.07335344742
0.07221360182
0.07108697236
0.06997184199
0.06886904262
0.06777700607
0.06669622825
0.06562543807
0.06456479381
0.06351317762
0.06247048634
0.06143625468
0.06040999374
0.05939121155
0.05837958043
0.05737563039
0.056377565
0.0553862536
0.05440066189
0.05342092513
0.05244647136
0.05147700113
0.05051229369
0.04955215973
0.04859621848
0.04764414968
0.04669566285
0.04575064201
0.04480853207
0.04386939038
0.04293268537
0.04199820442
0.04106554519
0.04013441475
0.03920441907
0.03827515184
0.03734675273
0.03641824204
0.03548950159
0.0345600128
0.03362950107
0.0326975376
0.03176363461
0.03082711821
0.02988828276
0.02894572017
0.02799978799
0.02704922892
0.02609561452
0.02513549408
0.02417258882
0.0232047163
0.02223210665
0.02125545066
0.02027389721
0.01928983719
0.01917660005
0.01906278739
0.0189441807
0.01882557401
)


101
(
0.1503872109
0.1477051519
0.1447875802
0.1417946077
0.1388171326
0.1359042061
0.1330754314
0.1303497865
0.1277258613
0.1252025431
0.1227754802
0.1204404324
0.1181900568
0.1160232123
0.113932292
0.1119121385
0.109959422
0.1080717751
0.1062390226
0.1044669885
0.1027445969
0.1010686919
0.09944150292
0.09785717625
0.09631215261
0.09480418306
0.09333095158
0.09189002278
0.09048021528
0.08909913858
0.0877452465
0.08641633692
0.08510867215
0.08382852193
0.08256843982
0.08132837327
0.08010692762
0.07890219104
0.07771453056
0.07654454062
0.07539051032
0.07424922795
0.07312235
0.07200850001
0.07090598252
0.06981561401
0.06873584826
0.06766717307
0.06660833193
0.06555947701
0.06451950686
0.06348831936
0.06246545359
0.06145042557
0.06044274941
0.05944210167
0.0584489991
0.05746167494
0.05648097857
0.05550589215
0.05453654432
0.05357236926
0.05261306867
0.05165841559
0.05070823528
0.04976213278
0.04881979414
0.04788092469
0.04694540333
0.04601267203
0.04508279891
0.04415523175
0.04322974516
0.04230594864
0.0413835449
0.04046213477
0.03954126317
0.03862110755
0.03770064203
0.03677975463
0.03585790101
0.0349347819
0.03400997022
0.03308294434
0.03215300319
0.03122047295
0.03028385328
0.02934353753
0.02839818725
0.02744949358
0.02649377591
0.02553502712
0.02457091351
0.02360169256
0.02262811058
0.0216492384
0.02066767541
0.02054635333
0.02042441406
0.02029733442
0.02017025478
)


101
(
0.150388193
0.1477376889
0.1448544452
0.14189669
0.1389542509
0.1360756051
0.1332800377
0.1305864757
0.1279934389
0.1254998248
0.1231013335
0.1207937797
0.1185699042
0.116428578
0.1143622829
0.1123659265
0.1104362142
0.1085708026
0.1067596388
0.1050084782
0.1033063814
0.1016502213
0.1000422025
0.09847653986
0.09694971548
0.09545950621
0.09400362194
0.09257965495
0.09118643645
0.08982160223
0.08848362307
0.08717032179
0.08587800442
0.0846128585
0.08336752815
0.08214195803
0.08093476733
0.07974406629
0.07857021484
0.07741379763
0.07627311691
0.07514500715
0.07403109682
0.07293002628
0.07184012166
0.070762184
0.06969468901
0.06863811644
0.06759122432
0.06655415873
0.06552583461
0.06450615087
0.06349465097
0.06249085585
0.0614942857
0.06050462132
0.05952236622
0.05854578326
0.0575757019
0.05661112076
0.05565216185
0.05469826549
0.05374913452
0.05280453578
0.0518643091
0.05092804535
0.04999543684
0.04906618476
0.04814016287
0.04721681019
0.04629620564
0.04537777632
0.04446128406
0.04354635023
0.0426326732
0.0417198486
0.04080737261
0.03989546048
0.03898304011
0.03807000575
0.03715578729
0.03624006078
0.03532240089
0.03440225211
0.0334788862
0.03255266115
0.03162198439
0.03068728507
0.02974714357
0.02880337063
0.02785205571
0.02689746339
0.02593710869
0.02497127642
0.02400076846
0.02302459161
0.02204551677
0.02191610552
0.02178603603
0.02165048615
0.02151493627
)


101
(
0.150389175
0.1477702259
0.1449213102
0.1419987724
0.1390913695
0.1362470044
0.1334846443
0.1308231654
0.1282610169
0.1257971069
0.1234271873
0.1211471276
0.1189497523
0.1168339442
0.1147922746
0.1128197152
0.1109130072
0.1090698308
0.1072802558
0.1055499688
0.1038681667
0.1022317517
0.1006429029
0.0990959044
0.0975872793
0.09611483033
0.0946762933
0.09326928815
0.09189265866
0.09054406696
0.08922200075
0.0879243078
0.08664733783
0.08539719625
0.08416661768
0.082955544
0.08176260828
0.08058594279
0.07942590039
0.07828305593
0.0771557248
0.07604078768
0.07493984499
0.07385155392
0.07277426219
0.0717087554
0.0706535312
0.06960906126
0.06857411818
0.06754884193
0.06653216385
0.0655239839
0.06452384989
0.06353128769
0.06254582356
0.06156714255
0.06059573494
0.0596298932
0.05867042687
0.05771635101
0.05676778103
0.05582416339
0.05488520206
0.05395065767
0.05302038465
0.05209395965
0.0511710813
0.0502514466
0.04933492419
0.04842095015
0.04750961417
0.0466003227
0.04569282479
0.04478675367
0.04388180335
0.04297756429
0.04207348394
0.04116981531
0.0402654401
0.03936025878
0.0384536755
0.03754534161
0.03663483351
0.03572156185
0.03480477118
0.03388485134
0.03296011749
0.0320310346
0.03109610191
0.03015724969
0.02921033754
0.02825990168
0.0273033059
0.02634086233
0.02537342837
0.02439994335
0.02342335821
0.02328585675
0.02314765613
0.02300363788
0.02285961963
)


101
(
0.1503901571
0.1478027629
0.1449881752
0.1421008548
0.1392284881
0.1364184036
0.1336892508
0.131059855
0.1285285949
0.1260943891
0.1237530411
0.1215004754
0.1193296003
0.1172393104
0.1152222662
0.113273504
0.1113898002
0.1095688591
0.1078008728
0.1060914593
0.104429952
0.102813282
0.1012436033
0.09971526893
0.09822484312
0.09677015445
0.09534896467
0.09395892135
0.09259888088
0.09126653169
0.08996037842
0.0886782938
0.08741667124
0.08618153399
0.08496570721
0.08376912996
0.08259044923
0.0814278193
0.08028158595
0.07915231424
0.0780383327
0.07693656821
0.07584859317
0.07477308157
0.07370840272
0.0726553268
0.07161237338
0.07058000608
0.06955701204
0.06854352513
0.0675384931
0.06654181692
0.0655530488
0.06457171952
0.06359736142
0.06262966379
0.06166910365
0.06071400314
0.05976515184
0.05882158127
0.05788340022
0.0569500613
0.05602126959
0.05509677957
0.05417646019
0.05325987396
0.05234672575
0.05143670843
0.05052968551
0.0496250901
0.04872302271
0.04782286909
0.04692436553
0.04602715711
0.0451309335
0.04423527999
0.04333959527
0.04244417013
0.04154784009
0.04065051182
0.03975156371
0.03885062244
0.03794726614
0.03704087158
0.03613065616
0.03521704153
0.0342982506
0.03337478414
0.03244506024
0.03151112875
0.03056861937
0.02962233998
0.02866950311
0.02771044823
0.02674608829
0.02577530162
0.02480120245
0.02465561122
0.0245092798
0.02435679101
0.02420430222
)


101
(
0.1503911391
0.1478352999
0.1450550402
0.1422029371
0.1393656064
0.1365898026
0.1338938571
0.1312965443
0.1287961725
0.1263916708
0.1240788945
0.1218538228
0.1197094477
0.1176446761
0.1156522572
0.113727292
0.1118665924
0.1100678866
0.108321489
0.106632949
0.1049917365
0.1033948114
0.1018443029
0.1003346325
0.098862406
0.0974254776
0.09602163502
0.09464855352
0.09330510204
0.09198899534
0.09069875499
0.08943227868
0.0881860035
0.08696587057
0.08576479554
0.08458271472
0.08341828894
0.08226969455
0.08113727023
0.08002157125
0.07892093929
0.07783234741
0.07675733999
0.07569460784
0.07464254185
0.07360189678
0.07257121414
0.07155094945
0.07053990443
0.06953820685
0.06854482085
0.06755964843
0.06658224618
0.0656121498
0.06464889772
0.06369218344
0.06274247077
0.06179811146
0.06085987517
0.05992680988
0.05899901775
0.05807595753
0.05715733544
0.05624289976
0.05533253402
0.05442578653
0.05352236846
0.0526219685
0.05172444505
0.05082922827
0.04993642944
0.04904541365
0.04815590443
0.04726755871
0.0463800618
0.04549299382
0.04460570471
0.04371852306
0.04283023817
0.04194076294
0.04104944999
0.04015590132
0.03925969681
0.03836017935
0.03745653916
0.03654922973
0.03563638171
0.03471853167
0.03379401657
0.0328650058
0.03192689918
0.03098477624
0.03003569828
0.0290800321
0.02811874617
0.02715065741
0.02617904429
0.02602536493
0.02587090406
0.02570994241
0.02554898075
)


101
(
0.1503921211
0.147867837
0.1451219052
0.1423050195
0.139502725
0.1367612018
0.1340984637
0.131533234
0.1290637505
0.1266889529
0.1244047483
0.1222071706
0.1200892957
0.1180500423
0.1160822488
0.1141810808
0.1123433854
0.1105669149
0.1088421059
0.1071744396
0.1055535218
0.1039763418
0.1024450033
0.1009539971
0.09949996982
0.09808080172
0.09669430639
0.09533818672
0.09401132426
0.09271146007
0.09143713266
0.09018626468
0.08895533692
0.08775020831
0.08656388507
0.08539630069
0.08424612989
0.08311157106
0.08199295578
0.08089082955
0.07980354718
0.07872812794
0.07766608817
0.07661613548
0.07557668238
0.07454846818
0.07353005632
0.07252189427
0.07152279829
0.07053289005
0.06955115009
0.06857748146
0.0676114451
0.06665258163
0.06570043558
0.06475470467
0.06381583949
0.0628822214
0.06195460014
0.06103204013
0.06011463694
0.05920185543
0.05829340298
0.05738902166
0.05648860956
0.05559170083
0.05469801291
0.05380723034
0.05291920637
0.05203336822
0.05114983797
0.05026796004
0.04938744516
0.04850796215
0.04762919195
0.04675070952
0.04587181604
0.04499287789
0.04411263816
0.04323101598
0.0423473382
0.04146118214
0.04057212943
0.03967948909
0.03878242414
0.03788141992
0.03697451481
0.03606228121
0.0351429749
0.03421888486
0.03328518101
0.03234721454
0.03140189549
0.030449618
0.02949140608