/*--------------------------------*- C++ -*----------------------------------*\
| =========                 |                                                 |
| \\      /  F ield         | OpenFOAM: The Open Source CFD Toolbox           |
|  \\    /   O peration     | Version:  2.3.1                                 |
|   \\  /    A nd           | Web:      www.OpenFOAM.org                      |
|    \\/     M anipulation  |                                                 |
\*---------------------------------------------------------------------------*/
FoamFile
{
    version     2.0;
    format      ascii;
    class       dictionary;
    location    "constant";
    object      CO2min;
}
// * * * * * * * * * * * * * * * * * * * * * * * * * * * * * * * * * * * * * //

CO2min
101
(
0.1503724804
0.1472170967
0.1437846053
0.1402633721
0.1367603552
0.1333332189
0.1300063342
0.1267994436
0.1237121931
0.120743313
0.1178876754
0.1151402173
0.1124923395
0.1099427217
0.1074824207
0.1051053109
0.102807531
0.1005863548
0.09842977196
0.09634463449
0.09431782143
0.09234574139
0.0904310008
0.08856671288
0.08674870005
0.0849743261
0.08324088617
0.08154552992
0.07988688731
0.07826217304
0.07666958693
0.07510655249
0.0735686767
0.07206346161
0.07058210287
0.06912458982
0.06768931956
0.06627404974
0.06487925363
0.06350567251
0.06215139842
0.06081252663
0.05949113414
0.05818559222
0.05689388153
0.05561705011
0.05435322263
0.05310300801
0.05186493137
0.05063923641
0.04942457567
0.04822083156
0.04702747754
0.04584395585
0.04466968934
0.04350429107
0.04234847634
0.04120003396
0.04006011221
0.03892744653
0.03780226481
0.03668390908
0.03557206406
0.03446659566
0.0333671107
0.03227342689
0.03118513605
0.03010200597
0.02902399245
0.02795058164
0.02688167994
0.02581704507
0.0247566433
0.02369990624
0.02264660191
0.02159640866
0.02054960266
0.01950579466
0.01846465173
0.01742596867
0.01638958752
0.01535557923
0.01432349064
0.01329330815
0.01226473836
0.01123763004
0.01021186668
0.009187304494
0.008163822286
0.007141317708
0.006119558583
0.005098462834
0.004077965523
0.003057914194
0.002038222028
0.0010187852
1.51441378e-23
0
1.059501007e-36
-4.31245149e-21
0
)
;