/*--------------------------------*- C++ -*----------------------------------*\
| =========                 |                                                 |
| \\      /  F ield         | OpenFOAM: The Open Source CFD Toolbox           |
|  \\    /   O peration     | Version:  2.3.1                                 |
|   \\  /    A nd           | Web:      www.OpenFOAM.org                      |
|    \\/     M anipulation  |                                                 |
\*---------------------------------------------------------------------------*/
FoamFile
{
    version     2.0;
    format      ascii;
    class       dictionary;
    location    "constant";
    object      DPSI40;
}
// * * * * * * * * * * * * * * * * * * * * * * * * * * * * * * * * * * * * * //

DPSI40_table
101
(

101
(
7.27312669e-22
2.526640929e-15
2.127024621e-14
8.941189402e-14
2.467514695e-13
5.237355611e-13
9.433364977e-13
1.567849259e-12
2.40324751e-12
3.505886733e-12
4.896253062e-12
6.632661008e-12
8.70487546e-12
1.122687298e-11
1.408493535e-11
1.726411403e-11
2.071144269e-11
2.427813701e-11
2.758040688e-11
3.064366259e-11
3.291431421e-11
3.427074575e-11
3.433168023e-11
3.31012302e-11
3.062403535e-11
2.698415427e-11
2.242451893e-11
1.723505182e-11
1.145191855e-11
5.501843399e-12
-4.75627173e-13
-6.101361832e-12
-1.070108338e-11
-1.531126683e-11
-1.777863288e-11
-1.866569845e-11
1.061956811e-11
4.54803151e-11
6.29343395e-12
-4.675557554e-12
-8.443926012e-12
-1.065444804e-11
-1.272783207e-11
-1.477719235e-11
-1.668589549e-11
-1.831097373e-11
-1.977440356e-11
-2.071526347e-11
-2.152765555e-11
-2.188872111e-11
-2.207957059e-11
-2.198614693e-11
-2.164479017e-11
-2.083911324e-11
-1.97524713e-11
-1.868584183e-11
-1.733748797e-11
-1.621018208e-11
-1.485829741e-11
-1.357999951e-11
-1.215208452e-11
-1.08703307e-11
-9.619670215e-12
-8.356606831e-12
-7.019996373e-12
-5.948794131e-12
-4.952503611e-12
-4.030411947e-12
-3.199837732e-12
-2.507367869e-12
-1.91243004e-12
-1.43891096e-12
-1.058944448e-12
-7.462720593e-13
-4.504879018e-13
-2.76686132e-13
-1.926503212e-13
-1.260980934e-13
-8.007246174e-14
-4.934284704e-14
-2.971801096e-14
-1.681468756e-14
-9.505031381e-15
-4.531624311e-15
-2.247312981e-15
-1.505497956e-15
-1.063736979e-15
-7.118766086e-16
-4.410170821e-16
-2.24408671e-16
-1.512138091e-16
-1.040944694e-16
-6.511105303e-17
-3.616582832e-17
-2.142509512e-17
-1.276711258e-17
-3.749725054e-18
-7.293898207e-18
-1.464043232e-17
-4.43723969e-17
-1.131639295e-16
)


101
(
7.273308996e-22
2.465880709e-15
2.092454806e-14
8.821555204e-14
2.435597595e-13
5.165946077e-13
9.289645021e-13
1.539949565e-12
2.353955908e-12
3.421773459e-12
4.759881249e-12
6.418691397e-12
8.383417076e-12
1.07511029e-11
1.341096638e-11
1.632862978e-11
1.943762331e-11
2.258017037e-11
2.537882315e-11
2.779465079e-11
2.932410216e-11
2.978407443e-11
2.8798878e-11
2.634104151e-11
2.244482111e-11
1.719548186e-11
1.083999404e-11
3.689026632e-12
-4.16001986e-12
-1.229016705e-11
-2.051485192e-11
-2.849663558e-11
-3.559265313e-11
-4.264683816e-11
-4.763496974e-11
-5.102483247e-11
-3.111631433e-11
-1.771616548e-12
-2.887211202e-11
-4.34239193e-11
-5.025726324e-11
-5.372666714e-11
-5.62692134e-11
-5.842207887e-11
-6.010666732e-11
-6.132390618e-11
-6.217553164e-11
-6.233773707e-11
-6.210651988e-11
-6.126879278e-11
-6.003277114e-11
-5.836946764e-11
-5.638818787e-11
-5.40165079e-11
-5.123116828e-11
-4.822427707e-11
-4.484265919e-11
-4.155186256e-11
-3.811981534e-11
-3.473313602e-11
-3.131637971e-11
-2.80480011e-11
-2.488292022e-11
-2.184797432e-11
-1.889910523e-11
-1.623108814e-11
-1.375588855e-11
-1.148971615e-11
-9.467139647e-12
-7.677162603e-12
-6.115892723e-12
-4.783853308e-12
-3.694384171e-12
-2.790338342e-12
-2.018861841e-12
-1.436484437e-12
-1.017938217e-12
-7.029489621e-13
-4.752086066e-13
-3.131435226e-13
-2.014098594e-13
-1.247710496e-13
-7.558647496e-14
-4.349888009e-14
-2.412455378e-14
-1.327955958e-14
-7.56887573e-15
-4.649451624e-15
-2.740298703e-15
-1.563609595e-15
-9.56103109e-16
-5.960247254e-16
-3.883717954e-16
-2.409890728e-16
-1.54979536e-16
-9.628109101e-17
-3.782226233e-17
-9.377024764e-17
-2.221928466e-16
-7.667136881e-16
-1.736115283e-15
)


101
(
7.273491318e-22
2.343727548e-15
2.020960076e-14
8.565915562e-14
2.365573134e-13
5.006568909e-13
8.966610437e-13
1.477326895e-12
2.243522804e-12
3.234527271e-12
4.458248678e-12
5.948944885e-12
7.682519205e-12
9.722190874e-12
1.19623644e-11
1.433347374e-11
1.674253905e-11
1.901645263e-11
2.079768741e-11
2.193010487e-11
2.200216371e-11
2.073353037e-11
1.775671408e-11
1.298654669e-11
6.434607455e-12
-1.828696762e-12
-1.155929662e-11
-2.241473852e-11
-3.419813538e-11
-4.650552386e-11
-5.905868449e-11
-7.161446285e-11
-8.362129257e-11
-9.563980442e-11
-1.060180352e-10
-1.133773563e-10
-1.10442423e-10
-9.418438643e-11
-1.033489679e-10
-1.206960186e-10
-1.330932019e-10
-1.404097453e-10
-1.45046338e-10
-1.48214522e-10
-1.503144472e-10
-1.516195318e-10
-1.521168698e-10
-1.517145419e-10
-1.503396276e-10
-1.480590254e-10
-1.448420217e-10
-1.408512161e-10
-1.362539385e-10
-1.311607889e-10
-1.254549653e-10
-1.19232604e-10
-1.12330073e-10
-1.051322649e-10
-9.776786077e-11
-9.026244661e-11
-8.279996618e-11
-7.544778945e-11
-6.824756413e-11
-6.12913818e-11
-5.457736263e-11
-4.812514201e-11
-4.20406587e-11
-3.631736166e-11
-3.112327163e-11
-2.637419941e-11
-2.205624983e-11
-1.817378128e-11
-1.480704113e-11
-1.190278731e-11
-9.399616894e-12
-7.285499483e-12
-5.538609252e-12
-4.129423992e-12
-3.023593202e-12
-2.175389672e-12
-1.536077411e-12
-1.052931292e-12
-7.055292428e-13
-4.593843386e-13
-2.883976761e-13
-1.743640598e-13
-1.016156466e-13
-6.058314216e-14
-3.602955559e-14
-2.033854139e-14
-1.114537528e-14
-6.418327697e-15
-3.879091735e-15
-2.374231028e-15
-1.509704339e-15
-9.186884833e-16
-3.523879771e-16
-1.385302523e-15
-4.195209814e-15
-1.947493771e-14
-5.123131404e-14
)


101
(
7.273673637e-22
2.224094122e-15
1.950943442e-14
8.316814995e-14
2.297923934e-13
4.854254712e-13
8.661557365e-13
1.418858605e-12
2.141439426e-12
3.063257755e-12
4.184805507e-12
5.526897639e-12
7.057859303e-12
8.81343968e-12
1.069203754e-11
1.259834797e-11
1.441735586e-11
1.596335525e-11
1.689505313e-11
1.697323702e-11
1.583369588e-11
1.313451974e-11
8.493414275e-12
1.769445563e-12
-7.070780084e-12
-1.798721506e-11
-3.076010468e-11
-4.504778847e-11
-6.059206325e-11
-7.698314383e-11
-9.382001272e-11
-1.109473509e-10
-1.278591241e-10
-1.450975616e-10
-1.616639937e-10
-1.760206396e-10
-1.820059476e-10
-1.7804791e-10
-1.834927953e-10
-1.991719537e-10
-2.157057327e-10
-2.285923083e-10
-2.377792392e-10
-2.443016429e-10
-2.490145684e-10
-2.524864772e-10
-2.547094392e-10
-2.558134391e-10
-2.554988964e-10
-2.539782005e-10
-2.510078228e-10
-2.467548435e-10
-2.413905154e-10
-2.351446276e-10
-2.279738408e-10
-2.198478968e-10
-2.109231745e-10
-2.011171606e-10
-1.907695414e-10
-1.797331623e-10
-1.68429264e-10
-1.570510545e-10
-1.456162752e-10
-1.342941491e-10
-1.230886668e-10
-1.11868609e-10
-1.009171976e-10
-9.032264365e-11
-8.028017431e-11
-7.086455996e-11
-6.1843939e-11
-5.340946609e-11
-4.564208816e-11
-3.864750448e-11
-3.234226561e-11
-2.670202124e-11
-2.166671264e-11
-1.733208918e-11
-1.364503369e-11
-1.058348184e-11
-8.092239336e-12
-6.049847838e-12
-4.431141032e-12
-3.184561637e-12
-2.228710448e-12
-1.509864607e-12
-9.845212328e-13
-6.32197755e-13
-4.046161065e-13
-2.521499458e-13
-1.466239603e-13
-8.471849041e-14
-4.855239918e-14
-2.784338714e-14
-1.682013158e-14
-9.507777768e-15
-3.893926023e-15
-2.450040753e-14
-7.519114589e-14
-3.344336256e-13
-7.02000366e-13
)


101
(
7.273856633e-22
2.106955672e-15
1.88236198e-14
8.073964605e-14
2.23252494e-13
4.708593067e-13
8.373336815e-13
1.364248292e-12
2.047051838e-12
2.906582117e-12
3.936873632e-12
5.147545253e-12
6.500760372e-12
8.009902521e-12
9.576441376e-12
1.108651062e-11
1.240704917e-11
1.334179341e-11
1.356105636e-11
1.276937222e-11
1.0621136e-11
6.731748137e-12
6.886753398e-13
-7.701535978e-12
-1.85389177e-11
-3.182699382e-11
-4.73882304e-11
-6.491730607e-11
-8.413036634e-11
-1.046262773e-10
-1.259556337e-10
-1.47766239e-10
-1.697213248e-10
-1.923443551e-10
-2.151626593e-10
-2.382770688e-10
-2.520288231e-10
-2.590295071e-10
-2.683044167e-10
-2.843535598e-10
-3.043652396e-10
-3.233379597e-10
-3.391406918e-10
-3.517559349e-10
-3.616999629e-10
-3.696923738e-10
-3.760230592e-10
-3.810628056e-10
-3.845678265e-10
-3.865091944e-10
-3.86573925e-10
-3.847307402e-10
-3.81163827e-10
-3.762800972e-10
-3.701071141e-10
-3.622786588e-10
-3.53282112e-10
-3.428443286e-10
-3.314596752e-10
-3.18607713e-10
-3.045976691e-10
-2.901549162e-10
-2.750041608e-10
-2.59599684e-10
-2.440649747e-10
-2.280405478e-10
-2.116935024e-10
-1.952659819e-10
-1.788483489e-10
-1.63225821e-10
-1.476961421e-10
-1.325369384e-10
-1.17815026e-10
-1.039331642e-10
-9.089352174e-11
-7.873024052e-11
-6.742949917e-11
-5.704143833e-11
-4.751915755e-11
-3.911393131e-11
-3.181005497e-11
-2.557732705e-11
-2.014625491e-11
-1.564681428e-11
-1.192233144e-11
-8.890904272e-12
-6.409764619e-12
-4.528179991e-12
-3.14903787e-12
-2.170579854e-12
-1.421303232e-12
-9.024223535e-13
-5.695243348e-13
-3.44128177e-13
-2.122122827e-13
-1.20295143e-13
-5.329446178e-14
-3.151515963e-13
-9.351420044e-13
-4.056033207e-12
-8.266247586e-12
)


101
(
7.274038289e-22
1.992291923e-15
1.815174574e-14
7.837088503e-14
2.169257611e-13
4.569195083e-13
8.100873133e-13
1.313223934e-12
1.959766499e-12
2.76326939e-12
3.712122823e-12
4.806534321e-12
6.003898511e-12
7.298987131e-12
8.595893118e-12
9.767937924e-12
1.066637835e-11
1.108719104e-11
1.070957004e-11
9.198363446e-12
6.210491071e-12
1.331011097e-12
-5.892022574e-12
-1.570595524e-11
-2.827997332e-11
-4.369339912e-11
-6.183058672e-11
-8.242932687e-11
-1.052147571e-10
-1.29818937e-10
-1.55831452e-10
-1.826606014e-10
-2.100247507e-10
-2.38332307e-10
-2.672923777e-10
-2.968877782e-10
-3.213977539e-10
-3.394335198e-10
-3.561459749e-10
-3.766509825e-10
-4.013631167e-10
-4.270514836e-10
-4.509973455e-10
-4.720877404e-10
-4.900841526e-10
-5.054628555e-10
-5.186908667e-10
-5.305871891e-10
-5.410592251e-10
-5.497453391e-10
-5.563826811e-10
-5.605239777e-10
-5.62265674e-10
-5.620738017e-10
-5.604201795e-10
-5.566137486e-10
-5.506807579e-10
-5.4272838e-10
-5.331145116e-10
-5.215003771e-10
-5.079357738e-10
-4.930527892e-10
-4.765985111e-10
-4.587973072e-10
-4.403058736e-10
-4.209128236e-10
-4.002616324e-10
-3.785485059e-10
-3.558010368e-10
-3.329920972e-10
-3.101934395e-10
-2.872252744e-10
-2.639955021e-10
-2.408891587e-10
-2.182003738e-10
-1.961838367e-10
-1.751875313e-10
-1.548506713e-10
-1.35215339e-10
-1.167878144e-10
-9.980049419e-11
-8.469249474e-11
-7.079780335e-11
-5.839141035e-11
-4.758280737e-11
-3.813113833e-11
-2.987149494e-11
-2.28591612e-11
-1.727165816e-11
-1.294011699e-11
-9.380048111e-12
-6.546446265e-12
-4.572073455e-12
-3.085502316e-12
-2.073285884e-12
-1.267470755e-12
-6.261925429e-13
-3.526141635e-12
-9.111791876e-12
-3.111707944e-11
-5.806353738e-11
)


101
(
7.274220589e-22
1.880080423e-15
1.749343864e-14
7.605929908e-14
2.10800563e-13
4.435654559e-13
7.842997416e-13
1.265502467e-12
1.879034608e-12
2.632249384e-12
3.50856816e-12
4.500394918e-12
5.561414834e-12
6.671177867e-12
7.735744323e-12
8.620560354e-12
9.16390501e-12
9.155616373e-12
8.281937284e-12
6.180252904e-12
2.501002134e-12
-3.191957552e-12
-1.139194422e-11
-2.240450065e-11
-3.646219888e-11
-5.374326178e-11
-7.423011889e-11
-9.771706527e-11
-1.239540311e-10
-1.526191467e-10
-1.83339109e-10
-2.155603111e-10
-2.488025785e-10
-2.833297051e-10
-3.190549448e-10
-3.559483892e-10
-3.905280748e-10
-4.202439441e-10
-4.47217991e-10
-4.755242195e-10
-5.072029845e-10
-5.408544104e-10
-5.744274878e-10
-6.061407614e-10
-6.350522829e-10
-6.611882034e-10
-6.846865907e-10
-7.06517296e-10
-7.270472308e-10
-7.459872539e-10
-7.63086717e-10
-7.774338418e-10
-7.890458396e-10
-7.981294669e-10
-8.052529291e-10
-8.100792163e-10
-8.124027761e-10
-8.117444074e-10
-8.084365432e-10
-8.023681086e-10
-7.93687735e-10
-7.826218302e-10
-7.692212964e-10
-7.533899317e-10
-7.355921052e-10
-7.162088672e-10
-6.944861188e-10
-6.70796343e-10
-6.446755974e-10
-6.165864539e-10
-5.878268441e-10
-5.578054281e-10
-5.265720187e-10
-4.940022178e-10
-4.606659498e-10
-4.26755169e-10
-3.9333624e-10
-3.600678452e-10
-3.26936885e-10
-2.939436188e-10
-2.615770852e-10
-2.310513174e-10
-2.025471905e-10
-1.752369565e-10
-1.503386806e-10
-1.27412711e-10
-1.063191187e-10
-8.689742142e-11
-7.031291281e-11
-5.621702348e-11
-4.42406481e-11
-3.353785601e-11
-2.544662711e-11
-1.89171414e-11
-1.381856922e-11
-9.565656403e-12
-5.458688143e-12
-2.404802462e-11
-5.562634735e-11
-1.603853631e-10
-2.839486601e-10
)


101
(
7.274402903e-22
1.770304935e-15
1.684834821e-14
7.380244744e-14
2.048657587e-13
4.307567962e-13
7.598479182e-13
1.22077551e-12
1.804308617e-12
2.512478411e-12
3.324298475e-12
4.225742986e-12
5.16765159e-12
6.117355398e-12
6.982259532e-12
7.623856244e-12
7.870872391e-12
7.507946503e-12
6.227029404e-12
3.647034257e-12
-5.932803675e-13
-6.943225961e-12
-1.592919123e-11
-2.792753691e-11
-4.322484137e-11
-6.210307478e-11
-8.468211298e-11
-1.108491098e-10
-1.403917963e-10
-1.730359478e-10
-2.084760121e-10
-2.462509091e-10
-2.857849631e-10
-3.27103048e-10
-3.702198064e-10
-4.151609347e-10
-4.597523814e-10
-5.014564338e-10
-5.405947801e-10
-5.795922906e-10
-6.209033665e-10
-6.646301734e-10
-7.095629347e-10
-7.538765011e-10
-7.962912361e-10
-8.364825979e-10
-8.740647089e-10
-9.096352025e-10
-9.440006865e-10
-9.770888375e-10
-1.00841852e-09
-1.037522464e-09
-1.064130055e-09
-1.087576774e-09
-1.108721769e-09
-1.12788181e-09
-1.144343358e-09
-1.157212465e-09
-1.166962807e-09
-1.173083792e-09
-1.175639395e-09
-1.174870499e-09
-1.170428327e-09
-1.163074553e-09
-1.152564572e-09
-1.139737912e-09
-1.123860991e-09
-1.104482865e-09
-1.081085603e-09
-1.053025594e-09
-1.022612342e-09
-9.892541713e-10
-9.543623399e-10
-9.164802457e-10
-8.752196122e-10
-8.311736799e-10
-7.855911643e-10
-7.389501178e-10
-6.912276375e-10
-6.414424727e-10
-5.905901394e-10
-5.393161972e-10
-4.905085015e-10
-4.413548932e-10
-3.943273525e-10
-3.484235927e-10
-3.056136768e-10
-2.632381846e-10
-2.247961069e-10
-1.899247686e-10
-1.583732786e-10
-1.287659359e-10
-1.045494033e-10
-8.386328415e-11
-6.583970257e-11
-5.055623666e-11
-3.294148449e-11
-1.130481941e-10
-2.367933092e-10
-5.891964825e-10
-1.020330493e-09
)


101
(
7.27458657e-22
1.662954409e-15
1.621614938e-14
7.159795219e-14
1.99111225e-13
4.184606668e-13
7.366366248e-13
1.178793885e-12
1.735108203e-12
2.403043004e-12
3.157693113e-12
3.979682542e-12
4.81787528e-12
5.62980712e-12
6.324016455e-12
6.760778643e-12
6.762691717e-12
6.110552299e-12
4.501134575e-12
1.541237645e-12
-3.145470665e-12
-1.0016092e-11
-1.961346115e-11
-3.24045563e-11
-4.872600997e-11
-6.895267255e-11
-9.335515352e-11
-1.21951314e-10
-1.545928255e-10
-1.910526268e-10
-2.310968928e-10
-2.744066405e-10
-3.204546552e-10
-3.690185584e-10
-4.200235403e-10
-4.73601055e-10
-5.284677482e-10
-5.82505033e-10
-6.351255492e-10
-6.872056729e-10
-7.407671306e-10
-7.967908002e-10
-8.550276358e-10
-9.140057125e-10
-9.724018379e-10
-1.029668456e-09
-1.085063911e-09
-1.138766204e-09
-1.19120464e-09
-1.242623258e-09
-1.292774524e-09
-1.341859721e-09
-1.388957221e-09
-1.432969633e-09
-1.47452694e-09
-1.513884831e-09
-1.55117684e-09
-1.584463085e-09
-1.615040341e-09
-1.642008974e-09
-1.664556436e-09
-1.683249825e-09
-1.696996753e-09
-1.706861458e-09
-1.712660672e-09
-1.71504831e-09
-1.714288327e-09
-1.708374966e-09
-1.69724092e-09
-1.679620939e-09
-1.657139048e-09
-1.629919481e-09
-1.598659346e-09
-1.563297673e-09
-1.522473325e-09
-1.476212416e-09
-1.424207202e-09
-1.368699126e-09
-1.310818188e-09
-1.247481253e-09
-1.179197531e-09
-1.108181698e-09
-1.036512074e-09
-9.639868623e-10
-8.888439042e-10
-8.123956751e-10
-7.401286212e-10
-6.65043742e-10
-5.92436003e-10
-5.234726258e-10
-4.56873587e-10
-3.93317879e-10
-3.363963936e-10
-2.859435772e-10
-2.379824391e-10
-1.944645292e-10
-1.437098224e-10
-3.994166646e-10
-7.628526342e-10
-1.641176101e-09
-2.774353783e-09
)


101
(
7.274768881e-22
1.558014507e-15
1.559653701e-14
6.944340436e-14
1.935263527e-13
4.066458736e-13
7.145917692e-13
1.139380191e-12
1.670983095e-12
2.303036474e-12
3.007251125e-12
3.759808541e-12
4.508322883e-12
5.202577073e-12
5.752149377e-12
6.018151746e-12
5.820300381e-12
4.936916412e-12
3.069702249e-12
-1.814856693e-13
-5.21060854e-12
-1.248390692e-11
-2.25480038e-11
-3.595603531e-11
-5.311332702e-11
-7.446947165e-11
-1.004275998e-10
-1.311594273e-10
-1.666205664e-10
-2.066516919e-10
-2.510704362e-10
-2.996819352e-10
-3.521346928e-10
-4.081532125e-10
-4.6741315e-10
-5.301426329e-10
-5.957410129e-10
-6.625600298e-10
-7.294812587e-10
-7.963810109e-10
-8.644961214e-10
-9.349651364e-10
-1.00865247e-09
-1.08461072e-09
-1.161655889e-09
-1.2390949e-09
-1.315800097e-09
-1.391582266e-09
-1.466163078e-09
-1.540345117e-09
-1.614402968e-09
-1.688757103e-09
-1.762265513e-09
-1.83387607e-09
-1.902269562e-09
-1.96882581e-09
-2.034788879e-09
-2.097123351e-09
-2.15721467e-09
-2.214425644e-09
-2.266991972e-09
-2.315265246e-09
-2.359184793e-09
-2.397910703e-09
-2.43117531e-09
-2.459222821e-09
-2.484967734e-09
-2.50537336e-09
-2.520635944e-09
-2.528345489e-09
-2.528250277e-09
-2.521040046e-09
-2.507191668e-09
-2.487677491e-09
-2.461589793e-09
-2.426306711e-09
-2.381311039e-09
-2.329700036e-09
-2.272486189e-09
-2.207242865e-09
-2.131491726e-09
-2.049654498e-09
-1.961006054e-09
-1.870635883e-09
-1.771091295e-09
-1.663173403e-09
-1.557627518e-09
-1.447032901e-09
-1.332692373e-09
-1.221766178e-09
-1.106270283e-09
-9.9385754e-10
-8.869172901e-10
-7.879763995e-10
-6.90272061e-10
-5.921064124e-10
-4.740423527e-10
-1.127799294e-09
-1.987258981e-09
-3.718159768e-09
-5.655669617e-09
)


101
(
7.274789719e-22
1.455477021e-15
1.498923827e-14
6.733668074e-14
1.88101433e-13
3.95282738e-13
6.936430111e-13
1.102374949e-12
1.611517874e-12
2.211573891e-12
2.871546986e-12
3.563877559e-12
4.235592409e-12
4.830397384e-12
5.258873051e-12
5.384481229e-12
5.027381079e-12
3.964739861e-12
1.903209754e-12
-1.559484664e-12
-6.834890118e-12
-1.440440279e-11
-2.481961317e-11
-3.868157993e-11
-5.650168645e-11
-7.878204943e-11
-1.060211481e-10
-1.385612505e-10
-1.765123006e-10
-2.198206224e-10
-2.68349192e-10
-3.219694425e-10
-3.805252347e-10
-4.439523425e-10
-5.11730373e-10
-5.840152792e-10
-6.606502684e-10
-7.404649274e-10
-8.221046044e-10
-9.049812834e-10
-9.896574465e-10
-1.076994084e-09
-1.168391643e-09
-1.263689082e-09
-1.362034335e-09
-1.46264801e-09
-1.56393533e-09
-1.665325109e-09
-1.766428888e-09
-1.868187019e-09
-1.970895801e-09
-2.075197399e-09
-2.180662759e-09
-2.285884413e-09
-2.388485616e-09
-2.491409487e-09
-2.593532285e-09
-2.694258097e-09
-2.79270294e-09
-2.890210967e-09
-2.984373582e-09
-3.073954572e-09
-3.159980542e-09
-3.24061137e-09
-3.316078272e-09
-3.385154243e-09
-3.450448481e-09
-3.512734841e-09
-3.570609792e-09
-3.620742114e-09
-3.661842721e-09
-3.693302435e-09
-3.716856327e-09
-3.73259874e-09
-3.74035025e-09
-3.736231773e-09
-3.720187461e-09
-3.694241039e-09
-3.655555768e-09
-3.608139247e-09
-3.54746029e-09
-3.472805573e-09
-3.386413728e-09
-3.293434908e-09
-3.186027948e-09
-3.058862833e-09
-2.926814889e-09
-2.791160596e-09
-2.642955134e-09
-2.488392773e-09
-2.322392607e-09
-2.156791804e-09
-1.989929206e-09
-1.828790609e-09
-1.668514709e-09
-1.496694228e-09
-1.286136605e-09
-2.6218591e-09
-4.299596888e-09
-7.273088487e-09
-1.052164826e-08
)


101
(
7.274413836e-22
1.355339591e-15
1.439401904e-14
6.527596921e-14
1.828285478e-13
3.843465199e-13
6.737281594e-13
1.067625319e-12
1.55635047e-12
2.127935929e-12
2.749392595e-12
3.389857845e-12
3.996495746e-12
4.508324005e-12
4.836883757e-12
4.849067995e-12
4.368185976e-12
3.172380245e-12
9.722639508e-13
-2.632217732e-12
-8.063524542e-12
-1.582350662e-11
-2.647183438e-11
-4.062266149e-11
-5.889793358e-11
-8.185976892e-11
-1.10091914e-10
-1.441030087e-10
-1.841928535e-10
-2.304451521e-10
-2.827974345e-10
-3.41181226e-10
-4.055873123e-10
-4.762041618e-10
-5.52524976e-10
-6.345794525e-10
-7.223867439e-10
-8.151929213e-10
-9.117842825e-10
-1.011524568e-09
-1.114327634e-09
-1.220648329e-09
-1.331866237e-09
-1.448537925e-09
-1.570270327e-09
-1.696483585e-09
-1.825527113e-09
-1.95642447e-09
-2.088543528e-09
-2.222707289e-09
-2.358969813e-09
-2.498158012e-09
-2.640683052e-09
-2.785388148e-09
-2.930540183e-09
-3.077135782e-09
-3.223942705e-09
-3.3710735e-09
-3.517633073e-09
-3.665178627e-09
-3.812309881e-09
-3.956354899e-09
-4.097761223e-09
-4.234835414e-09
-4.367719871e-09
-4.496693887e-09
-4.618993483e-09
-4.739313733e-09
-4.857262776e-09
-4.968992032e-09
-5.073549037e-09
-5.168132723e-09
-5.251219534e-09
-5.325146616e-09
-5.390910092e-09
-5.446595089e-09
-5.487957064e-09
-5.514650928e-09
-5.526320726e-09
-5.524688837e-09
-5.507337082e-09
-5.47048058e-09
-5.416791974e-09
-5.347794947e-09
-5.264052971e-09
-5.15109746e-09
-5.014658803e-09
-4.8749382e-09
-4.717777887e-09
-4.536679318e-09
-4.336552726e-09
-4.133413042e-09
-3.917858596e-09
-3.695156194e-09
-3.474092894e-09
-3.229729309e-09
-2.934013359e-09
-5.299139842e-09
-8.144758838e-09
-1.262834545e-08
-1.748841189e-08
)


101
(
7.274196727e-22
1.257596497e-15
1.381065231e-14
6.32594904e-14
1.776999131e-13
3.738133495e-13
6.54794177e-13
1.035004018e-12
1.505102009e-12
2.051388169e-12
2.639751213e-12
3.235937689e-12
3.7881734e-12
4.232192661e-12
4.480236063e-12
4.403224314e-12
3.82852357e-12
2.538000343e-12
2.471375197e-13
-3.438253664e-12
-8.937075003e-12
-1.677345245e-11
-2.751861459e-11
-4.179553363e-11
-6.030435166e-11
-8.36789415e-11
-1.126073172e-10
-1.477514069e-10
-1.896140235e-10
-2.384373932e-10
-2.942706619e-10
-3.571481103e-10
-4.271890387e-10
-5.047031287e-10
-5.89340528e-10
-6.810996354e-10
-7.80055335e-10
-8.8578248e-10
-9.973921478e-10
-1.11453602e-09
-1.236575375e-09
-1.363488123e-09
-1.496359457e-09
-1.636106277e-09
-1.782777406e-09
-1.936357812e-09
-2.095750531e-09
-2.259679974e-09
-2.427054692e-09
-2.598500008e-09
-2.773150369e-09
-2.95223703e-09
-3.137282893e-09
-3.327366983e-09
-3.521378065e-09
-3.717594478e-09
-3.918441583e-09
-4.120799076e-09
-4.326308465e-09
-4.533802397e-09
-4.744995008e-09
-4.955627599e-09
-5.166003058e-09
-5.375020791e-09
-5.582235466e-09
-5.787685995e-09
-5.987597316e-09
-6.185356601e-09
-6.38113657e-09
-6.575805026e-09
-6.766246778e-09
-6.950146848e-09
-7.12064767e-09
-7.280458153e-09
-7.431747383e-09
-7.575466956e-09
-7.707006707e-09
-7.822869765e-09
-7.920309949e-09
-8.00181214e-09
-8.063507486e-09
-8.1055741e-09
-8.122632759e-09
-8.115688346e-09
-8.096859979e-09
-8.046360675e-09
-7.948192242e-09
-7.837910054e-09
-7.708561303e-09
-7.548780909e-09
-7.349576566e-09
-7.142761533e-09
-6.909713317e-09
-6.66064735e-09
-6.400214235e-09
-6.113843716e-09
-5.777919186e-09
-9.488369817e-09
-1.377891771e-08
-1.978080863e-08
-2.615370146e-08
)


101
(
7.27438173e-22
1.162248338e-15
1.323894708e-14
6.128565825e-14
1.72708413e-13
3.636599387e-13
6.36786749e-13
1.004393621e-12
1.457450562e-12
1.981233219e-12
2.541634205e-12
3.10044583e-12
3.607955557e-12
3.99813873e-12
4.183485114e-12
4.039285898e-12
3.396528413e-12
2.042715423e-12
-2.980533382e-13
-4.014207602e-12
-9.500747257e-12
-1.730170968e-11
-2.800313737e-11
-4.225491e-11
-6.081304377e-11
-8.436556257e-11
-1.136942923e-10
-1.495974153e-10
-1.92788098e-10
-2.437175818e-10
-3.025978247e-10
-3.695715726e-10
-4.448634698e-10
-5.288633256e-10
-6.21398537e-10
-7.225497878e-10
-8.324676914e-10
-9.510230113e-10
-1.077708694e-09
-1.212342371e-09
-1.354175225e-09
-1.502837313e-09
-1.658980949e-09
-1.82343635e-09
-1.996551417e-09
-2.178958957e-09
-2.370373288e-09
-2.569618252e-09
-2.775533834e-09
-2.988110399e-09
-3.205786805e-09
-3.429829883e-09
-3.66270774e-09
-3.903526604e-09
-4.151905282e-09
-4.405833276e-09
-4.668044805e-09
-4.935580789e-09
-5.208606438e-09
-5.486677344e-09
-5.772766225e-09
-6.06227591e-09
-6.353742124e-09
-6.649278338e-09
-6.948460575e-09
-7.246108908e-09
-7.543688074e-09
-7.83853851e-09
-8.134658033e-09
-8.433798716e-09
-8.731922022e-09
-9.029392904e-09
-9.317809922e-09
-9.595706189e-09
-9.863602469e-09
-1.012351146e-08
-1.037947159e-08
-1.062176404e-08
-1.084387651e-08
-1.105090196e-08
-1.123330956e-08
-1.13961326e-08
-1.153272012e-08
-1.163781324e-08
-1.172155943e-08
-1.178291169e-08
-1.178973306e-08
-1.175697891e-08
-1.17053828e-08
-1.162791604e-08
-1.148177868e-08
-1.133061458e-08
-1.111539981e-08
-1.089830279e-08
-1.065059573e-08
-1.038424059e-08
-1.005711716e-08
-1.521138377e-08
-2.099193721e-08
-2.835349129e-08
-3.655697072e-08
)


101
(
7.2745667e-22
1.069298732e-15
1.267872573e-14
5.935293736e-14
1.678474108e-13
3.53864695e-13
6.196465611e-13
9.756728213e-13
1.413150518e-12
1.916899823e-12
2.45390091e-12
2.981900478e-12
3.453318515e-12
3.802004936e-12
3.940459987e-12
3.748806051e-12
3.062269254e-12
1.674556788e-12
-6.772462338e-13
-4.372104045e-12
-9.778578032e-12
-1.745171648e-11
-2.799455597e-11
-4.207996693e-11
-6.051885294e-11
-8.404750442e-11
-1.135021489e-10
-1.497771074e-10
-1.937853538e-10
-2.462553396e-10
-3.076597677e-10
-3.78243501e-10
-4.582288953e-10
-5.481462771e-10
-6.48014887e-10
-7.580725723e-10
-8.785922379e-10
-1.009710135e-09
-1.151299122e-09
-1.303190488e-09
-1.464965192e-09
-1.635921085e-09
-1.816366366e-09
-2.006939766e-09
-2.20818132e-09
-2.420932213e-09
-2.645501644e-09
-2.88166799e-09
-3.128107214e-09
-3.384212257e-09
-3.649250608e-09
-3.923459658e-09
-4.208611481e-09
-4.50526777e-09
-4.813839651e-09
-5.132594191e-09
-5.462542113e-09
-5.803444325e-09
-6.152464695e-09
-6.510850281e-09
-6.880122177e-09
-7.260111247e-09
-7.646082127e-09
-8.04233742e-09
-8.446959803e-09
-8.854255198e-09
-9.266946714e-09
-9.680280958e-09
-1.01007374e-08
-1.052465474e-08
-1.095256145e-08
-1.138615789e-08
-1.181846141e-08
-1.224725939e-08
-1.266699468e-08
-1.30752168e-08
-1.348332578e-08
-1.388244492e-08
-1.427389862e-08
-1.464522178e-08
-1.499256366e-08
-1.531989011e-08
-1.562050675e-08
-1.589146115e-08
-1.613065563e-08
-1.634589686e-08
-1.651689683e-08
-1.662528691e-08
-1.670100457e-08
-1.6760226e-08
-1.672784909e-08
-1.669520506e-08
-1.656707113e-08
-1.643220863e-08
-1.627413701e-08
-1.608761792e-08
-1.582273004e-08
-2.236980781e-08
-2.948847845e-08
-3.782363753e-08
-4.626086985e-08
)


101
(
7.274743555e-22
9.787498548e-16
1.212982256e-14
5.745986975e-14
1.631103143e-13
3.444064467e-13
6.033159746e-13
9.487273433e-13
1.371978176e-12
1.857874284e-12
2.37538203e-12
2.878987138e-12
3.322070929e-12
3.639882292e-12
3.745223773e-12
3.523358007e-12
2.816385951e-12
1.424814181e-12
-8.989474045e-13
-4.51145895e-12
-9.779361531e-12
-1.725029172e-11
-2.755066443e-11
-4.134412408e-11
-5.95021839e-11
-8.282384282e-11
-1.121529702e-10
-1.484425844e-10
-1.927817711e-10
-2.461876191e-10
-3.094522199e-10
-3.830075725e-10
-4.670630503e-10
-5.622317699e-10
-6.687534644e-10
-7.870889705e-10
-9.176600287e-10
-1.060809502e-09
-1.216773338e-09
-1.385536541e-09
-1.566814363e-09
-1.759904104e-09
-1.965086538e-09
-2.182657626e-09
-2.41318399e-09
-2.657599391e-09
-2.916655221e-09
-3.191182347e-09
-3.479376565e-09
-3.781042924e-09
-4.096608647e-09
-4.425153591e-09
-4.766705805e-09
-5.124105503e-09
-5.49722423e-09
-5.88472445e-09
-6.288756334e-09
-6.709259199e-09
-7.142872725e-09
-7.589736094e-09
-8.051642291e-09
-8.531216531e-09
-9.025155125e-09
-9.535074106e-09
-1.005589462e-08
-1.05912004e-08
-1.113486742e-08
-1.168631064e-08
-1.224774875e-08
-1.28170919e-08
-1.33987523e-08
-1.398969436e-08
-1.458879697e-08
-1.51939332e-08
-1.579711906e-08
-1.638947607e-08
-1.697273474e-08
-1.756263264e-08
-1.814999216e-08
-1.872277691e-08
-1.928123451e-08
-1.981465106e-08
-2.031334679e-08
-2.079400642e-08
-2.123862989e-08
-2.165407185e-08
-2.202746013e-08
-2.233956006e-08
-2.258707722e-08
-2.282279208e-08
-2.297100004e-08
-2.309240411e-08
-2.313888224e-08
-2.313335062e-08
-2.31265838e-08
-2.308982853e-08
-2.300316439e-08
-3.069180068e-08
-3.881430761e-08
-4.772698968e-08
-5.633688653e-08
)


101
(
7.274925827e-22
8.906094589e-16
1.159215733e-14
5.56052919e-14
1.584912645e-13
3.352643696e-13
5.877401918e-13
9.234497136e-13
1.333785235e-12
1.803773242e-12
2.305078859e-12
2.79031594e-12
3.212204337e-12
3.508492335e-12
3.593061108e-12
3.356143492e-12
2.649710926e-12
1.281878244e-12
-9.802721329e-13
-4.453238096e-12
-9.533748486e-12
-1.673944658e-11
-2.671961081e-11
-4.010555886e-11
-5.78127692e-11
-8.072676988e-11
-1.0969206e-10
-1.456900564e-10
-1.899475892e-10
-2.437219259e-10
-3.08079111e-10
-3.837486402e-10
-4.711202115e-10
-5.707779417e-10
-6.831757918e-10
-8.090561657e-10
-9.489997373e-10
-1.103441949e-09
-1.272857846e-09
-1.457572406e-09
-1.657431886e-09
-1.872159652e-09
-2.101809902e-09
-2.346443914e-09
-2.606623806e-09
-2.883549837e-09
-3.178272616e-09
-3.491906476e-09
-3.82313554e-09
-4.172126773e-09
-4.539651423e-09
-4.925106113e-09
-5.327201252e-09
-5.749214642e-09
-6.191190367e-09
-6.651508131e-09
-7.134248645e-09
-7.638742451e-09
-8.163663457e-09
-8.706827004e-09
-9.271018096e-09
-9.857867564e-09
-1.046973985e-08
-1.11030563e-08
-1.175289549e-08
-1.242858595e-08
-1.311738967e-08
-1.382159908e-08
-1.454007343e-08
-1.527702278e-08
-1.603217751e-08
-1.679917299e-08
-1.758477562e-08
-1.838339594e-08
-1.918950752e-08
-1.999704027e-08
-2.079523708e-08
-2.159577306e-08
-2.239685205e-08
-2.320091293e-08
-2.400216008e-08
-2.476862225e-08
-2.550650389e-08
-2.622284576e-08
-2.690158588e-08
-2.755159033e-08
-2.815341737e-08
-2.870550234e-08
-2.916685084e-08
-2.960749762e-08
-2.99904448e-08
-3.028967628e-08
-3.054964577e-08
-3.072908615e-08
-3.089511823e-08
-3.107177426e-08
-3.123905514e-08
-3.968242326e-08
-4.83872583e-08
-5.764661759e-08
-6.71544966e-08
)


101
(
7.27511352e-22
8.048860494e-16
1.106558418e-14
5.378800339e-14
1.539844569e-13
3.264180993e-13
5.728649376e-13
8.9972807e-13
1.298508043e-12
1.754486798e-12
2.242103133e-12
2.714330905e-12
3.121563551e-12
3.405137438e-12
3.481231782e-12
3.244721512e-12
2.558571813e-12
1.238806702e-12
-9.364469729e-13
-4.240139706e-12
-9.094638338e-12
-1.598214811e-11
-2.555015018e-11
-3.842126255e-11
-5.550778073e-11