/*--------------------------------*- C++ -*----------------------------------*\
| =========                 |                                                 |
| \\      /  F ield         | OpenFOAM: The Open Source CFD Toolbox           |
|  \\    /   O peration     | Version:  2.3.1                                 |
|   \\  /    A nd           | Web:      www.OpenFOAM.org                      |
|    \\/     M anipulation  |                                                 |
\*---------------------------------------------------------------------------*/
FoamFile
{
    version     2.0;
    format      ascii;
    class       dictionary;
    location    "constant";
    object      DPSI49;
}
// * * * * * * * * * * * * * * * * * * * * * * * * * * * * * * * * * * * * * //

DPSI49_table
101
(

101
(
3.123269573e-16
2.256458752e-11
1.445672261e-10
4.482895072e-10
9.226954951e-10
1.505046541e-09
2.142280291e-09
2.824117419e-09
3.485032284e-09
4.110363572e-09
4.676621068e-09
5.167513128e-09
5.56968513e-09
5.870081794e-09
6.063785869e-09
6.149866698e-09
6.122019662e-09
5.970798462e-09
5.759679605e-09
5.380167503e-09
4.973194834e-09
4.501290511e-09
3.899568949e-09
3.272234928e-09
2.623024539e-09
1.947436425e-09
1.258414554e-09
5.721319287e-10
-1.199581411e-10
-7.898034072e-10
-1.440796394e-09
-2.057995872e-09
-2.613623115e-09
-3.267273375e-09
-3.815033571e-09
-4.341530959e-09
-4.860619793e-09
-5.344157573e-09
-5.765417647e-09
-6.209620465e-09
-6.631419582e-09
-6.999462978e-09
-7.371457437e-09
-7.721494253e-09
-8.040514445e-09
-8.3544109e-09
-8.644708703e-09
-8.926076997e-09
-9.187186075e-09
-9.436834837e-09
-9.667642784e-09
-9.885118512e-09
-1.008882194e-08
-1.027881479e-08
-1.045552452e-08
-1.061976339e-08
-1.077390471e-08
-1.09141669e-08
-1.104446133e-08
-1.116424283e-08
-1.127426611e-08
-1.137525215e-08
-1.146765924e-08
-1.155182967e-08
-1.162905011e-08
-1.169904143e-08
-1.176331171e-08
-1.182228279e-08
-1.187532552e-08
-1.192526743e-08
-1.1971363e-08
-1.201444033e-08
-1.205336898e-08
-1.209348815e-08
-1.214591843e-08
-1.217773732e-08
-1.21900291e-08
-1.221435148e-08
-1.224688374e-08
-1.228335012e-08
-1.232220836e-08
-1.236165703e-08
-1.240784421e-08
-1.24661802e-08
-1.249202608e-08
-1.252515109e-08
-1.257265257e-08
-1.262581147e-08
-1.268405277e-08
-1.276231747e-08
-1.279099091e-08
-1.284137075e-08
-1.291110163e-08
-1.295553508e-08
-1.301366398e-08
-1.304342049e-08
-1.309255364e-08
-1.427248439e-08
-1.545187545e-08
-1.660091033e-08
-1.774517259e-08
)


101
(
3.12334786e-16
2.226060765e-11
1.434750801e-10
4.459805168e-10
9.196521063e-10
1.502829883e-09
2.142799103e-09
2.828846836e-09
3.497211604e-09
4.131959341e-09
4.709995338e-09
5.214750162e-09
5.632606391e-09
5.950375927e-09
6.162332004e-09
6.266967151e-09
6.258040452e-09
6.126011822e-09
5.92746703e-09
5.5693594e-09
5.168615675e-09
4.704003995e-09
4.115473185e-09
3.487304135e-09
2.832977196e-09
2.15048916e-09
1.45072791e-09
7.491068582e-10
4.062329944e-11
-6.514810926e-10
-1.326276358e-09
-1.970677013e-09
-2.559101794e-09
-3.220483357e-09
-3.808055876e-09
-4.366600854e-09
-4.913072855e-09
-5.428807691e-09
-5.88914022e-09
-6.357723916e-09
-6.809760822e-09
-7.21597086e-09
-7.616624767e-09
-7.998395464e-09
-8.35182278e-09
-8.695444412e-09
-9.017915861e-09
-9.329084033e-09
-9.621571386e-09
-9.90111483e-09
-1.016271475e-08
-1.040985116e-08
-1.064267217e-08
-1.086120702e-08
-1.106584829e-08
-1.125733857e-08
-1.143795669e-08
-1.160442573e-08
-1.17599187e-08
-1.190402173e-08
-1.203762682e-08
-1.216125006e-08
-1.227543452e-08
-1.238053411e-08
-1.247757866e-08
-1.25667132e-08
-1.264907415e-08
-1.272521619e-08
-1.279487946e-08
-1.286008142e-08
-1.292084558e-08
-1.297782282e-08
-1.303031132e-08
-1.308214585e-08
-1.314256048e-08
-1.318932799e-08
-1.321815124e-08
-1.325040567e-08
-1.328850029e-08
-1.333141228e-08
-1.337718581e-08
-1.342366085e-08
-1.347491356e-08
-1.353679608e-08
-1.357784637e-08
-1.361655855e-08
-1.3664397e-08
-1.372060668e-08
-1.378109724e-08
-1.385668579e-08
-1.39037532e-08
-1.395362084e-08
-1.401997607e-08
-1.407548452e-08
-1.412966281e-08
-1.417415105e-08
-1.423121612e-08
-1.538649786e-08
-1.653709094e-08
-1.764676149e-08
-1.874936175e-08
)


101
(
3.123426154e-16
2.163608217e-11
1.410765228e-10
4.40360263e-10
9.1075842e-10
1.492528327e-09
2.133577382e-09
2.822145818e-09
3.498152073e-09
4.143389847e-09
4.73570677e-09
5.258318789e-09
5.697492486e-09
6.04005544e-09
6.279304117e-09
6.412904371e-09
6.435082547e-09
6.336690364e-09
6.161423134e-09
5.84469579e-09
5.461487528e-09
5.01589917e-09
4.460760719e-09
3.845074638e-09
3.195053338e-09
2.514778652e-09
1.81222091e-09
1.100699016e-09
3.812087791e-10
-3.311816999e-10
-1.0294571e-09
-1.703258252e-09
-2.332171245e-09
-2.988811271e-09
-3.6192996e-09
-4.216492438e-09
-4.792421421e-09
-5.34438872e-09
-5.854139324e-09
-6.348628776e-09
-6.831624828e-09
-7.283877908e-09
-7.717241541e-09
-8.134554678e-09
-8.529114084e-09
-8.906952057e-09
-9.266954386e-09
-9.612038644e-09
-9.940940193e-09
-1.025492778e-08
-1.055279285e-08
-1.083501578e-08
-1.110231307e-08
-1.135486911e-08
-1.159297863e-08
-1.181712999e-08
-1.202896642e-08
-1.222721045e-08
-1.24129306e-08
-1.258641325e-08
-1.274832418e-08
-1.289911667e-08
-1.30393531e-08
-1.316942862e-08
-1.329006565e-08
-1.340178719e-08
-1.350523289e-08
-1.360113513e-08
-1.368967276e-08
-1.377174469e-08
-1.384829763e-08
-1.391973277e-08
-1.398609661e-08
-1.404891708e-08
-1.411345005e-08
-1.417466219e-08
-1.422401366e-08
-1.426538078e-08
-1.430548723e-08
-1.434920309e-08
-1.439663966e-08
-1.44454776e-08
-1.449580494e-08
-1.455204024e-08
-1.460628432e-08
-1.46513914e-08
-1.469312518e-08
-1.474300984e-08
-1.479872544e-08
-1.486157368e-08
-1.49229939e-08
-1.49739844e-08
-1.502579531e-08
-1.508683377e-08
-1.513724363e-08
-1.519459787e-08
-1.526026132e-08
-1.638136521e-08
-1.749453333e-08
-1.855873338e-08
-1.961386812e-08
)


101
(
3.123504447e-16
2.101206067e-11
1.386679891e-10
4.346960897e-10
9.017384271e-10
1.481953644e-09
2.123901066e-09
2.814819305e-09
3.498070122e-09
4.153534651e-09
4.759786333e-09
5.29992556e-09
5.760114854e-09
6.127190938e-09
6.393627908e-09
6.556275622e-09
6.609658082e-09
6.545050955e-09
6.395636489e-09
6.117635563e-09
5.757634427e-09
5.332041699e-09
4.807871159e-09
4.210779731e-09
3.569080905e-09
2.893047967e-09
2.190317499e-09
1.472304077e-09
7.435371546e-10
1.485885104e-11
-7.046858666e-10
-1.405241578e-09
-2.070150971e-09
-2.737073873e-09
-3.394406022e-09
-4.026294224e-09
-4.636031422e-09
-5.222781138e-09
-5.775641505e-09
-6.304336442e-09
-6.817755253e-09
-7.308408612e-09
-7.777615407e-09
-8.229425619e-09
-8.661648306e-09
-9.075439458e-09
-9.471497489e-09
-9.851282571e-09
-1.021515081e-08
-1.056358462e-08
-1.08963642e-08
-1.1213421e-08
-1.151509194e-08
-1.180163083e-08
-1.207329384e-08
-1.233045021e-08
-1.257409301e-08
-1.280391962e-08
-1.302050201e-08
-1.322405818e-08
-1.341511099e-08
-1.359398037e-08
-1.376121819e-08
-1.391727948e-08
-1.40628222e-08
-1.419834417e-08
-1.432427016e-08
-1.444123933e-08
-1.454975554e-08
-1.465022935e-08
-1.474387941e-08
-1.483091658e-08
-1.491182787e-08
-1.498718884e-08
-1.505997395e-08
-1.513064095e-08
-1.519482509e-08
-1.524998827e-08
-1.529737552e-08
-1.534284056e-08
-1.539075771e-08
-1.544097009e-08
-1.549146649e-08
-1.554341436e-08
-1.559728261e-08
-1.564900192e-08
-1.569227707e-08
-1.573461865e-08
-1.578391477e-08
-1.58395839e-08
-1.589503139e-08
-1.595155167e-08
-1.599901669e-08
-1.605301713e-08
-1.610835625e-08
-1.616451249e-08
-1.623159318e-08
-1.732846023e-08
-1.841688343e-08
-1.945898899e-08
-2.049343571e-08
)


101
(
3.12358303e-16
2.038869004e-11
1.3624976e-10
4.28988304e-10
8.925920052e-10
1.471105316e-09
2.113768014e-09
2.806862502e-09
3.49696784e-09
4.162378798e-09
4.782217161e-09
5.33954141e-09
5.820428508e-09
6.211719898e-09
6.505201023e-09
6.696934439e-09
6.78159828e-09
6.750890446e-09
6.629477285e-09
6.38852412e-09
6.055760232e-09
5.652090453e-09
5.15733748e-09
4.582903595e-09
3.953934083e-09
3.284907968e-09
2.584651229e-09
1.863425252e-09
1.127744321e-09
3.863604953e-10
-3.514042474e-10
-1.075907097e-09
-1.772859151e-09
-2.458348339e-09
-3.137225604e-09
-3.797623797e-09
-4.439940417e-09
-5.060430609e-09
-5.65221872e-09
-6.217655289e-09
-6.763338598e-09
-7.288690386e-09
-7.792970755e-09
-8.278765848e-09
-8.746299815e-09
-9.195567425e-09
-9.626957587e-09
-1.004126593e-08
-1.04392122e-08
-1.082141487e-08
-1.118805236e-08
-1.153912262e-08
-1.187464795e-08
-1.219467999e-08
-1.249944544e-08
-1.278940078e-08
-1.306504699e-08
-1.332639876e-08
-1.357388926e-08
-1.380778504e-08
-1.402852985e-08
-1.423611916e-08
-1.443119406e-08
-1.461406039e-08
-1.478532686e-08
-1.494551421e-08
-1.50950601e-08
-1.523436839e-08
-1.536415241e-08
-1.548438363e-08
-1.559648725e-08
-1.5700651e-08
-1.579748157e-08
-1.588722079e-08
-1.59714094e-08
-1.60516162e-08
-1.612694063e-08
-1.619526877e-08
-1.625407573e-08
-1.630533958e-08
-1.635444396e-08
-1.640493436e-08
-1.645613688e-08
-1.650650614e-08
-1.655674475e-08
-1.660756134e-08
-1.665381149e-08
-1.669314831e-08
-1.673337061e-08
-1.678117949e-08
-1.682906521e-08
-1.688013009e-08
-1.692802389e-08
-1.697496923e-08
-1.702779449e-08
-1.708202516e-08
-1.714444552e-08
-1.822659622e-08
-1.929878652e-08
-2.031120689e-08
-2.13143558e-08
)


101
(
3.123661038e-16
1.976613359e-11
1.338220619e-10
4.232370997e-10
8.833190736e-10
1.459982394e-09
2.103175213e-09
2.798269439e-09
3.494845538e-09
4.169906813e-09
4.802980104e-09
5.377135404e-09
5.878386154e-09
6.293576919e-09
6.613920447e-09
6.834732092e-09
6.950727066e-09
6.953998556e-09
6.862363967e-09
6.6574974e-09
6.354860853e-09
5.975460061e-09
5.509433604e-09
4.960382383e-09
4.348328524e-09
3.689606782e-09
2.994669048e-09
2.273415964e-09
1.533540416e-09
7.828278642e-10
3.02484041e-11
-7.149450754e-10
-1.440113691e-09
-2.14806752e-09
-2.847750693e-09
-3.533743911e-09
-4.203893417e-09
-4.8556997e-09
-5.483277777e-09
-6.08489382e-09
-6.664161138e-09
-7.222924065e-09
-7.760852559e-09
-8.279703539e-09
-8.78071488e-09
-9.263976866e-09
-9.72955696e-09
-1.01775396e-08
-1.060853249e-08
-1.102334247e-08
-1.142239569e-08
-1.180600096e-08
-1.217409193e-08
-1.252652078e-08
-1.286320408e-08
-1.318468006e-08
-1.349149748e-08
-1.378353e-08
-1.406122571e-08
-1.432474553e-08
-1.457449891e-08
-1.481040864e-08
-1.503304475e-08
-1.524276486e-08
-1.543990706e-08
-1.562487695e-08
-1.579835006e-08
-1.596066443e-08
-1.611247631e-08
-1.625365609e-08
-1.638517001e-08
-1.65075109e-08
-1.662141159e-08
-1.672719881e-08
-1.682555655e-08
-1.691763009e-08
-1.700372813e-08
-1.708421035e-08
-1.715613073e-08
-1.721800484e-08
-1.727227367e-08
-1.732402677e-08
-1.737632496e-08
-1.742733482e-08
-1.747605195e-08
-1.752406751e-08
-1.756951685e-08
-1.760932263e-08
-1.764315905e-08
-1.768243076e-08
-1.772282332e-08
-1.776589435e-08
-1.780845723e-08
-1.784888784e-08
-1.789583787e-08
-1.794996623e-08
-1.801155466e-08
-1.907139325e-08
-2.011826347e-08
-2.109096574e-08
-2.205347382e-08
)


101
(
3.123739322e-16
1.914451658e-11
1.313852157e-10
4.174429332e-10
8.739200692e-10
1.448584741e-09
2.092120806e-09
2.78903567e-09
3.491705121e-09
4.176106534e-09
4.822058397e-09
5.412679555e-09
5.933943674e-09
6.372698824e-09
6.719686567e-09
6.969523447e-09
7.116864474e-09
7.154159397e-09
7.093751102e-09
6.924523471e-09
6.654123867e-09
6.301411748e-09
5.864158009e-09
5.342389628e-09
4.750947526e-09
4.106070855e-09
3.419543616e-09
2.701441299e-09
1.960287711e-09
1.203528432e-09
4.396307741e-10
-3.226000456e-10
-1.072026583e-09
-1.803380939e-09
-2.524167014e-09
-3.232946075e-09
-3.928111416e-09
-4.607925495e-09
-5.267603223e-09
-5.90355602e-09
-6.51644658e-09
-7.1081179e-09
-7.678456672e-09
-8.229048345e-09
-8.761605273e-09
-9.27662419e-09
-9.774343541e-09
-1.025435937e-08
-1.071679702e-08
-1.116229239e-08
-1.159142864e-08
-1.200493877e-08
-1.24027974e-08
-1.278485357e-08
-1.315083764e-08
-1.350104294e-08
-1.383593694e-08
-1.415572145e-08
-1.446078722e-08
-1.475129608e-08
-1.502748675e-08
-1.528931275e-08
-1.55371567e-08
-1.577143103e-08
-1.599256149e-08
-1.620065778e-08
-1.639663137e-08
-1.658056771e-08
-1.675335803e-08
-1.691504831e-08
-1.706591493e-08
-1.720671081e-08
-1.733810544e-08
-1.746079251e-08
-1.757501102e-08
-1.768155681e-08
-1.778044371e-08
-1.787339147e-08
-1.795880733e-08
-1.803487996e-08
-1.810058649e-08
-1.815889246e-08
-1.821472893e-08
-1.826944692e-08
-1.832064816e-08
-1.836955417e-08
-1.84152994e-08
-1.845678762e-08
-1.848987877e-08
-1.852314293e-08
-1.855726486e-08
-1.859510752e-08
-1.863199709e-08
-1.866654306e-08
-1.870827107e-08
-1.876117362e-08
-1.88226846e-08
-1.984414807e-08
-2.084865057e-08
-2.177145193e-08
-2.268544093e-08
)


101
(
3.123817612e-16
1.852400425e-11
1.289395327e-10
4.116061396e-10
8.643951515e-10
1.436911713e-09
2.080602125e-09
2.779155676e-09
3.487546953e-09
4.180965369e-09
4.839433879e-09
5.446145043e-09
5.987056613e-09
6.449022438e-09
6.822400972e-09
7.101165078e-09
7.279830682e-09
7.351155349e-09
7.323137763e-09
7.189442065e-09
6.952867974e-09
6.62917212e-09
6.221294371e-09
5.728262895e-09
5.16058386e-09
4.533104924e-09
3.858285029e-09
3.146586726e-09
2.407217397e-09
1.647666926e-09
8.760177045e-10
1.005408246e-10
-6.689490801e-10
-1.422590017e-09
-2.16466185e-09
-2.894757e-09
-3.612452629e-09
-4.317015312e-09
-5.004829138e-09
-5.671982291e-09
-6.316999358e-09
-6.940457493e-09
-7.541832717e-09
-8.122482262e-09
-8.684242885e-09
-9.227977172e-09
-9.754441898e-09
-1.026318267e-08
-1.075378803e-08
-1.12265215e-08
-1.168207821e-08
-1.212114227e-08
-1.25439616e-08
-1.295089017e-08
-1.334129647e-08
-1.371508959e-08
-1.407293446e-08
-1.441521476e-08
-1.474213586e-08
-1.505424816e-08
-1.535182238e-08
-1.563471221e-08
-1.590354643e-08
-1.615803427e-08
-1.639897671e-08
-1.662618706e-08
-1.684067969e-08
-1.704300224e-08
-1.723396368e-08
-1.741423641e-08
-1.758323334e-08
-1.77417866e-08
-1.788960149e-08
-1.802839907e-08
-1.815889184e-08
-1.828120833e-08
-1.839501974e-08
-1.85020315e-08
-1.860177513e-08
-1.869393746e-08
-1.877573555e-08
-1.884764686e-08
-1.89123134e-08
-1.897509231e-08
-1.903379e-08
-1.908973806e-08
-1.914075086e-08
-1.918836273e-08
-1.922746222e-08
-1.926185657e-08
-1.929497507e-08
-1.933264136e-08
-1.936802471e-08
-1.940105203e-08
-1.944098002e-08
-1.949471313e-08
-1.956557029e-08
-2.053480267e-08
-2.148342578e-08
-2.233563027e-08
-2.317418498e-08
)


101
(
3.123896484e-16
1.790479184e-11
1.264853521e-10
4.057271867e-10
8.547447381e-10
1.424963073e-09
2.068616969e-09
2.768624415e-09
3.482371876e-09
4.18447262e-09
4.855089748e-09
5.477504847e-09
6.037682566e-09
6.522486968e-09
6.92196962e-09
7.229518331e-09
7.439450207e-09
7.544773134e-09
7.550067482e-09
7.452018565e-09
7.250500411e-09
6.95796368e-09
6.580476039e-09
6.117452092e-09
5.576197914e-09
4.969530968e-09
4.309837803e-09
3.607892373e-09
2.873492569e-09
2.114396098e-09
1.338511424e-09
5.536234798e-10
-2.316197282e-10
-1.004977639e-09
-1.767658645e-09
-2.518179431e-09
-3.256462356e-09
-3.982680635e-09
-4.694494859e-09
-5.388624574e-09
-6.0626122e-09
-6.715570013e-09
-7.345781834e-09
-7.954016596e-09
-8.541889989e-09
-9.1104136e-09
-9.660947123e-09
-1.019326599e-08
-1.070702767e-08
-1.120207768e-08
-1.167883305e-08
-1.213761299e-08
-1.257926559e-08
-1.30046109e-08
-1.341311675e-08
-1.380476052e-08
-1.417950758e-08
-1.453862814e-08
-1.488146267e-08
-1.520894295e-08
-1.552200015e-08
-1.582024626e-08
-1.610477834e-08
-1.637493754e-08
-1.663140912e-08
-1.687407425e-08
-1.710336947e-08
-1.732092802e-08
-1.752708667e-08
-1.772274686e-08
-1.790758216e-08
-1.808178824e-08
-1.82456128e-08
-1.839988146e-08
-1.854581995e-08
-1.868352255e-08
-1.881331546e-08
-1.893578512e-08
-1.905032868e-08
-1.915880798e-08
-1.925891673e-08
-1.934832758e-08
-1.942805186e-08
-1.950229104e-08
-1.957331347e-08
-1.964138836e-08
-1.970261112e-08
-1.976127876e-08
-1.981208537e-08
-1.985595269e-08
-1.989543578e-08
-1.993865247e-08
-1.997873079e-08
-2.001671852e-08
-2.006042398e-08
-2.012442393e-08
-2.021283885e-08
-2.111657051e-08
-2.200019303e-08
-2.27868038e-08
-2.355327195e-08
)


101
(
3.123974773e-16
1.728702238e-11
1.240229883e-10
3.998063633e-10
8.449688298e-10
1.412737851e-09
2.056162035e-09
2.757435149e-09
3.476178479e-09
4.186616377e-09
4.86900693e-09
5.506729263e-09
6.085776165e-09
6.593027701e-09
7.018295602e-09
7.354442274e-09
7.59554287e-09
7.734795415e-09
7.77410728e-09
7.711948228e-09
7.546469256e-09
7.287014435e-09
6.941213647e-09
6.509421438e-09
5.996853948e-09
5.414177386e-09
4.77306334e-09
4.084312642e-09
3.35817197e-09
2.602800967e-09
1.826147031e-09
1.03563616e-09
2.389568685e-10
-5.5058748e-10
-1.331976181e-09
-2.101714894e-09
-2.858873317e-09
-3.603895793e-09
-4.335614263e-09
-5.051801164e-09
-5.750100809e-09
-6.428768501e-09
-7.084341513e-09
-7.716683824e-09
-8.32681937e-09
-8.915604631e-09
-9.485076322e-09
-1.003552252e-08
-1.056714865e-08
-1.10792809e-08
-1.157193829e-08
-1.20451752e-08
-1.250017058e-08
-1.293797549e-08
-1.335968626e-08
-1.37643636e-08
-1.415114805e-08
-1.452229336e-08
-1.487686412e-08
-1.521560565e-08
-1.554011387e-08
-1.585030811e-08
-1.614640073e-08
-1.642904021e-08
-1.669877259e-08
-1.695553611e-08
-1.719801715e-08
-1.742860779e-08
-1.764742364e-08
-1.785587544e-08
-1.80547222e-08
-1.824333117e-08
-1.842220443e-08
-1.859144437e-08
-1.875188183e-08
-1.890488837e-08
-1.905040871e-08
-1.918832373e-08
-1.931819664e-08
-1.944197161e-08
-1.955972088e-08
-1.966743262e-08
-1.97656946e-08
-1.985443107e-08
-1.993989378e-08
-2.002284984e-08
-2.00984505e-08
-2.017048815e-08
-2.023641167e-08
-2.029383778e-08
-2.034515902e-08
-2.039834816e-08
-2.044908204e-08
-2.049713471e-08
-2.054944424e-08
-2.063186262e-08
-2.074555145e-08
-2.157946466e-08
-2.23984251e-08
-2.314233734e-08
-2.388653792e-08
)


101
(
3.124029935e-16
1.667088491e-11
1.215528033e-10
3.938440616e-10
8.35067614e-10
1.400235339e-09
2.043234362e-09
2.745581501e-09
3.468965441e-09
4.187386226e-09
4.881167523e-09
5.533790274e-09
6.131294116e-09
6.660582248e-09
7.111285246e-09
7.475800699e-09
7.747931909e-09
7.92100621e-09
7.994862275e-09
7.968882319e-09
7.840248019e-09
7.615577598e-09
7.302923107e-09
6.903619992e-09
6.421704973e-09
5.865891247e-09
5.246722405e-09
4.574669044e-09
3.86020489e-09
3.111916327e-09
2.337983563e-09
1.545648809e-09
7.418531909e-10
-5.964844584e-11
-8.565785472e-10
-1.643423507e-09
-2.417611603e-09
-3.178897953e-09
-3.926707275e-09
-4.65990283e-09
-5.376897746e-09
-6.076016064e-09
-6.752527926e-09
-7.404969615e-09
-8.033506639e-09
-8.638547366e-09
-9.222708098e-09
-9.786989928e-09
-1.033210511e-08
-1.08571741e-08
-1.136224027e-08
-1.184711888e-08
-1.231258089e-08
-1.27601413e-08
-1.319198539e-08
-1.360599606e-08
-1.400316095e-08
-1.438394651e-08
-1.474904144e-08
-1.509768176e-08
-1.54317736e-08
-1.575253878e-08
-1.605934016e-08
-1.635348717e-08
-1.663509968e-08
-1.690472549e-08
-1.716107892e-08
-1.740413136e-08
-1.763507348e-08
-1.785582055e-08
-1.806763858e-08
-1.827018552e-08
-1.846283192e-08
-1.864635491e-08
-1.882119966e-08
-1.898909154e-08
-1.914919828e-08
-1.930184644e-08
-1.944793676e-08
-1.958644808e-08
-1.971891905e-08
-1.984435573e-08
-1.996071357e-08
-2.006637284e-08
-2.016655774e-08
-2.02652004e-08
-2.035723406e-08
-2.044263484e-08
-2.05236132e-08
-2.059762034e-08
-2.066291822e-08
-2.072873027e-08
-2.079331954e-08
-2.085418179e-08
-2.091750682e-08
-2.102018749e-08
-2.116597639e-08
-2.19447973e-08
-2.271269346e-08
-2.342169543e-08
-2.413602801e-08
)


101
(
3.124030984e-16
1.60566111e-11
1.190752941e-10
3.878410942e-10
8.250421491e-10
1.387456253e-09
2.029832986e-09
2.733059657e-09
3.460734276e-09
4.186776162e-09
4.891558522e-09
5.558665841e-09
6.174200365e-09
6.725096659e-09
7.200855258e-09
7.593469273e-09
7.896452979e-09
8.103205136e-09
8.211974044e-09
8.222472149e-09
8.131343592e-09
7.942914725e-09
7.66491357e-09
7.299408532e-09
6.849876535e-09
6.323451304e-09
5.729408308e-09
5.077565893e-09
4.378339183e-09
3.640631118e-09
2.872989406e-09
2.082744483e-09
1.276311794e-09
4.675302362e-10
-3.407622666e-10
-1.141509575e-09
-1.930327425e-09
-2.705550401e-09
-3.466197411e-09
-4.211730144e-09
-4.941903316e-09
-5.655926582e-09
-6.34876754e-09
-7.017667433e-09
-7.661791505e-09
-8.280715761e-09
-8.877017111e-09
-9.452321057e-09
-1.00081523e-08
-1.054386961e-08
-1.105979031e-08
-1.155551767e-08
-1.203121795e-08
-1.248833162e-08
-1.292870992e-08
-1.335204779e-08
-1.375939801e-08
-1.415070893e-08
-1.452659558e-08
-1.488617142e-08
-1.523040503e-08
-1.556149093e-08
-1.587936381e-08
-1.618505579e-08
-1.647868924e-08
-1.675993178e-08
-1.703038131e-08
-1.728741314e-08
-1.753174349e-08
-1.776528147e-08
-1.798940756e-08
-1.820476919e-08
-1.841175652e-08
-1.860990928e-08
-1.879915356e-08
-1.898030755e-08
-1.91540783e-08
-1.93214851e-08
-1.948210013e-08
-1.963540528e-08
-1.978198341e-08
-1.992297823e-08
-2.005603418e-08
-2.017931467e-08
-2.029396571e-08
-2.04063294e-08
-2.05149555e-08
-2.061479272e-08
-2.070923284e-08
-2.080110398e-08
-2.088133233e-08
-2.09599532e-08
-2.103843931e-08
-2.111427223e-08
-2.119066047e-08
-2.131278722e-08
-2.148792646e-08
-2.222799298e-08
-2.295988801e-08
-2.364025486e-08
-2.431821934e-08
)


101
(
3.124054006e-16
1.544438093e-11
1.165908594e-10
3.817978684e-10
8.148926092e-10
1.374399804e-09
2.015954703e-09
2.719862621e-09
3.451482199e-09
4.184776065e-09
4.900161837e-09
5.581328189e-09
6.214453231e-09
6.786510628e-09
7.286916413e-09
7.707317727e-09
8.040936857e-09
8.281191036e-09
8.425105887e-09
8.472350641e-09
8.419266391e-09
8.268309138e-09
8.026414888e-09
7.696060472e-09
7.280504608e-09
6.785709847e-09
6.219735248e-09
5.591550415e-09
4.911224526e-09
4.187766371e-09
3.430108417e-09
2.645915444e-09
1.841405311e-09
1.030302955e-09
2.155001893e-10
-5.950485341e-10
-1.395436462e-09
-2.182261452e-09
-2.953213477e-09
-3.70755792e-09
-4.446451326e-09
-5.170568018e-09
-5.875527655e-09
-6.55803017e-09
-7.216197553e-09
-7.84836299e-09
-8.456255217e-09
-9.041719941e-09
-9.60723964e-09
-1.015273167e-08
-1.06794275e-08
-1.118655677e-08
-1.167342415e-08
-1.214124145e-08
-1.259149805e-08
-1.302627469e-08
-1.344402986e-08
-1.384708059e-08
-1.423423872e-08
-1.460649599e-08
-1.496264484e-08
-1.530552815e-08
-1.56353742e-08
-1.595295017e-08
-1.625885329e-08
-1.655268589e-08
-1.683640359e-08
-1.710822131e-08
-1.736784351e-08
-1.761511174e-08
-1.78522666e-08
-1.808012803e-08
-1.830081355e-08
-1.851352239e-08
-1.871750236e-08
-1.891244899e-08
-1.909937155e-08
-1.928033378e-08
-1.945474884e-08
-1.962229742e-08
-1.978313662e-08
-1.993766341e-08
-2.008643837e-08
-2.02269907e-08
-2.035619584e-08
-2.048074927e-08
-2.060445588e-08
-2.072027715e-08
-2.082824081e-08
-2.093449407e-08
-2.103091855e-08
-2.112285183e-08
-2.121419318e-08
-2.130466682e-08
-2.139561266e-08
-2.153783686e-08
-2.173995645e-08
-2.244656172e-08
-2.314889045e-08
-2.38164566e-08
-2.448590169e-08
)


101
(
3.12413346e-16
1.483442591e-11
1.141000075e-10
3.757151265e-10
8.046198531e-10
1.361066313e-09
2.001597881e-09
2.705985396e-09
3.441208496e-09
4.181379364e-09
4.906963657e-09
5.601754539e-09
6.252016868e-09
6.844770732e-09
7.369387689e-09
7.817225319e-09
8.181223026e-09
8.454768651e-09
8.633953051e-09
8.718160782e-09
8.703551454e-09
8.591092649e-09
8.386666536e-09
8.092846906e-09
7.712812884e-09
7.251697409e-09
6.716487486e-09
6.115242924e-09
5.457463906e-09
4.752033348e-09
4.008178011e-09
3.234004491e-09
2.435819293e-09
1.627286034e-09
8.1104246e-10
-4.665815738e-12
-8.129706879e-10
-1.608861513e-09
-2.388221152e-09
-3.149386122e-09
-3.894170413e-09
-4.624834925e-09
-5.338370215e-09
-6.032089293e-09
-6.703363747e-09
-7.349050721e-09
-7.969619934e-09
-8.566438852e-09
-9.142308866e-09
-9.69826278e-09
-1.023638081e-08
-1.075581481e-08
-1.125522028e-08
-1.173568369e-08
-1.219811434e-08
-1.264497812e-08
-1.307490005e-08
-1.349021328e-08
-1.389057429e-08
-1.427660545e-08
-1.464644963e-08
-1.500266829e-08
-1.534630915e-08
-1.567678798e-08
-1.599490368e-08
-1.63026007e-08
-1.659956341e-08
-1.68864606e-08
-1.716160318e-08
-1.742379635e-08
-1.767536115e-08
-1.791659159e-08
-1.815005909e-08
-1.83764866e-08
-1.859531775e-08
-1.880556948e-08
-1.900585371e-08
-1.919971484e-08
-1.938783123e-08
-1.956900729e-08
-1.974396422e-08
-1.991196465e-08
-2.007468265e-08
-2.023095008e-08
-2.037683476e-08
-2.051429667e-08
-2.064989329e-08
-2.078139171e-08
-2.090370146e-08
-2.102209343e-08
-2.113418729e-08
-2.123941462e-08
-2.134574458e-08
-2.144932843e-08
-2.155501339e-08
-2.171622299e-08
-2.194530631e-08
-2.263202363e-08
-2.331549355e-08
-2.397398863e-08
-2.460953519e-08
)


101
(
3.124212899e-16
1.422699264e-11
1.116031969e-10
3.695933851e-10
7.942242361e-10
1.347455226e-09
1.986759447e-09
2.691420945e-09
3.429909345e-09
4.176576658e-09
4.911947437e-09
5.619918589e-09
6.286852232e-09
6.899821377e-09
7.448187573e-09
7.923072487e-09
8.317146956e-09
8.623734114e-09
8.838204775e-09
8.959521016e-09
8.983721564e-09
8.910611775e-09
8.744926459e-09
8.489026554e-09
8.146018969e-09
7.720483593e-09
7.218517299e-09
6.647296519e-09
6.015614151e-09
5.332022615e-09
4.605887052e-09
3.845706954e-09
3.058009665e-09
2.256605635e-09
1.4437743e-09
6.276607319e-10
-1.845696646e-10
-9.867934791e-10
-1.773085484e-09
-2.540275751e-09
-3.289767253e-09
-4.025053792e-09
-4.744744699e-09
-5.447513789e-09
-6.130757256e-09
-6.790254464e-09
-7.425119375e-09
-8.03528976e-09
-8.623547543e-09
-9.191815303e-09
-9.742032394e-09
-1.027436301e-08
-1.078795945e-08
-1.128275912e-08
-1.175905385e-08
-1.221901483e-08
-1.26628905e-08
-1.309163047e-08
-1.350656335e-08
-1.390744488e-08
-1.42932151e-08
-1.466403766e-08
-1.502224083e-08
-1.536660439e-08
-1.569858224e-08
-1.602017894e-08
-1.633086236e-08
-1.663227086e-08
-1.692206686e-08
-1.720046524e-08
-1.746762211e-08
-1.772354853e-08
-1.797034049e-08
-1.82095477e-08
-1.844223125e-08
-1.866802436e-08
-1.888360523e-08
-1.909183857e-08
-1.929231212e-08
-1.948735188e-08
-1.967632914e-08
-1.985822555e-08
-2.003451157e-08
-2.020492005e-08
-2.036710096e-08
-2.051956649e-08
-2.066662216e-08
-2.081208983e-08
-2.094979309e-08
-2.108107183e-08
-2.120775176e-08
-2.132626181e-08
-2.144744571e-08
-2.156538893e-08
-2.168467031e-08
-2.186534117e-08
-2.212338753e-08
-2.279716512e-08
-2.346878227e-08
-2.412456622e-08
-2.478599652e-08
)


101
(
3.124288853e-16
1.362230048e-11
1.091008422e-10
3.634329546e-10
7.837056253e-10
1.333565127e-09
1.971434945e-09
2.676160218e-09
3.417577893e-09
4.170355715e-09
4.915093468e-09
5.635790358e-09
6.318916495e-09
6.951603628e-09
7.523232397e-09
8.024738826e-09
8.448542408e-09
8.787876319e-09
9.037557561e-09
9.196033306e-09
9.259287403e-09
9.226220965e-09
9.100436157e-09
8.883819256e-09
8.579315629e-09
8.191143056e-09
7.724693901e-09
7.186357574e-09
6.58420308e-09
5.926253067e-09
5.221749549e-09
4.479443619e-09
3.706128044e-09
2.915965999e-09
2.110943619e-09
1.298930404e-09
4.868403283e-10
-3.188104175e-10
-1.110624669e-09
-1.883598988e-09
-2.638046065e-09
-3.377646397e-09
-4.102173456e-09
-4.812214312e-09
-5.506149529e-09
-6.179283968e-09
-6.829357198e-09
-7.454553927e-09
-8.057543636e-09
-8.639884943e-09
-9.203248502e-09
-9.749157507e-09
-1.027805983e-08
-1.078831349e-08
-1.128035258e-08
-1.175578243e-08
-1.221453093e-08
-1.265800863e-08
-1.30878293e-08
-1.350451302e-08
-1.390696864e-08
-1.429392965e-08
-1.466692746e-08
-1.502602562e-08
-1.537356101e-08
-1.570872374e-08
-1.603375757e-08
-1.634912294e-08
-1.665432169e-08
-1.694896092e-08
-1.72318376e-08
-1.750355082e-08
-1.776475716e-08
-1.801721958e-08
-1.826302674e-08
-1.850332992e-08
-1.873607084e-08
-1.89592415e-08
-1.917383175e-08
-1.938263517e-08
-1.958473588e-08
-1.978077232e-08
-1.997190815e-08
-2.015607747e-08
-2.03335222e-08
-2.050182234e-08
-2.066248939e-08
-2.082063906e-08
-2.097433795e-08
-2.112041393e-08
-2.126051704e-08
-2.13945989e-08
-2.15280749e-08
-2.166200604e-08
-2.179508042e-08
-2.199541621e-08
-2.227832812e-08
-2.29447441e-08
-2.361016458e-08
-2.426872915e-08
-2.494479649e-08
)


101
(
3.124367134e-16
1.30206318e-11
1.065940068e-10
3.57235282e-10
7.730662882e-10
1.31939862e-09
1.955625789e-09
2.660202137e-09
3.404217078e-09
4.162716785e-09
4.916396941e-09
5.649357732e-09
6.348186609e-09
7.000080354e-09
7.594462483e-09
8.122129791e-09
8.575273978e-09
8.947018095e-09
9.231760786e-09
9.427371014e-09
9.529835274e-09
9.537338302e-09
9.452457923e-09
9.276417389e-09
9.011863275e-09
8.662725936e-09
8.233876579e-09
7.73106079e-09
7.161686735e-09
6.533100865e-09
5.854050164e-09
5.133311517e-09
4.377998689e-09
3.602636129e-09
2.809224203e-09
2.005344834e-09
1.19733933e-09
3.91426305e-10
-4.042888031e-10
-1.183059104e-09
-1.943410041e-09
-2.688038864e-09
-3.417253128e-09
-4.133457146e-09
-4.836699511e-09
-5.522576268e-09
-6.18789098e-09
-6.829419226e-09
-7.448638033e-09
-8.046413227e-09
-8.624536003e-09
-9.184929035e-09
-9.729247997e-09
-1.02557359e-08
-1.076451368e-08
-1.125682145e-08
-1.173164803e-08
-1.21910889e-08
-1.263616912e-08
-1.306872285e-08
-1.348752814e-08
-1.38916652e-08
-1.428033613e-08
-1.465529517e-08
-1.501867139e-08
-1.53682863e-08
-1.570802155e-08
-1.603784942e-08
-1.635842017e-08
-1.666829004e-08
-1.696705275e-08
-1.72553808e-08
-1.753207126e-08
-1.77993475e-08
-1.805906566e-08
-1.831268492e-08
-1.856056646e-08
-1.880044625e-08
-1.903152601e-08
-1.925446275e-08
-1.946990422e-08
-1.968098438e-08
-1.988666555e-08
-2.008568054e-08
-2.02789065e-08
-2.046360549e-08
-2.06398588e-08
-2.081150442e-08
-2.098092981e-08
-2.114325221e-08
-2.129621744e-08
-2.144795839e-08
-2.159447977e-08
-2.174400041e-08
-2.189327206e-08
-2.211222448e-08
-2.241734172e-08
-2.308344268e-08
-2.374856621e-08
-2.440950527e-08
-2.505670237e-08
)


101
(
3.124447742e-16
1.242226339e-11
1.040830071e-10
3.510012005e-10
7.623071432e-10
1.304955991e-09
1.939329826e-09
2.643540714e-09
3.389823358e-09
4.153652554e-09
4.915844517e-09
5.660599445e-09
6.37462994e-09
7.04520319e-09
7.661804985e-09
8.215135141e-09
8.697187422e-09
9.100965968e-09
9.42055632e-09
9.65323674e-09
9.794989502e-09
9.843442537e-09
9.800264663e-09
9.665984551e-09
9.442775404e-09
9.134269531e-09
8.744935699e-09
8.280019289e-09
7.746376882e-09
7.150637653e-09
6.500729593e-09
5.805098922e-09
5.071148351e-09
4.313685931e-09
3.534999954e-09
2.742589855e-09