/*--------------------------------*- C++ -*----------------------------------*\
| =========                 |                                                 |
| \\      /  F ield         | OpenFOAM: The Open Source CFD Toolbox           |
|  \\    /   O peration     | Version:  2.3.1                                 |
|   \\  /    A nd           | Web:      www.OpenFOAM.org                      |
|    \\/     M anipulation  |                                                 |
\*---------------------------------------------------------------------------*/
FoamFile
{
    version     2.0;
    format      ascii;
    class       dictionary;
    location    "constant";
    object      DPSI21;
}
// * * * * * * * * * * * * * * * * * * * * * * * * * * * * * * * * * * * * * //

DPSI21_table
101
(

101
(
-8.795125739e-21
-3.387087952e-19
-3.255384248e-18
-1.366932838e-17
-3.58552787e-17
-7.030324643e-17
-1.179232377e-16
-1.764496978e-16
-2.412271311e-16
-3.078766868e-16
-3.709021547e-16
-4.242957636e-16
-4.621342126e-16
-4.781017471e-16
-4.664911915e-16
-4.250438472e-16
-3.518023809e-16
-2.57441785e-16
-1.425195093e-16
-1.990059854e-17
9.109471491e-17
1.946387942e-16
2.791495197e-16
3.354283978e-16
3.672536922e-16
3.777495734e-16
3.705790552e-16
3.501392763e-16
3.211460997e-16
2.876892409e-16
2.531826344e-16
2.214793698e-16
1.881172333e-16
1.567925723e-16
1.323205226e-16
8.450571528e-17
2.331895048e-17
4.655042106e-17
8.589422603e-17
6.940267008e-17
5.703024586e-17
4.684698046e-17
3.778026902e-17
3.080587771e-17
2.495081745e-17
2.001150339e-17
1.600053523e-17
1.267997917e-17
1.002623384e-17
7.864114001e-18
6.164944589e-18
4.781327627e-18
3.68627109e-18
2.822989475e-18
2.14978669e-18
1.597472418e-18
1.180913456e-18
8.760744086e-19
6.315560431e-19
4.54107464e-19
3.201378966e-19
2.260518751e-19
1.557830488e-19
1.040247173e-19
6.860708657e-20
4.512334606e-20
2.867183495e-20
1.763749604e-20
1.06608918e-20
6.325858687e-21
3.604075756e-21
2.00214881e-21
1.068321031e-21
5.14438743e-22
2.35709348e-22
1.715320042e-22
1.120493549e-22
4.859521617e-23
2.097651162e-23
8.837382127e-24
3.473919539e-24
1.274256094e-24
4.652742713e-25
1.557024653e-25
9.764868154e-26
5.160679056e-26
1.798395309e-26
6.143942217e-27
1.815790266e-27
5.903131494e-28
4.146553883e-28
1.266416443e-28
2.969212262e-29
7.600273957e-30
2.508332585e-30
7.31347671e-31
8.075208534e-32
-1.389957268e-37
1.745091282e-47
2.425940809e-47
-3.874268577e-47
)


101
(
-6.843707355e-21
-3.10922479e-19
-3.022369216e-18
-1.264939936e-17
-3.315326642e-17
-6.528582474e-17
-1.092826969e-16
-1.630421615e-16
-2.227737336e-16
-2.844844717e-16
-3.433823763e-16
-3.941632267e-16
-4.317169936e-16
-4.505347876e-16
-4.448405742e-16
-4.120594717e-16
-3.520184681e-16
-2.676627748e-16
-1.656535529e-16
-5.500487841e-17
5.554210059e-17
1.56116721e-16
2.389332499e-16
3.007133938e-16
3.403537389e-16
3.590177742e-16
3.596470016e-16
3.459374432e-16
3.222831033e-16
2.92834724e-16
2.609857906e-16
2.302313708e-16
1.993257207e-16
1.699266483e-16
1.448594212e-16
1.101432779e-16
6.686081143e-17
5.722394704e-17
7.036122653e-17
6.800714409e-17
5.825054219e-17
4.83341233e-17
3.949553029e-17
3.224486901e-17
2.626430147e-17
2.130167123e-17
1.7229928e-17
1.386840436e-17
1.111668134e-17
8.862410164e-18
7.034606871e-18
5.552965774e-18
4.365805882e-18
3.41214894e-18
2.639906226e-18
2.016603846e-18
1.526930619e-18
1.15040035e-18
8.580291749e-19
6.343231691e-19
4.638854052e-19
3.364551736e-19
2.414467468e-19
1.702919192e-19
1.177520192e-19
8.035366627e-20
5.414186524e-20
3.576773589e-20
2.316783761e-20
1.465696749e-20
9.047415481e-21
5.449827729e-21
3.212857294e-21
1.826356929e-21
9.838255033e-22
5.374550261e-22
2.958483994e-22
1.515177467e-22
7.338504657e-23
3.421702865e-23
1.533884148e-23
6.590105629e-24
2.682099982e-24
1.053780929e-24
4.116345436e-25
1.658816859e-25
7.036516416e-26
3.085065624e-26
1.256445907e-26
4.727171176e-27
1.866995617e-27
7.314530961e-28
2.797185974e-28
9.777587158e-29
3.225480611e-29
1.214974632e-29
3.054899091e-30
-8.438514372e-31
-4.303967768e-30
-2.360545752e-29
-4.127599488e-29
)


101
(
-5.276218751e-21
-2.88548431e-19
-2.851011226e-18
-1.199178155e-17
-3.15955844e-17
-6.265747115e-17
-1.053822799e-16
-1.579951563e-16
-2.172038315e-16
-2.793104851e-16
-3.398330276e-16
-3.937351816e-16
-4.360779166e-16
-4.614372919e-16
-4.637884997e-16
-4.398124474e-16
-3.887416388e-16
-3.115956988e-16
-2.145546756e-16
-1.055612657e-16
8.024110073e-18
1.14847113e-16
2.069038239e-16
2.802498993e-16
3.320834809e-16
3.624203831e-16
3.733197508e-16
3.678138374e-16
3.500383246e-16
3.241963557e-16
2.939797519e-16
2.635003801e-16
2.322729882e-16
2.022661725e-16
1.757586347e-16
1.417352968e-16
9.98804969e-17
7.748344755e-17
7.817155641e-17
7.841259967e-17
7.182612383e-17
6.194908459e-17
5.17441663e-17
4.292980941e-17
3.550995376e-17
2.92741489e-17
2.412674417e-17
1.984215583e-17
1.626986559e-17
1.329400664e-17
1.082387801e-17
8.77337189e-18
7.087531783e-18
5.714714539e-18
4.587517981e-18
3.653222374e-18
2.885313198e-18
2.263069022e-18
1.764947903e-18
1.368069862e-18
1.052794453e-18
8.063619838e-19
6.126351908e-19
4.59960338e-19
3.415090984e-19
2.513838677e-19
1.832891569e-19
1.315500351e-19
9.321106037e-20
6.514396236e-20
4.464029531e-20
2.988343755e-20
1.956560899e-20
1.266769135e-20
7.947993144e-21
4.836082362e-21
2.868910847e-21
1.647320768e-21
9.176300511e-22
4.965895239e-22
2.594146498e-22
1.303924909e-22
6.239353649e-23
2.878748912e-23
1.247278074e-23
5.051687441e-24
1.947409788e-24
7.908119261e-25
3.462492475e-25
1.393176373e-25
5.457989396e-26
2.168460175e-26
8.688444817e-27
3.765766474e-27
1.511361738e-27
7.240651206e-28
1.52620234e-28
-4.241916464e-28
-2.477627024e-27
4.41420454e-25
9.23792375e-25
)


101
(
-3.932916559e-21
-2.688856308e-19
-2.705421913e-18
-1.146438018e-17
-3.039608976e-17
-6.06704286e-17
-1.02578377e-16
-1.546482291e-16
-2.13939808e-16
-2.77042479e-16
-3.397483456e-16
-3.972738406e-16
-4.448396315e-16
-4.771280147e-16
-4.879595548e-16
-4.733337324e-16
-4.317103643e-16
-3.627605086e-16
-2.715796565e-16
-1.65002024e-16
-4.95173742e-17
6.31194595e-17
1.646434297e-16
2.502909044e-16
3.156492784e-16
3.594957883e-16
3.82937303e-16
3.880619231e-16
3.78536487e-16
3.584653622e-16
3.315489061e-16
3.025806739e-16
2.714999593e-16
2.413344742e-16
2.159542841e-16
1.810118659e-16
1.379151957e-16
1.085224803e-16
9.736380525e-17
9.441279902e-17
8.993242014e-17
8.115864203e-17
7.024496897e-17
5.983573682e-17
5.053239093e-17
4.250497596e-17
3.57936609e-17
3.016804249e-17
2.54230089e-17
2.138891279e-17
1.796363999e-17
1.502176054e-17
1.253119042e-17
1.044830185e-17
8.691035291e-18
7.211184234e-18
5.96236362e-18
4.890526868e-18
3.994258623e-18
3.247518451e-18
2.62260996e-18
2.111989916e-18
1.692211733e-18
1.346100242e-18
1.064343921e-18
8.353549957e-19
6.503922693e-19
4.99623885e-19
3.786426238e-19
2.854484236e-19
2.127057085e-19
1.553509606e-19
1.111755711e-19
7.877364591e-20
5.48245215e-20
3.725039586e-20
2.466016314e-20
1.584006235e-20
9.884463781e-21
6.013975344e-21
3.585943565e-21
2.080400936e-21
1.155249374e-21
6.213449948e-22
3.201092545e-22
1.559769561e-22
7.066713957e-23
3.026591162e-23
1.354250444e-23
5.964900043e-24
2.376913311e-24
8.854906943e-25
3.462468353e-25
1.445521128e-25
6.067892437e-26
3.006109669e-26
-3.982399345e-29
-5.691343896e-26
-4.77884981e-25
-2.854346797e-24
-4.992819988e-24
)


101
(
-2.740141105e-21
-2.508240254e-19
-2.572284447e-18
-1.098967291e-17
-2.932286074e-17
-5.888310801e-17
-1.000792391e-16
-1.517370247e-16
-2.112451498e-16
-2.755065769e-16
-3.406115761e-16
-4.020561811e-16
-4.552544751e-16
-4.950326088e-16
-5.151310328e-16
-5.109296277e-16
-4.80103081e-16
-4.210541826e-16
-3.376434084e-16
-2.354167219e-16
-1.19839505e-16
-2.797110465e-18
1.07436958e-16
2.05508578e-16
2.854095361e-16
3.445735469e-16
3.829679532e-16
4.015008737e-16
4.031570913e-16
3.918375804e-16
3.708054946e-16
3.453921888e-16
3.15577805e-16
2.855641763e-16
2.601342833e-16
2.281931094e-16
1.869438495e-16
1.504220482e-16
1.287624671e-16
1.194839858e-16
1.142828886e-16
1.066313421e-16
9.584432934e-17
8.438056008e-17
7.319401458e-17
6.301280258e-17
5.42656035e-17
4.683672529e-17
4.050068997e-17
3.503776152e-17
3.03355798e-17
2.61697207e-17
2.250667381e-17
1.935343437e-17
1.666093646e-17
1.430676374e-17
1.226067691e-17
1.047130808e-17
8.917881839e-18
7.57040979e-18
6.369072737e-18
5.34488749e-18
4.469014116e-18
3.716789058e-18
3.091061461e-18
2.560230016e-18
2.098440529e-18
1.700881788e-18
1.363124547e-18
1.090335524e-18
8.673002923e-19
6.772416508e-19
5.197658662e-19
3.94281773e-19
2.961291941e-19
2.19372904e-19
1.589897155e-19
1.120244435e-19
7.725656501e-20
5.193890861e-20
3.431713091e-20
2.226583884e-20
1.394189184e-20
8.487021902e-21
5.029555293e-21
2.86554269e-21
1.539930753e-21
7.72043589e-22
3.804911092e-22
1.902049539e-22
8.991509318e-23
3.806153697e-23
1.562969333e-23
6.24138279e-24
2.57301767e-24
1.221665399e-24
-6.172830232e-25
-5.305950283e-24
-4.166634435e-23
-1.480527653e-22
-2.26308557e-22
)


101
(
-1.662499669e-21
-2.338972051e-19
-2.446612595e-18
-1.054165297e-17
-2.830711864e-17
-5.718311335e-17
-9.771129842e-17
-1.490167943e-16
-2.088245316e-16
-2.743759379e-16
-3.420859912e-16
-4.077550745e-16
-4.670295573e-16
-5.149150336e-16
-5.451443123e-16
-5.525649076e-16
-5.340825774e-16
-4.868699825e-16
-4.134911224e-16
-3.180255644e-16
-2.046969491e-16
-8.531017848e-17
3.216672649e-17
1.421088038e-16
2.369772763e-16
3.12848156e-16
3.684384021e-16
4.032097772e-16
4.192054638e-16
4.198188357e-16
4.081391211e-16
3.894607896e-16
3.627657172e-16
3.342009865e-16
3.101787132e-16
2.814520496e-16
2.436202728e-16
2.038729767e-16
1.731805751e-16
1.556803719e-16
1.471451193e-16
1.395892647e-16
1.294014803e-16
1.178070905e-16
1.053540313e-16
9.306872428e-17
8.188492477e-17
7.210619202e-17
6.376706074e-17
5.660054154e-17
5.040441103e-17
4.477111213e-17
3.959547541e-17
3.495026698e-17
3.094271121e-17
2.740107551e-17
2.423125072e-17
2.134746459e-17
1.879412859e-17
1.657374092e-17
1.445608997e-17
1.255615815e-17
1.088685741e-17
9.370856746e-18
8.082042973e-18
6.98064411e-18
5.98824976e-18
5.092752095e-18
4.264973236e-18
3.55714616e-18
2.978003401e-18
2.462457477e-18
2.005564236e-18
1.610809745e-18
1.282128369e-18
1.009200668e-18
7.840179937e-19
6.002667679e-19
4.497799301e-19
3.277035499e-19
2.340237573e-19
1.653704517e-19
1.148737319e-19
7.727605942e-20
5.098436199e-20
3.283533075e-20
2.033608935e-20
1.180994563e-20
6.601487029e-21
3.673862851e-21
2.022381407e-21
1.011784878e-21
4.847838395e-22
2.254421269e-22
1.009012379e-22
5.038217547e-23
-3.145711385e-23
-2.493483953e-22
-2.256025557e-21
-7.554257639e-21
-1.121230882e-20
)


101
(
-6.818489842e-22
-2.179001567e-19
-2.326493894e-18
-1.01114419e-17
-2.732794679e-17
-5.554032389e-17
-9.543261204e-17
-1.46431275e-16
-2.066098316e-16
-2.735705151e-16
-3.440792945e-16
-4.142653035e-16
-4.800518986e-16
-5.366648242e-16
-5.779053028e-16
-5.982040063e-16
-5.937360491e-16
-5.604860872e-16
-4.997127201e-16
-4.138691822e-16
-3.05705e-16
-1.867644529e-16
-6.435338115e-17
5.606958563e-17
1.655319928e-16
2.587842351e-16
3.333566461e-16
3.870578809e-16
4.206485468e-16
4.367589528e-16
4.380901896e-16
4.299252682e-16
4.094105759e-16
3.842837977e-16
3.634406865e-16
3.389858347e-16
3.063831442e-16
2.672116925e-16
2.303187457e-16
2.043397924e-16
1.904515638e-16
1.814120526e-16
1.716095849e-16
1.608195195e-16
1.4826054e-16
1.346168428e-16
1.210513448e-16
1.084767216e-16
9.770578094e-17
8.854537958e-17
8.076702371e-17
7.369918639e-17
6.691202099e-17
6.043245519e-17
5.47250475e-17
4.975095208e-17
4.521895713e-17
4.096395457e-17
3.708174477e-17
3.360343337e-17
3.019317456e-17
2.704469793e-17
2.421521632e-17
2.152148039e-17
1.909212231e-17
1.701110372e-17
1.513444039e-17
1.338726009e-17
1.169979544e-17
1.01253803e-17
8.758260221e-18
7.554151355e-18
6.464015862e-18
5.468873425e-18
4.577903769e-18
3.782794736e-18
3.099613437e-18
2.527246482e-18
2.026236823e-18
1.586450166e-18
1.212789715e-18
9.170379369e-19
6.891610494e-19
5.038256694e-19
3.616481069e-19
2.564333121e-19
1.771124537e-19
1.16402657e-19
7.277698292e-20
4.53016955e-20
2.827826482e-20
1.633222477e-20
8.892177769e-21
4.811500282e-21
2.565223519e-21
1.468442481e-21
-1.587872486e-21
-9.659616132e-21
-6.559308184e-20
-1.744150114e-19
-2.36172242e-19
)


101
(
2.120713101e-22
-2.027343799e-19
-2.211149472e-18
-9.695845879e-18
-2.637846143e-17
-5.394516884e-17
-9.322917184e-17
-1.439586912e-16
-2.045679812e-16
-2.730428344e-16
-3.465260415e-16
-4.215023221e-16
-4.942202342e-16
-5.601759499e-16
-6.133170256e-16
-6.477857444e-16
-6.591045813e-16
-6.421300458e-16
-5.968396601e-16
-5.239340386e-16
-4.244468565e-16
-3.094762177e-16
-1.853418682e-16
-5.680603964e-17
6.590323543e-17
1.762086504e-16
2.706652006e-16
3.454386602e-16
3.996929113e-16
4.349260849e-16
4.531852843e-16
4.598049134e-16
4.49389263e-16
4.306361453e-16
4.152455325e-16
3.966702098e-16
3.714928578e-16
3.367973004e-16
2.976916594e-16
2.64981091e-16
2.450810704e-16
2.329215524e-16
2.225548967e-16
2.13135673e-16
2.01819793e-16
1.883003079e-16
1.734134776e-16
1.582366094e-16
1.44698369e-16
1.332302652e-16
1.239144636e-16
1.156469707e-16
1.07427999e-16
9.922194384e-17
9.169200743e-17
8.497954222e-17
7.901817183e-17
7.34351283e-17
6.818626231e-17
6.338434507e-17
5.84161715e-17
5.363974605e-17
4.922438507e-17
4.492902087e-17
4.09018693e-17
3.738107988e-17
3.418496315e-17
3.11753359e-17
2.824022485e-17
2.528553334e-17
2.257478344e-17
2.014168202e-17
1.789261073e-17
1.578168286e-17
1.379692342e-17
1.190627331e-17
1.016910606e-17
8.667754359e-18
7.33437679e-18
6.122475985e-18
4.994910911e-18
3.993102594e-18
3.182687312e-18
2.499133038e-18
1.919193039e-18
1.465506451e-18
1.103932514e-18
7.996560207e-19
5.531835054e-19
3.782855416e-19
2.60200259e-19
1.708411486e-19
1.040728141e-19
6.38860179e-20
3.919293246e-20
2.569528524e-20
-3.591057858e-20
-1.929491134e-19
-1.081649123e-18
-2.677139982e-18
-3.529479094e-18
)


101
(
1.025886079e-21
-1.883451125e-19
-2.10021945e-18
-9.293555675e-18
-2.545589416e-17
-5.23932747e-17
-9.109320733e-17
-1.415841124e-16
-2.026722243e-16
-2.727512579e-16
-3.493674128e-16
-4.293886518e-16
-5.094403387e-16
-5.853461403e-16
-6.512818186e-16
-7.012396063e-16
-7.301980806e-16
-7.319758197e-16
-7.053344464e-16
-6.491435312e-16
-5.624682824e-16
-4.557352397e-16
-3.340747623e-16
-2.009639242e-16
-6.75080604e-17
5.830273477e-17
1.722882872e-16
2.692677114e-16
3.466796214e-16
4.044453627e-16
4.435270253e-16
4.69374304e-16
4.735866044e-16
4.651437955e-16
4.584371561e-16
4.481542191e-16
4.329237734e-16
4.064736563e-16
3.698352721e-16
3.339216901e-16
3.089035851e-16
2.928801482e-16
2.81209566e-16
2.733723536e-16
2.64433135e-16
2.527575246e-16
2.383394037e-16
2.215941356e-16
2.056136308e-16
1.921681813e-16
1.815511239e-16
1.722999959e-16
1.635193797e-16
1.542803929e-16
1.449032348e-16
1.365781358e-16
1.295576916e-16
1.228571139e-16
1.164851275e-16
1.107300956e-16
1.044684715e-16
9.83326044e-17
9.232570363e-17
8.604880636e-17
7.991667759e-17
7.439460467e-17
6.962249791e-17
6.528607574e-17
6.111707195e-17
5.653247281e-17
5.185386767e-17
4.736449588e-17
4.314307752e-17
3.94535567e-17
3.588652797e-17
3.218893589e-17
2.854487705e-17
2.522113783e-17
2.225645141e-17
1.948205893e-17
1.67594175e-17
1.410369067e-17
1.180334718e-17
9.823343929e-18
8.033181983e-18
6.492205564e-18
5.206599612e-18
4.097180166e-18
3.076314602e-18
2.290974865e-18
1.712750753e-18
1.225831797e-18
8.245787025e-19
5.646308954e-19
3.865330483e-19
2.894825547e-19
-4.740317477e-19
-2.306311682e-18
-1.071288166e-17
-2.777005383e-17
-3.803187119e-17
)


101
(
1.764487632e-21
-1.746956912e-19
-1.993499393e-18
-8.90389329e-18
-2.455870103e-17
-5.088159686e-17
-8.901843464e-17
-1.392944993e-16
-2.008977716e-16
-2.726560397e-16
-3.525466313e-16
-4.378488515e-16
-5.256187086e-16
-6.120714178e-16
-6.916963677e-16
-7.584808339e-16
-8.069965537e-16
-8.301458946e-16
-8.255849129e-16
-7.903386849e-16
-7.212624174e-16
-6.277842143e-16
-5.138390726e-16
-3.810850356e-16
-2.408190841e-16
-1.024558602e-16
2.929639488e-17
1.483020932e-16
2.50389884e-16
3.335672832e-16
3.971021495e-16
4.463516967e-16
4.697303359e-16
4.764197034e-16
4.826319257e-16
4.833690496e-16
4.805201786e-16
4.658988556e-16
4.368973124e-16
4.032766325e-16
3.768770703e-16
3.576995245e-16
3.437948748e-16
3.372849211e-16
3.314834822e-16
3.234599452e-16
3.117849627e-16
2.957151794e-16
2.789741114e-16
2.641420302e-16
2.523196643e-16
2.426323408e-16
2.344447142e-16
2.256795443e-16
2.161422971e-16
2.067685068e-16
1.993550079e-16
1.924437288e-16
1.852703706e-16
1.796127256e-16
1.730642239e-16
1.663719759e-16
1.596761195e-16
1.51991449e-16
1.440326957e-16
1.363087685e-16
1.297663793e-16
1.242874504e-16
1.19082092e-16
1.131533061e-16
1.066094799e-16
1.000399144e-16
9.346586757e-17
8.744026667e-17
8.181376875e-17
7.605254914e-17
6.989301601e-17
6.351896134e-17
5.788294624e-17
5.288410603e-17
4.745272234e-17
4.165987287e-17
3.630347914e-17
3.16661605e-17
2.746032115e-17
2.319058912e-17
1.953693741e-17
1.641758757e-17
1.32223522e-17
1.056332195e-17
8.435879657e-18
6.494482631e-18
4.78146732e-18
3.567050651e-18
2.701978674e-18
2.205439256e-18
-4.194220922e-18
-1.821717632e-17
-6.880637805e-17
-1.829422466e-16
-2.578306664e-16
)


101
(
2.431907686e-21
-1.617569975e-19
-1.890844022e-18
-8.526405291e-18
-2.368575882e-17
-4.940754257e-17
-8.699905824e-17
-1.370783167e-16
-1.992229739e-16
-2.727203644e-16
-3.560079286e-16
-4.468063504e-16
-5.426582026e-16
-6.402396546e-16
-7.344424097e-16
-8.193960952e-16
-8.894295188e-16
-9.36681495e-16
-9.578521545e-16
-9.481999806e-16
-9.022122447e-16
-8.27951789e-16
-7.280269491e-16
-6.01969413e-16
-4.60531983e-16
-3.142003772e-16
-1.680674404e-16
-2.886261162e-17
9.790543935e-17
2.082967621e-16
2.994813528e-16
3.761282448e-16
4.226013383e-16
4.48937844e-16
4.729185685e-16
4.879789519e-16
4.999644261e-16
5.00805247e-16
4.848978323e-16
4.598223906e-16
4.376900308e-16
4.181518203e-16
4.020475721e-16
3.964588856e-16
3.938586666e-16
3.910876134e-16
3.853214808e-16
3.735217508e-16
3.586612861e-16
3.436742497e-16
3.311327591e-16
3.213983433e-16
3.149669367e-16
3.097128097e-16
3.026841708e-16
2.930488555e-16
2.863877126e-16
2.808961792e-16
2.743712803e-16
2.705576304e-16
2.661464994e-16
2.606914701e-16
2.550167808e-16
2.483178869e-16
2.405832898e-16
2.310009466e-16
2.223250646e-16
2.159945707e-16
2.10922087e-16
2.056697582e-16
1.989401885e-16
1.909382606e-16
1.820368952e-16
1.738729367e-16
1.668950438e-16
1.599167754e-16
1.512404612e-16
1.413391934e-16
1.323182897e-16
1.246179703e-16
1.159202184e-16
1.057623889e-16
9.542134414e-17
8.626721745e-17
7.861383993e-17
6.952391557e-17
6.069052742e-17
5.343666566e-17
4.547790657e-17
3.851363288e-17
3.269003738e-17
2.663297099e-17
2.102245165e-17
1.675565377e-17
1.381685471e-17
1.241821715e-17
-2.636032961e-17
-1.040216601e-16
-3.166292302e-16
-6.480577488e-16
-8.141703373e-16
)


101
(
3.031774926e-21
-1.49503474e-19
-1.792131775e-18
-8.160720068e-18
-2.283610302e-17
-4.796876067e-17
-8.502972881e-17
-1.349249309e-16
-1.976280669e-16
-2.729095167e-16
-3.596972806e-16
-4.561852027e-16
-5.604596793e-16
-6.697334396e-16
-7.793915335e-16
-8.838480822e-16
-9.773765105e-16
-1.051551557e-15
-1.102303522e-15
-1.123265994e-15
-1.106516788e-15
-1.058447618e-15
-9.799617685e-16
-8.684303595e-16
-7.333686406e-16
-5.854004344e-16
-4.300583369e-16
-2.745816509e-16
-1.252812816e-16
1.232031122e-17
1.331603883e-16
2.406159741e-16
3.133472207e-16
3.629766729e-16
4.095900797e-16
4.429841227e-16
4.726427554e-16
4.920271015e-16
4.938487091e-16
4.835047465e-16
4.725241266e-16
4.577902724e-16
4.411191072e-16
4.361523049e-16
4.36454703e-16
4.402751697e-16
4.438072835e-16
4.4036194e-16
4.30933738e-16
4.184691511e-16
4.069954734e-16
3.977506385e-16
3.939682537e-16
3.947095272e-16
3.920817167e-16
3.853308847e-16
3.829182242e-16
3.814212378e-16
3.774675853e-16
3.766938577e-16
3.7765427e-16
3.775027863e-16
3.767288078e-16
3.739611168e-16
3.695530785e-16
3.624321298e-16
3.531637322e-16
3.457914946e-16
3.424179675e-16
3.40437124e-16
3.372792782e-16
3.316282147e-16
3.229755741e-16
3.142497519e-16
3.076335504e-16
3.016791169e-16
2.924244098e-16
2.813568318e-16
2.702731484e-16
2.598219326e-16
2.490532218e-16
2.351087105e-16
2.184451069e-16
2.036995574e-16
1.931419916e-16
1.78321661e-16
1.602339781e-16
1.453468068e-16
1.305191273e-16
1.163866403e-16
1.026671193e-16
8.797528172e-17
7.375498157e-17
6.167065756e-17
5.380241001e-17
5.16393412e-17
-1.199964959e-16
-4.386355491e-16
-1.142199884e-15
-2.204444497e-15
-2.735437084e-15
)


101
(
3.567468336e-21
-1.379110624e-19
-1.697251799e-18
-7.806504973e-18
-2.200885757e-17
-4.656306104e-17
-8.310546211e-17
-1.328247453e-16
-1.960948515e-16
-2.731900979e-16
-3.635622815e-16
-4.659108016e-16
-5.789226223e-16
-7.004292193e-16
-8.264023151e-16
-9.516819703e-16
-1.070680482e-15
-1.174656673e-15
-1.259003595e-15
-1.315870403e-15
-1.335026115e-15
-1.320998861e-15
-1.272437041e-15
-1.184498782e-15
-1.065164583e-15
-9.243799815e-16
-7.677058721e-16
-6.02594595e-16
-4.355977937e-16
-2.732626446e-16
-1.22889926e-16
1.719340205e-17
1.184631886e-16
1.942798277e-16
2.677670664e-16
3.237171983e-16
3.744645131e-16
4.151870822e-16
4.373814856e-16
4.463420863e-16
4.538720271e-16
4.510789063e-16
4.380413204e-16
4.34978296e-16
4.375860521e-16
4.473132514e-16
4.615493009e-16
4.705688176e-16
4.714426912e-16
4.656648868e-16
4.582976274e-16
4.507623952e-16
4.500397789e-16
4.574419977e-16
4.630172041e-16
4.633037631e-16
4.69040985e-16
4.754901544e-16
4.767181167e-16
4.81338413e-16
4.903861189e-16
4.999559882e-16
5.094641649e-16
5.174196209e-16
5.206353118e-16
5.204204692e-16
5.169659813e-16
5.110324213e-16
5.113234076e-16
5.160289088e-16
5.207265914e-16
5.251081374e-16
5.242135205e-16
5.193585745e-16
5.156694474e-16
5.148320692e-16
5.118695122e-16
5.044466247e-16
4.957791049e-16
4.882707961e-16
4.794347962e-16
4.650490815e-16
4.449893295e-16
4.246316077e-16
4.129246463e-16
3.981983301e-16
3.704394104e-16
3.428729362e-16
3.195713367e-16
2.976777078e-16
2.710752558e-16
2.408900528e-16
2.127600968e-16
1.858077517e-16
1.684675544e-16
1.685456525e-16
-4.403719103e-16
-1.490981456e-15
-3.349076932e-15
-5.757637318e-15
-6.798274698e-15
)


101
(
4.042198325e-21
-1.269567092e-19
-1.606099118e-18
-7.463450861e-18
-2.12032155e-17
-4.518837018e-17
-8.122148666e-17
-1.307694726e-16
-1.946078335e-16
-2.735292165e-16
-3.675502016e-16
-4.759085246e-16
-5.979391162e-16
-7.321869146e-16
-8.753122986e-16
-1.022732497e-15
-1.169193438e-15
-1.30587918e-15
-1.427920827e-15
-1.526095374e-15
-1.588098119e-15
-1.616664846e-15
-1.607765458e-15
-1.554120074e-15
-1.461740828e-15
-1.33932063e-15
-1.192069978e-15
-1.027206367e-15
-8.506966598e-16
-6.692697133e-16
-4.924611715e-16
-3.206256351e-16
-1.904405593e-16
-8.659139109e-17
1.732399133e-17
9.973280199e-17
1.747583349e-16
2.385790666e-16
2.816872074e-16
3.120846058e-16
3.442957013e-16
3.613870736e-16
3.583697262e-16
3.607829192e-16
3.659499299e-16
3.795610503e-16
4.030137732e-16
4.258670326e-16
4.405176207e-16
4.473501126e-16
4.502629605e-16
4.455394191e-16
4.471291386e-16
4.623477345e-16
4.798530332e-16
4.888567059e-16
5.056591641e-16
5.252000416e-16
5.359905419e-16
5.491198595e-16
5.692719668e-16
5.9489392e-16
6.200864178e-16
6.431679206e-16
6.622639998e-16
6.793496206e-16
6.889961081e-16
6.92694354e-16
7.00048779e-16
7.126317163e-16
7.305927259e-16
7.543911262e-16
7.749016744e-16
7.860043491e-16
7.942436882e-16
8.037365972e-16
8.117533308e-16
8.20271357e-16
8.267007778e-16
8.319019936e-16
8.348847074e-16
8.30285744e-16
8.178808523e-16
7.961578133e-16
7.869697184e-16
7.864043453e-16
7.592357249e-16
7.175077919e-16
6.83765581e-16
6.591080942e-16
6.199986443e-16
5.682797687e-16
5.196059839e-16
4.69422217e-16
4.398772369e-16
4.487777717e-16
-1.316585917e-15
-4.171553669e-15
-8.266712816e-15
-1.342227181e-14
-1.567138202e-14
)


101
(
4.459123974e-21
-1.166181811e-19
-1.518572653e-18
-7.131265421e-18
-2.041843292e-17
-4.384278871e-17
-7.937334388e-17
-1.287513527e-16
-1.931530624e-16
-2.738958299e-16
-3.716097241e-16
-4.861052289e-16
-6.174004267e-16
-7.648595594e-16
-9.259412336e-16
-1.096803733e-15
-1.272730499e-15
-1.445045693e-15
-1.608978561e-15
-1.753940042e-15
-1.865846266e-15
-1.946047576e-15
-1.987652782e-15
-1.980728644e-15
-1.928634761e-15
-1.838159614e-15
-1.713757668e-15
-1.56210813e-15
-1.388136202e-15
-1.197746917e-15
-1.001732484e-15
-8.022002978e-16
-6.454043259e-16
-5.141319762e-16
-3.78286776e-16
-2.670852096e-16
-1.656817738e-16
-7.822031264e-17
-1.514885335e-17
3.610674032e-17
9.54758022e-17
1.382826942e-16
1.528395033e-16
1.674142005e-16
1.770277583e-16
1.918610734e-16
2.208245883e-16
2.551620751e-16
2.84745503e-16
3.088564873e-16
3.269145195e-16
3.267981189e-16
3.304307866e-16
3.52243588e-16
3.80441609e-16
4.002265049e-16
4.307740029e-16
4.698465448e-16
4.971699775e-16
5.198379712e-16
5.523159354e-16
6.008985854e-16
6.483570955e-16
6.893394175e-16
7.340346717e-16
7.786316456e-16
8.150606175e-16
8.387814337e-16
8.580522311e-16
8.876241551e-16
9.241199874e-16
9.74080141e-16
1.029780295e-15
1.077253544e-15
1.118920872e-15
1.150114007e-15
1.178012435e-15
1.216058855e-15
1.253172107e-15
1.295379821e-15
1.333447887e-15
1.352956642e-15
1.365743058e-15
1.365749043e-15
1.3705248e-15
1.395020768e-15
1.396434196e-15
1.356129968e-15
1.308410292e-15
1.296889402e-15
1.25265674e-15
1.184918135e-15
1.11688488e-15
1.026488179e-15
9.840590094e-16
1.026706301e-15
-3.272496948e-15
-9.859034358e-15
-1.768884902e-14
-2.835445095e-14
-3.368244718e-14
)


101
(
4.821317234e-21
-1.068740839e-19
-1.43457455e-18
-6.809671122e-18
-1.965381677e-17
-4.252458112e-17
-7.75568726e-17
-1.267631446e-16
-1.917179735e-16
-2.742630259e-16
-3.756891934e-16
-4.964255052e-16
-6.372017081e-16
-7.983033257e-16
-9.781034514e-16
-1.173655032e-15
-1.381002415e-15
-1.591816465e-15
-1.801718668e-15
-1.998999873e-15
-2.168192074e-15
-2.309695705e-15
-2.413571354e-15
-2.467158005e-15
-2.470832054e-15
-2.428437493e-15
-2.342959841e-15
-2.220530432e-15
-2.065118447e-15
-1.881210402e-15
-1.678999107e-15
-1.460150978e-15
-1.282463558e-15
-1.127789656e-15
-9.615756386e-16
-8.218880811e-16
-6.939373697e-16
-5.841357163e-16
-5.042795551e-16
-4.366306929e-16
-3.518543145e-16
-2.803490135e-16
-2.431943054e-16
-2.108449411e-16
-1.930983407e-16
-1.771717728e-16
-1.485733842e-16
-1.094810883e-16
-6.720513763e-17
-2.705246858e-17
7.057628811e-18
1.54567496e-17
2.074259614e-17
4.392398782e-17
7.869116202e-17
1.076401705e-16
1.513859152e-16
2.128859878e-16
2.637540457e-16
3.044105607e-16
3.488069213e-16
4.17196372e-16
4.888678059e-16
5.52621772e-16
6.333550885e-16
7.19144795e-16
7.939216413e-16
8.482525596e-16
8.952783621e-16
9.544886985e-16
1.015913288e-15
1.100697664e-15
1.201647544e-15
1.303724252e-15
1.416638686e-15
1.506109477e-15
1.572447776e-15
1.644026213e-15
1.73158318e-15
1.847832325e-15
1.954336429e-15
2.036448007e-15
2.103319778e-15
2.148439829e-15
2.202944063e-15
2.284265729e-15
2.347941736e-15
2.350363759e-15
2.301147976e-15
2.325297419e-15
2.296465911e-15
2.222282825e-15
2.15156498e-15
2.006199902e-15
1.954596771e-15
2.085832891e-15
-7.068987393e-15
-2.044490978e-14
-3.38120955e-14
-4.849268266e-14
-5.421199286e-14
)


101
(
5.131767173e-21
-9.770422124e-20
-1.354009767e-18
-6.498404169e-18
-1.890873228e-17
-4.123217335e-17
-7.57681807e-17
-1.247980435e-16
-1.902912641e-16
-2.74607043e-16
-3.797375194e-16
-5.067918259e-16
-6.572405413e-16
-8.323763347e-16
-1.031608715e-15
-1.253016201e-15
-1.49362416e-15
-1.745696465e-15
-2.005434372e-15
-2.260606497e-15
-2.494801053e-15
-2.707831593e-15
-2.886518392e-15
-3.015509411e-15
-3.092497068e-15
-3.116891569e-15
-3.089155995e-15
-3.015296606e-15
-2.898605962e-15
-2.741451301e-15
-2.551829833e-15
-2.328608412e-15
-2.141306388e-15
-1.971883941e-15
-1.781683848e-15
-1.618135398e-15
-1.466403901e-15
-1.337584708e-15
-1.247280797e-15
-1.17027799e-15
-1.06611276e-15
-9.713271838e-16
-9.120447209e-16
-8.5659119e-16
-8.26915132e-16
-8.122809616e-16
-7.927185962e-16
-7.573161669e-16
-7.094848506e-16
-6.625369781e-16
-6.181396311e-16
-5.995740847e-16
-5.946948015e-16
-5.767621721e-16
-5.38664126e-16
-5.110542992e-16
-4.663001115e-16
-3.835796486e-16
-3.022898582e-16
-2.402704463e-16
-1.858795516e-16
-1.045705017e-16
-1.492672294e-17
8.337640887e-17
1.993136306e-16
3.273900507e-16
4.666619374e-16
5.742303448e-16
6.663565818e-16
7.619878591e-16
8.599319717e-16
9.927530763e-16
1.1470733e-15
1.321435006e-15
1.539758336e-15
1.755953078e-15
1.901765448e-15
2.024763438e-15
2.187903242e-15
2.39647847e-15
2.627354003e-15
2.852877806e-15
3.023600601e-15
3.154391856e-15
3.307286894e-15
3.495061865e-15
3.677510999e-15
3.795927989e-15
3.79183643e-15
3.871272767e-15
3.906239644e-15
3.849815641e-15
3.800544401e-15
3.605870059e-15
3.533711663e-15
3.801958308e-15
-1.363508838e-14
-3.811618279e-14
-5.937565746e-14
-8.307948393e-14
-9.283825794e-14
)


101
(
5.39331461e-21
-8.908011743e-20
-1.276785331e-18
-6.197220814e-18
-1.818259587e-17
-3.996414348e-17
-7.400364107e-17
-1.228490539e-16
-1.888618344e-16
-2.749074713e-16
-3.837071468e-16
-5.171258572e-16
-6.774112796e-16
-8.669299163e-16
-1.086255398e-15
-1.334602688e-15
-1.610195273e-15
-1.906180201e-15
-2.219313699e-15
-2.537876126e-15
-2.845050168e-15
-3.140111211e-15
-3.406685291e-15
-3.626702273e-15
-3.796068967e-15
-3.908779537e-15
-3.961160626e-15
-3.959106843e-15
-3.905569957e-15
-3.799890426e-15
-3.64688394e-15
-3.441565724e-15
-3.263659186e-15
-3.0947122e-15
-2.893425279e-15
-2.716940956e-15
-2.548914849e-15
-2.40642199e-15
-2.312960493e-15
-2.238477917e-15
-2.129208644e-15
-2.02319827e-15
-1.949554478e-15
-1.873907825e-15
-1.832745177e-15
-1.82222289e-15
-1.820251622e-15
-1.803965424e-15
-1.768013263e-15
-1.728396743e-15
-1.686328513e-15
-1.66719043e-15
-1.668727708e-15
-1.667280689e-15
-1.63764007e-15
-1.62428287e-15
-1.593627775e-15
-1.506557914e-15
-1.404177884e-15
-1.317096999e-15
-1.251213624e-15
-1.171475284e-15
-1.07896371e-15
-9.49944285e-16
-8.020231621e-16
-6.208059744e-16
-4.0350291e-16
-2.256993239e-16
-7.780241119e-17