/*--------------------------------*- C++ -*----------------------------------*\
| =========                 |                                                 |
| \\      /  F ield         | OpenFOAM: The Open Source CFD Toolbox           |
|  \\    /   O peration     | Version:  2.3.1                                 |
|   \\  /    A nd           | Web:      www.OpenFOAM.org                      |
|    \\/     M anipulation  |                                                 |
\*---------------------------------------------------------------------------*/
FoamFile
{
    version     2.0;
    format      ascii;
    class       dictionary;
    location    "constant";
    object      DPSI7;
}
// * * * * * * * * * * * * * * * * * * * * * * * * * * * * * * * * * * * * * //

DPSI7_table
101
(

101
(
-2.509385204e-09
-3.790488788e-09
-5.354827382e-09
-5.525109155e-09
-5.154760365e-09
-4.580395252e-09
-3.899151198e-09
-3.165303337e-09
-2.425916115e-09
-1.683028755e-09
-9.419666051e-10
-2.281448976e-10
4.667067739e-10
1.120002855e-09
1.691661631e-09
2.17539301e-09
2.55216223e-09
2.795209419e-09
2.906395639e-09
2.902693485e-09
2.804664703e-09
2.626117381e-09
2.393030394e-09
2.144163988e-09
1.892218094e-09
1.648457248e-09
1.422583324e-09
1.216534669e-09
1.033519157e-09
8.756509703e-10
7.41279655e-10
6.326490377e-10
5.306389137e-10
4.42060207e-10
3.768952681e-10
2.951594153e-10
2.064663691e-10
2.004029901e-10
2.143369302e-10
1.81793334e-10
1.570930199e-10
1.363322309e-10
1.174117529e-10
1.024042053e-10
8.929316968e-11
7.774064783e-11
6.783117849e-11
5.916704295e-11
5.177410528e-11
4.530500784e-11
3.978363076e-11
3.488926792e-11
3.061279797e-11
2.688764204e-11
2.366654866e-11
2.064618603e-11
1.80624929e-11
1.585316157e-11
1.381727773e-11
1.207895556e-11
1.049629492e-11
9.145055646e-12
7.93062686e-12
6.814937551e-12
5.866683803e-12
5.048163745e-12
4.302718893e-12
3.639085583e-12
3.067518371e-12
2.571068618e-12
2.137391526e-12
1.763659517e-12
1.439259809e-12
1.049776546e-12
7.662929573e-13
7.346058128e-13
6.581438589e-13
5.070985482e-13
3.904719696e-13
2.965351222e-13
2.171466837e-13
1.561790741e-13
1.001743412e-13
6.439682328e-14
5.609113836e-14
4.305955008e-14
2.820404828e-14
1.800877238e-14
9.824480608e-15
6.038714392e-15
5.144944813e-15
2.973071707e-15
1.561561976e-15
8.728754143e-16
5.297972461e-16
3.361597552e-16
1.065600659e-16
-2.356084872e-23
9.819782085e-34
6.920711088e-34
-2.180084868e-33
)


101
(
-2.47282525e-09
-3.741023607e-09
-5.299031084e-09
-5.484902597e-09
-5.131218007e-09
-4.57295782e-09
-3.908631003e-09
-3.191826964e-09
-2.468134876e-09
-1.740975266e-09
-1.014615804e-09
-3.11917342e-10
3.721662284e-10
1.019948562e-09
1.595010394e-09
2.087435307e-09
2.479802671e-09
2.748702098e-09
2.888435288e-09
2.913651377e-09
2.843897212e-09
2.689787991e-09
2.47600729e-09
2.237844552e-09
1.991350628e-09
1.748699761e-09
1.52005951e-09
1.309314297e-09
1.119658301e-09
9.536132537e-10
8.108158982e-10
6.929798476e-10
5.87554979e-10
4.943450242e-10
4.206064903e-10
3.438931908e-10
2.601077461e-10
2.209691822e-10
2.172943233e-10
1.996323758e-10
1.756273762e-10
1.531013391e-10
1.325463295e-10
1.152031459e-10
1.00454896e-10
8.767736773e-11
7.668616613e-11
6.713277572e-11
5.886636577e-11
5.166385563e-11
4.542923596e-11
3.997861484e-11
3.523284793e-11
3.108387089e-11
2.741646846e-11
2.408249537e-11
2.112940543e-11
1.856931408e-11
1.629363745e-11
1.429668942e-11
1.252171758e-11
1.096153474e-11
9.585048861e-12
8.344556761e-12
7.230463019e-12
6.253603219e-12
5.398491871e-12
4.637937912e-12
3.961502301e-12
3.361280805e-12
2.836306022e-12
2.381698327e-12
1.993804844e-12
1.618251173e-12
1.265672881e-12
1.028268438e-12
8.667690953e-13
7.137309803e-13
5.728687436e-13
4.506934197e-13
3.46964147e-13
2.623342635e-13
1.917977645e-13
1.348474965e-13
9.593710926e-14
6.974852413e-14
5.028749574e-14
3.515788235e-14
2.318495557e-14
1.485370556e-14
9.598662571e-15
6.20187034e-15
3.986235077e-15
2.37304062e-15
1.409898097e-15
1.06042657e-15
4.914429845e-16
-1.6698549e-17
-1.273855375e-16
-2.366443092e-16
-2.476858224e-16
)


101
(
-2.436360178e-09
-3.691659998e-09
-5.243270502e-09
-5.444781566e-09
-5.108136527e-09
-4.566486057e-09
-3.919623567e-09
-3.22053108e-09
-2.513340632e-09
-1.802618688e-09
-1.091732397e-09
-4.010576899e-10
2.717615892e-10
9.129690143e-10
1.490008565e-09
1.990280898e-09
2.397311061e-09
2.69072623e-09
2.85913932e-09
2.914049007e-09
2.873904327e-09
2.746052984e-09
2.553871603e-09
2.329720637e-09
2.091121815e-09
1.851575005e-09
1.621940739e-09
1.407569883e-09
1.21220021e-09
1.038678841e-09
8.875638051e-10
7.606816219e-10
6.494469856e-10
5.517159391e-10
4.713530974e-10
3.93811792e-10
3.131574724e-10
2.571642534e-10
2.33538008e-10
2.161766865e-10
1.952464625e-10
1.727552195e-10
1.508691441e-10
1.31536401e-10
1.148324561e-10
1.004184696e-10
8.809406416e-11
7.745705861e-11
6.822419205e-11
6.01651494e-11
5.313025437e-11
4.695622631e-11
4.155492149e-11
3.685157247e-11
3.271961028e-11
2.90080284e-11
2.567509162e-11
2.27111593e-11
2.008631794e-11
1.776624079e-11
1.57056282e-11
1.389060893e-11
1.227315579e-11
1.081242026e-11
9.498554348e-12
8.33618522e-12
7.309482397e-12
6.386466111e-12
5.563466166e-12
4.825304357e-12
4.163882492e-12
3.571857887e-12
3.054425918e-12
2.599872535e-12
2.172942817e-12
1.797136461e-12
1.488296588e-12
1.231197993e-12
1.014297898e-12
8.277892421e-13
6.664138455e-13
5.295231562e-13
4.144967763e-13
3.185265171e-13
2.396399914e-13
1.75056399e-13
1.260413864e-13
9.27239861e-14
6.703987062e-14
4.688177042e-14
3.252254579e-14
2.132038201e-14
1.38667711e-14
9.284489568e-15
6.016632435e-15
5.12520032e-15
2.072718508e-15
-1.293629123e-15
-2.618498068e-15
-3.856762238e-15
-3.953923277e-15
)


101
(
-2.399990163e-09
-3.642396228e-09
-5.187537262e-09
-5.404721867e-09
-5.085468008e-09
-4.560906156e-09
-3.932023008e-09
-3.251270792e-09
-2.561347723e-09
-1.867758051e-09
-1.173097655e-09
-4.953329331e-10
1.656668445e-10
7.992741089e-10
1.376829937e-09
1.883899329e-09
2.30453208e-09
2.621076143e-09
2.817901828e-09
2.903043116e-09
2.893646251e-09
2.793773482e-09
2.625386702e-09
2.418377592e-09
2.190411546e-09
1.956187189e-09
1.727513646e-09
1.51091229e-09
1.310916887e-09
1.130820421e-09
9.717916316e-10
8.360611688e-10
7.174551608e-10
6.142400865e-10
5.291914008e-10
4.482132006e-10
3.673475648e-10
3.030254192e-10
2.627632244e-10
2.376993602e-10
2.165821644e-10
1.946024434e-10
1.721949923e-10
1.513803733e-10
1.326915274e-10
1.163475283e-10
1.023633098e-10
9.038773948e-11
8.005227946e-11
7.103111799e-11
6.312505576e-11
5.611872739e-11
4.995277605e-11
4.456445898e-11
3.982236319e-11
3.562149013e-11
3.187625558e-11
2.847753277e-11
2.543833182e-11
2.273007478e-11
2.029821388e-11
1.814781088e-11
1.622747361e-11
1.449622664e-11
1.294069363e-11
1.154268909e-11
1.029144903e-11
9.146430998e-12
8.104993404e-12
7.180070796e-12
6.345264214e-12
5.575446999e-12
4.877308347e-12
4.264973458e-12
3.706178554e-12
3.189786271e-12
2.722215239e-12
2.30481195e-12
1.93788819e-12
1.619508707e-12
1.348183586e-12
1.115127209e-12
9.121436635e-13
7.382005124e-13
5.885753139e-13
4.59233066e-13
3.457725634e-13
2.576967963e-13
1.968390966e-13
1.476695272e-13
1.061001958e-13
7.273748095e-14
5.001532337e-14
3.512692214e-14
2.458280542e-14
2.239448296e-14
6.184626301e-15
-1.291893498e-14
-2.43643486e-14
-3.66991069e-14
-3.931555051e-14
)


101
(
-2.36371547e-09
-3.593230631e-09
-5.131823126e-09
-5.364699688e-09
-5.063165196e-09
-4.556145704e-09
-3.94572675e-09
-3.283906663e-09
-2.611977435e-09
-1.936201722e-09
-1.258503067e-09
-5.945269464e-10
5.404563307e-11
6.790592254e-10
1.255637711e-09
1.76828737e-09
2.201334531e-09
2.539501896e-09
2.764120706e-09
2.8797897e-09
2.902059971e-09
2.831695132e-09
2.689174913e-09
2.502248478e-09
2.287828274e-09
2.061445093e-09
1.835879229e-09
1.618693911e-09
1.415363759e-09
1.229822393e-09
1.063623951e-09
9.194779118e-10
7.925987979e-10
6.824398742e-10
5.909107525e-10
5.076751864e-10
4.270251695e-10
3.559774841e-10
3.031757413e-10
2.677810254e-10
2.422208071e-10
2.192326141e-10
1.963739052e-10
1.745825614e-10
1.542254556e-10
1.359020602e-10
1.200081459e-10
1.063935029e-10
9.47080893e-11
8.455893751e-11
7.568964109e-11
6.777510903e-11
6.072621916e-11
5.452352654e-11
4.909745079e-11
4.42638102e-11
3.996806625e-11
3.609738675e-11
3.261203979e-11
2.948042673e-11
2.660249574e-11
2.403360433e-11
2.17265797e-11
1.964257638e-11
1.780212695e-11
1.614639841e-11
1.461688988e-11
1.319597379e-11
1.188388936e-11
1.072546251e-11
9.682990024e-12
8.694768625e-12
7.768924074e-12
6.930346677e-12
6.173578001e-12
5.480189662e-12
4.824439552e-12
4.20534735e-12
3.641231035e-12
3.124441635e-12
2.670501602e-12
2.275757736e-12
1.922917489e-12
1.61413482e-12
1.341755895e-12
1.09976064e-12
8.785286509e-13
6.780879196e-13
5.252728095e-13
4.148158224e-13
3.19555949e-13
2.35716775e-13
1.666689048e-13
1.163728244e-13
8.665399065e-14
8.010028481e-14
7.538538299e-15
-7.618453918e-14
-1.328497359e-13
-1.852593094e-13
-1.886616763e-13
)


101
(
-2.327536391e-09
-3.544161611e-09
-5.076120012e-09
-5.324691586e-09
-5.041181549e-09
-4.552133593e-09
-3.960637403e-09
-3.31830926e-09
-2.665066046e-09
-2.007778927e-09
-1.347778517e-09
-6.984655649e-10
-6.298600668e-11
5.524456894e-10
1.126547155e-09
1.643404219e-09
2.087536221e-09
2.445740257e-09
2.69722287e-09
2.843415045e-09
2.898051002e-09
2.858542177e-09
2.74381538e-09
2.57974177e-09
2.381846815e-09
2.166031149e-09
1.945961719e-09
1.730113594e-09
1.524952513e-09
1.335132361e-09
1.162865806e-09
1.011183366e-09
8.757226304e-10
7.577323934e-10
6.593949844e-10
5.721460038e-10
4.904605269e-10
4.153577841e-10
3.531125342e-10
3.071733256e-10
2.744736138e-10
2.481317963e-10
2.238971657e-10
2.011913046e-10
1.795312729e-10
1.593935754e-10
1.414228237e-10
1.258189304e-10
1.124921816e-10
1.010430926e-10
9.1114806e-11
8.223696257e-11
7.422256887e-11
6.705740962e-11
6.079199561e-11
5.524476644e-11
5.031812421e-11
4.585398993e-11
4.183986973e-11
3.827606452e-11
3.491545698e-11
3.185923278e-11
2.910462169e-11
2.656508915e-11
2.433603632e-11
2.237757354e-11
2.057266965e-11
1.887710353e-11
1.722839158e-11
1.574191379e-11
1.445574424e-11
1.324393238e-11
1.20785639e-11
1.097276056e-11
9.952348604e-12
9.006550905e-12
8.120891582e-12
7.292853279e-12
6.497325082e-12
5.721761734e-12
4.9978005e-12
4.364339087e-12
3.79923791e-12
3.279608101e-12
2.814190034e-12
2.398216633e-12
2.011234143e-12
1.632722232e-12
1.298599358e-12
1.047807194e-12
8.455341551e-13
6.539077223e-13
4.967871474e-13
3.637303832e-13
2.746236271e-13
2.592680185e-13
8.598521906e-15
-2.996182007e-13
-6.83738019e-13
-1.05483683e-12
-1.091026059e-12
)


101
(
-2.291453323e-09
-3.495187681e-09
-5.020420001e-09
-5.284674468e-09
-5.019471148e-09
-4.548799726e-09
-3.976659213e-09
-3.354352082e-09
-2.720452361e-09
-2.082318746e-09
-1.440755337e-09
-8.069753013e-10
-1.853047507e-10
4.195552455e-10
9.896857361e-10
1.509245854e-09
1.962986824e-09
2.339548427e-09
2.616688186e-09
2.793077256e-09
2.880529775e-09
2.873007648e-09
2.787814594e-09
2.6491923e-09
2.470809815e-09
2.268426414e-09
2.056462063e-09
1.844167198e-09
1.638950113e-09
1.446288919e-09
1.269081234e-09
1.110866163e-09
9.671902896e-10
8.408465121e-10
7.351559123e-10
6.426088517e-10
5.585213941e-10
4.804077226e-10
4.112566509e-10
3.558556157e-10
3.148091528e-10
2.830067293e-10
2.558136519e-10
2.316072839e-10
2.087198513e-10
1.870027456e-10
1.66983619e-10
1.491413754e-10
1.338364536e-10
1.207834572e-10
1.096125701e-10
9.97177889e-11
9.070987362e-11
8.247939369e-11
7.520927566e-11
6.883002249e-11
6.318970347e-11
5.808351966e-11
5.346822421e-11
4.934069836e-11
4.544094968e-11
4.186910423e-11
3.863958403e-11
3.56139106e-11
3.288399661e-11
3.052560534e-11
2.841380651e-11
2.644069237e-11
2.450000299e-11
2.263984039e-11
2.097801201e-11
1.948413237e-11
1.80850826e-11
1.673478859e-11
1.543408662e-11
1.41747302e-11
1.300388372e-11
1.19432468e-11
1.090566972e-11
9.854216531e-12
8.80069211e-12
7.846609826e-12
7.00339447e-12
6.191334105e-12
5.44944684e-12
4.791704754e-12
4.173747344e-12
3.540972336e-12
2.915996914e-12
2.421174222e-12
2.037867333e-12
1.640402481e-12
1.290137875e-12
9.96643266e-13
8.119785035e-13
7.900199571e-13
-1.823170443e-13
-1.345668632e-12
-2.744176213e-12
-4.02443371e-12
-4.084313939e-12
)


101
(
-2.25546672e-09
-3.446307372e-09
-4.964715237e-09
-5.244626189e-09
-4.997991616e-09
-4.546081846e-09
-3.993707698e-09
-3.391911327e-09
-2.777971962e-09
-2.159655543e-09
-1.537271432e-09
-9.198933715e-10
-3.127891503e-10
2.805022676e-10
8.451746578e-10
1.365855104e-09
1.827598751e-09
2.22072196e-09
2.522058214e-09
2.727989075e-09
2.848436353e-09
2.873833202e-09
2.819729954e-09
2.708954392e-09
2.553020944e-09
2.366997762e-09
2.165870433e-09
1.959567376e-09
1.756340975e-09
1.562508281e-09
1.381683908e-09
1.21810114e-09
1.066967337e-09
9.322436142e-10
8.187178603e-10
7.198021603e-10
6.320131815e-10
5.509569735e-10
4.766253301e-10
4.133546651e-10
3.639467527e-10
3.252631266e-10
2.933918262e-10
2.665615849e-10
2.42035238e-10
2.188131266e-10
1.969504545e-10
1.76845175e-10
1.592568431e-10
1.442279596e-10
1.315370236e-10
1.204468547e-10
1.103570674e-10
1.010565694e-10
9.269198025e-11
8.526114594e-11
7.876984777e-11
7.297137739e-11
6.772932809e-11
6.303517668e-11
5.855168458e-11
5.439117281e-11
5.058805309e-11
4.701487442e-11
4.37341829e-11
4.088239077e-11
3.837193572e-11
3.608032126e-11
3.387536565e-11
3.166548752e-11
2.961715995e-11
2.778481721e-11
2.610826824e-11
2.451796103e-11
2.296395273e-11
2.139169503e-11
1.986778778e-11
1.85027177e-11
1.722672398e-11
1.595696979e-11
1.460538587e-11
1.32529632e-11
1.206222375e-11
1.091984973e-11
9.807054518e-12
8.82800348e-12
7.933209728e-12
6.978231856e-12
5.971171131e-12
5.088368382e-12
4.421409042e-12
3.74239144e-12
3.035828989e-12
2.464644631e-12
2.094682809e-12
2.087613357e-12
-9.599716278e-13
-4.674421152e-12
-9.155409523e-12
-1.32171186e-11
-1.337108946e-11
)


101
(
-2.219577127e-09
-3.397519368e-09
-4.908998071e-09
-5.204525112e-09
-4.976702746e-09
-4.543924751e-09
-4.011711796e-09
-3.430867902e-09
-2.837458326e-09
-2.239626578e-09
-1.637179141e-09
-1.03707544e-09
-4.453280064e-10
1.353959851e-10
6.931405767e-10
1.213302982e-09
1.681341689e-09
2.08912269e-09
2.412960134e-09
2.647435237e-09
2.800741405e-09
2.859783976e-09
2.838118197e-09
2.757319177e-09
2.626668568e-09
2.459973098e-09
2.272500206e-09
2.074794699e-09
1.875862347e-09
1.682791542e-09
1.49989266e-09
1.332250558e-09
1.174695227e-09
1.032067645e-09
9.10598263e-10
8.045328902e-10
7.118178406e-10
6.272506554e-10
5.486173773e-10
4.789810506e-10
4.218524698e-10
3.757095078e-10
3.378895574e-10
3.071212569e-10
2.80088594e-10
2.550492373e-10
2.313993079e-10
2.09096692e-10
1.890985109e-10
1.718651578e-10
1.573149397e-10
1.44696473e-10
1.334511809e-10
1.230598795e-10
1.134551253e-10
1.048536051e-10
9.739170134e-11
9.072722621e-11
8.473320952e-11
7.942668351e-11
7.436513926e-11
6.967206671e-11
6.529375545e-11
6.107616558e-11
5.712320092e-11
5.360932074e-11
5.06141109e-11
4.800930777e-11
4.562570785e-11
4.31669035e-11
4.072160637e-11
3.841680967e-11
3.631621936e-11
3.452198962e-11
3.280848711e-11
3.098657707e-11
2.912599924e-11
2.740960086e-11
2.588425742e-11
2.440488248e-11
2.280814232e-11
2.106684005e-11
1.948540036e-11
1.801414782e-11
1.65509426e-11
1.514651725e-11
1.390529367e-11
1.264003584e-11
1.116427832e-11
9.833894871e-12
8.798956447e-12
7.659220993e-12
6.403038206e-12
5.43430674e-12
4.762257308e-12
4.971215182e-12
-3.261186708e-12
-1.346052643e-11
-2.506340028e-11
-3.624680945e-11
-3.737986369e-11
)


101
(
-2.183785117e-09
-3.348822356e-09
-4.853261177e-09
-5.164350095e-09
-4.955564181e-09
-4.542272928e-09
-4.030603354e-09
-3.471107876e-09
-2.898745417e-09
-2.322064562e-09
-1.740327809e-09
-1.158376396e-09
-5.828045548e-10
-1.565121912e-11
5.33714882e-10
1.051683608e-09
1.524224595e-09
1.944660208e-09
2.289093226e-09
2.550777233e-09
2.736451703e-09
2.829634848e-09
2.841527108e-09
2.792495007e-09
2.689752179e-09
2.545380141e-09
2.374544275e-09
2.188243723e-09
1.996152437e-09
1.806058943e-09
1.622891646e-09
1.452642236e-09
1.28984553e-09
1.140208042e-09
1.011120839e-09
8.973412049e-10
7.985331369e-10
7.095587221e-10
6.268495943e-10
5.52092655e-10
4.884046404e-10
4.348855634e-10
3.902043575e-10
3.542360092e-10
3.235799216e-10
2.960790582e-10
2.704478281e-10
2.460436894e-10
2.237051259e-10
2.040279229e-10
1.871900091e-10
1.726856429e-10
1.600545392e-10
1.485254566e-10
1.37803596e-10
1.279247184e-10
1.193249113e-10
1.116603604e-10
1.046729142e-10
9.866224341e-11
9.299247663e-11
8.772843222e-11
8.281910618e-11
7.801184524e-11
7.341329855e-11
6.914865045e-11
6.548941256e-11
6.243377053e-11
5.974720929e-11
5.706862634e-11
5.433804094e-11
5.169985041e-11
4.920286881e-11
4.702324509e-11
4.508557795e-11
4.315516333e-11
4.108521553e-11
3.895364004e-11
3.7132605e-11
3.557977917e-11
3.379073836e-11
3.16953666e-11
2.968440495e-11
2.793007627e-11
2.628695037e-11
2.436606362e-11
2.270280508e-11
2.119424365e-11
1.925476934e-11
1.745460199e-11
1.596061169e-11
1.426749286e-11
1.236552179e-11
1.087619448e-11
9.925482641e-12
1.044251114e-11
-9.154795218e-12
-3.290242189e-11
-5.679539519e-11
-8.210115653e-11
-8.696750781e-11
)


101
(
-2.148091467e-09
-3.300215294e-09
-4.797497917e-09
-5.124081735e-09
-4.934537303e-09
-4.541069597e-09
-4.050309869e-09
-3.512529884e-09
-2.961694245e-09
-2.406806548e-09
-1.846546015e-09
-1.283626075e-09
-7.250766894e-10
-1.72505986e-10
3.670489776e-10
8.811303943e-10
1.356315512e-09
1.787313393e-09
2.150258391e-09
2.437491695e-09
2.654617729e-09
2.782029344e-09
2.828389571e-09
2.812673673e-09
2.740176219e-09
2.621094194e-09
2.470036916e-09
2.298160943e-09
2.115670083e-09
1.931014097e-09
1.749716645e-09
1.578610543e-09
1.411844138e-09
1.256217516e-09
1.120218083e-09
9.985780305e-10
8.927365489e-10
7.983921809e-10
7.113677207e-10
6.321640253e-10
5.630480362e-10
5.02733813e-10
4.508166241e-10
4.086632266e-10
3.732009294e-10
3.423621105e-10
3.144148065e-10
2.879395794e-10
2.632828363e-10
2.409851182e-10
2.215324999e-10
2.047178945e-10
1.903297344e-10
1.776336717e-10
1.658182432e-10
1.545211255e-10
1.446357721e-10
1.358408068e-10
1.277272116e-10
1.208509277e-10
1.145628464e-10
1.086757535e-10
1.031978476e-10
9.793974483e-11
9.284500148e-11
8.777124543e-11
8.319753459e-11
7.943228292e-11
7.632111376e-11
7.350497782e-11
7.063945021e-11
6.769619593e-11
6.475565601e-11
6.216404872e-11
6.00268142e-11
5.806355984e-11
5.583771206e-11
5.341703791e-11
5.129735354e-11
4.961468044e-11
4.775099565e-11
4.545802653e-11
4.304677741e-11
4.098949042e-11
3.941920452e-11
3.720390397e-11
3.494529105e-11
3.317484747e-11
3.081795356e-11
2.863128173e-11
2.679835738e-11
2.443840598e-11
2.178078559e-11
1.963951802e-11
1.86375256e-11
2.024896057e-11
-2.156801546e-11
-7.091057287e-11
-1.105097832e-10
-1.472054037e-10
-1.500603133e-10
)


101
(
-2.112496934e-09
-3.251697103e-09
-4.741701623e-09
-5.083700726e-09
-4.913583696e-09
-4.540258213e-09
-4.070759664e-09
-3.555036462e-09
-3.026176305e-09
-2.493691872e-09
-1.955655114e-09
-1.412645172e-09
-8.71986357e-10
-3.350242741e-10
1.933020337e-10
7.018053865e-10
1.177739769e-09
1.617120421e-09
1.996317837e-09
2.307152929e-09
2.554412249e-09
2.715667597e-09
2.797135913e-09
2.816046069e-09
2.775814614e-09
2.684924981e-09
2.55690451e-09
2.402611784e-09
2.232640953e-09
2.056080772e-09
1.879041073e-09
1.70914549e-09
1.539908929e-09
1.379447628e-09
1.237540435e-09
1.10840909e-09
9.950444955e-10
8.943815907e-10
8.023566592e-10
7.187863625e-10
6.450677178e-10
5.78837886e-10
5.198453032e-10
4.708967938e-10
4.296265872e-10
3.944800695e-10
3.63630214e-10
3.348861514e-10
3.078900025e-10
2.829400484e-10
2.607086687e-10
2.41202795e-10
2.246233716e-10
2.104308289e-10
1.972494978e-10
1.84615636e-10
1.735386163e-10
1.63529647e-10
1.541203168e-10
1.460429688e-10
1.389958351e-10
1.325229543e-10
1.26523562e-10
1.207530777e-10
1.151701916e-10
1.096017652e-10
1.041351408e-10
9.933409888e-11
9.554478281e-11
9.240088045e-11
8.945079246e-11
8.642228728e-11
8.320544466e-11
8.0200109e-11
7.774362344e-11
7.565575067e-11
7.332718346e-11
7.089370129e-11
6.862437886e-11
6.665696006e-11
6.479991087e-11
6.250040735e-11
5.975688162e-11
5.745350187e-11
5.614678882e-11
5.401415956e-11
5.107861777e-11
4.879241332e-11
4.645702186e-11
4.415219597e-11
4.178505767e-11
3.885704541e-11
3.557303532e-11
3.257763512e-11
3.152137588e-11
3.471753188e-11
-4.2489294e-11
-1.323322288e-10
-1.93497207e-10
-2.520326206e-10
-2.591633802e-10
)


101
(
-2.077002406e-09
-3.203266907e-09
-4.685865884e-09
-5.043187904e-09
-4.892664569e-09
-4.539780523e-09
-4.091880489e-09
-3.598539251e-09
-3.09207131e-09
-2.582553197e-09
-2.067470507e-09
-1.545252689e-09
-1.023364226e-09
-5.03047783e-10
1.264690595e-11
5.138808964e-10
9.886499715e-10
1.434172916e-09
1.827207604e-09
2.159488358e-09
2.435251598e-09
2.629538812e-09
2.746421089e-09
2.801081286e-09
2.79485501e-09
2.734646817e-09
2.632693197e-09
2.499184236e-09
2.344841638e-09
2.179276262e-09
2.009095316e-09
1.84269767e-09
1.672845533e-09
1.509043234e-09
1.362519105e-09
1.226737316e-09
1.105911789e-09
9.982160212e-10
9.001463225e-10
8.117016122e-10
7.338354464e-10
6.626212151e-10
5.971768325e-10
5.413366807e-10
4.93541526e-10
4.530177281e-10
4.183167086e-10
3.868503374e-10
3.5745037e-10
3.299020559e-10
3.048567223e-10
2.823873092e-10
2.631568606e-10
2.469295936e-10
2.322413148e-10
2.182687763e-10
2.059829353e-10
1.947625667e-10
1.839420289e-10
1.744616044e-10
1.663487371e-10
1.591463889e-10
1.525942262e-10
1.464443801e-10
1.403325686e-10
1.342750076e-10
1.282481391e-10
1.224177012e-10
1.176912571e-10
1.139475237e-10
1.106944543e-10
1.077557006e-10
1.045891993e-10
1.012893082e-10
9.834308484e-11
9.595297567e-11
9.366904751e-11
9.12546366e-11
8.896786819e-11
8.70276049e-11
8.517725955e-11
8.292350752e-11
8.015527459e-11
7.751027436e-11
7.625073222e-11
7.485427724e-11
7.176806574e-11
6.868463277e-11
6.633630863e-11
6.430158686e-11
6.141159775e-11
5.776055788e-11
5.418162021e-11
5.046554953e-11
4.933018101e-11
5.440187782e-11
-7.602818327e-11
-2.247084566e-10
-3.069731514e-10
-3.823893358e-10
-3.894166902e-10
)


101
(
-2.041608895e-09
-3.154923951e-09
-4.629984365e-09
-5.002524289e-09
-4.871741071e-09
-4.539574839e-09
-4.113595103e-09
-3.642967265e-09
-3.159287407e-09
-2.67320644e-09
-2.181780579e-09
-1.681261287e-09
-1.179009687e-09
-6.763769002e-10
-1.747232743e-10
3.175070615e-10
7.891345861e-10
1.238542707e-09
1.642946666e-09
1.994430205e-09
2.296884097e-09
2.522992988e-09
2.675046708e-09
2.766120074e-09
2.795346826e-09
2.76801485e-09
2.694913376e-09
2.585306194e-09
2.449800887e-09
2.298353659e-09
2.137864944e-09
1.977448914e-09
1.809098845e-09
1.643809375e-09
1.494333078e-09
1.353177446e-09
1.225445043e-09
1.110327233e-09
1.005167085e-09
9.109441317e-10
8.288399621e-10
7.533325396e-10
6.823267761e-10
6.200385217e-10
5.654231912e-10
5.186045784e-10
4.78929691e-10
4.439139103e-10
4.11753284e-10
3.816919422e-10
3.54017604e-10
3.283746676e-10
3.060423605e-10
2.873596193e-10
2.709270013e-10
2.553205695e-10
2.416596702e-10
2.292830136e-10
2.170934581e-10
2.060951308e-10
1.966636453e-10
1.88641582e-10
1.813700447e-10
1.745925712e-10
1.680782162e-10
1.618181022e-10
1.553573272e-10
1.488216605e-10
1.430451878e-10
1.38268042e-10
1.34446793e-10
1.314928644e-10
1.286694127e-10
1.255004445e-10
1.223432318e-10
1.194529735e-10
1.167574679e-10
1.145137899e-10
1.125295959e-10
1.107611593e-10
1.090354841e-10
1.069744277e-10
1.045372053e-10
1.016197535e-10
1.000900267e-10
9.966801972e-11
9.719160498e-11
9.349380252e-11
9.071670513e-11
8.913895089e-11
8.617716522e-11
8.192656411e-11
7.788442781e-11
7.346808274e-11
7.246977043e-11
7.915137982e-11
-1.228465048e-10
-3.488846947e-10
-4.499894164e-10
-5.436575908e-10
-5.546420669e-10
)


101
(
-2.006317482e-09
-3.106667536e-09
-4.5740508e-09
-4.961690819e-09
-4.850774484e-09
-4.539579905e-09
-4.135824946e-09
-3.68824906e-09
-3.227743461e-09
-2.765473772e-09
-2.298366069e-09
-1.820480167e-09
-1.338715767e-09
-8.547960992e-10
-3.685909925e-10
1.128699102e-10
5.793118411e-10
1.030333369e-09
1.443573529e-09
1.811945062e-09
2.13917986e-09
2.39558132e-09
2.58203921e-09
2.709623341e-09
2.775318561e-09
2.782755837e-09
2.741125829e-09
2.658499119e-09
2.545039773e-09
2.410850919e-09
2.263040677e-09
2.111393258e-09
1.94696294e-09
1.782265575e-09
1.631730364e-09
1.486810317e-09
1.353215667e-09
1.230795766e-09
1.117803037e-09
1.01675214e-09
9.297756663e-10
8.501662265e-10
7.744624478e-10
7.066019393e-10
6.453605274e-10
5.916909905e-10
5.460469318e-10
5.064231385e-10
4.708789538e-10
4.381794235e-10
4.078947051e-10
3.789963262e-10
3.53302925e-10
3.316939388e-10
3.129438034e-10
2.954735173e-10
2.803107452e-10
2.668905107e-10
2.535502329e-10
2.40886387e-10
2.298537179e-10
2.208918758e-10
2.127954845e-10
2.051035963e-10
1.982417602e-10
1.918307455e-10
1.852669807e-10
1.782774217e-10
1.714776981e-10
1.658072901e-10
1.611467274e-10
1.577701963e-10
1.551516622e-10
1.525193971e-10
1.498366808e-10
1.466590088e-10
1.433871999e-10
1.410322881e-10
1.392478324e-10
1.381667484e-10
1.370572499e-10
1.35138605e-10
1.330657488e-10
1.305928643e-10
1.28811773e-10
1.28648745e-10
1.274587741e-10
1.239609724e-10
1.202563154e-10
1.192370414e-10
1.16365838e-10
1.121148704e-10
1.078615327e-10
1.02065374e-10
1.01098275e-10
1.101688428e-10
-1.801080421e-10
-5.014192937e-10
-6.203525517e-10
-7.405217642e-10
-7.65376542e-10
)


101
(
-1.971129424e-09
-3.058497136e-09
-4.518059103e-09
-4.92066831e-09
-4.829725138e-09
-4.539734743e-09
-4.158490801e-09
-3.734313116e-09
-3.297367428e-09
-2.85920809e-09
-2.416989968e-09
-1.962683167e-09
-1.502295129e-09
-1.038109739e-09
-5.687394599e-10
-9.977131241e-11
3.594519375e-10
8.098170974e-10
1.229449319e-09
1.612242228e-09
1.961952944e-09
2.246688753e-09
2.466366778e-09
2.630191593e-09
2.732909698e-09
2.776630083e-09
2.768900124e-09
2.716258278e-09
2.628023275e-09
2.514175615e-09
2.382043709e-09
2.242216333e-09
2.084448595e-09
1.922655407e-09
1.773160102e-09
1.626339087e-09
1.488369044e-09
1.359337144e-09
1.238257399e-09
1.129417818e-09
1.036607047e-09
9.525965764e-10
8.72640361e-10
8.000835025e-10
7.328932541e-10
6.723854412e-10
6.200111297e-10
5.747366496e-10
5.350233196e-10
4.991022292e-10
4.659967074e-10
4.340356215e-10
4.048686177e-10
3.798256481e-10
3.582247999e-10
3.384890032e-10
3.21564034e-10
3.070406932e-10
2.92801238e-10
2.788836884e-10
2.660875126e-10
2.55624685e-10
2.464106585e-10
2.377577594e-10
2.305895835e-10
2.24182292e-10
2.176012539e-10
2.103173694e-10
2.030188165e-10
1.967014867e-10
1.910976037e-10
1.870673225e-10
1.842421702e-10
1.820229704e-10
1.806106838e-10
1.782672857e-10
1.747496721e-10
1.715875623e-10
1.697221149e-10
1.69623758e-10
1.694950831e-10
1.68432711e-10
1.668044798e-10
1.646664069e-10
1.632980176e-10
1.635043765e-10
1.634275385e-10
1.610507169e-10
1.566916235e-10
1.559143788e-10
1.533242345e-10
1.489719184e-10
1.448644167e-10
1.375369469e-10
1.364514154e-10
1.487851885e-10
-2.472685989e-10
-6.817407939e-10
-8.178976762e-10
-9.379317932e-10
-9.49641168e-10
)


101
(
-1.936046135e-09
-3.010412382e-09
-4.462003249e-09
-4.879437789e-09
-4.808553842e-09
-4.539978594e-09
-4.181511241e-09
-3.781085771e-09
-3.368094896e-09
-2.954285423e-09
-2.537406585e-09
-2.107613905e-09
-1.669569584e-09
-1.226138085e-09
-7.749519381e-10
-3.201170765e-10
1.299532238e-10
5.774198766e-10
1.001102244e-09
1.395658298e-09
1.76508347e-09
2.075782742e-09
2.327098383e-09
2.52657521e-09
2.666422084e-09
2.747513457e-09
2.775821602e-09
2.755941439e-09
2.696005115e-09
2.605674907e-09
2.492363598e-09
2.367456535e-09
2.21925444e-09
2.062893433e-09
1.916655135e-09
1.769976712e-09
1.62953498e-09
1.495244053e-09
1.366421123e-09
1.24926283e-09
1.149623516e-09
1.060271072e-09
9.75925451e-10
8.994452699e-10
8.272324813e-10
7.602419379e-10
7.007034173e-10
6.489947488e-10
6.042519366e-10
5.642470695e-10
5.27862633e-10
4.929750086e-10
4.603792892e-10
4.316186183e-10
4.069187198e-10
3.842842786e-10
3.649073168e-10
3.491159754e-10
3.342708443e-10
3.193838779e-10
3.049029413e-10
2.926087476e-10
2.818557818e-10
2.725164362e-10
2.647319416e-10
2.580401147e-10
2.520649292e-10
2.450664248e-10
2.376918753e-10
2.307887288e-10
2.244601107e-10
2.198191603e-10
2.164407122e-10
2.143763475e-10
2.14280018e-10
2.14194457e-10
2.114465559e-10
2.076410657e-10
2.054486471e-10
2.054862354e-10
2.068353743e-10
2.079823215e-10
2.072299703e-10
2.055118697e-10
2.048715613e-10
2.057121739e-10
2.067587596e-10
2.062514585e-10
2.021034623e-10
2.008263322e-10
1.990072118e-10
1.94563593e-10
1.904233727e-10
1.820543579e-10
1.799948092e-10
1.947730896e-10
-3.236120575e-10
-8.88743777e-10
-1.049964281e-09
-1.198102113e-09
-1.21927642e-09
)


101
(
-1.901068954e-09
-2.962415174e-09
-4.405876998e-09
-4.837977592e-09
-4.787221821e-09
-4.540251368e-09
-4.204803099e-09
-3.828477164e-09
-3.439852552e-09
-3.050615737e-09
-2.659394525e-09
-2.254995778e-09
-1.840336987e-09
-1.418681769e-09
-9.869936936e-10
-5.478626169e-10
-1.087927718e-10
3.335477461e-10
7.590856376e-10
1.162644905e-09
1.548615103e-09
1.882610437e-09
2.163607221e-09
2.3978089e-09
2.574523381e-09
2.693508305e-09
2.759433748e-09
2.77471783e-09
2.74599741e-09
2.682479853e-09
2.591385125e-09
2.484571134e-09
2.34888622e-09
2.20065458e-09
2.059998074e-09
1.915595163e-09
1.774837094e-09
1.637256538e-09
1.501900725e-09
1.376447201e-09
1.269040988e-09
1.173183865e-09
1.08374311e-09
1.003492178e-09
9.270928921e-10
8.544151189e-10
7.878587071e-10
7.290469998e-10
6.782383372e-10
6.333176597e-10
5.931138088e-10
5.551045269e-10
5.192003924e-10
4.866033683e-10
4.584283323e-10
4.32495604e-10
4.10227293e-10
3.925354439e-10
3.768066392e-10
3.614406314e-10
3.4581577e-10
3.315539767e-10
3.189254928e-10
3.086967151e-10
3.001714682e-10
2.934514697e-10
2.882055539e-10
2.818241841e-10
2.74615065e-10
2.675604137e-10
2.614145957e-10
2.564907399e-10
2.525486231e-10
2.505118788e-10
2.512586401e-10
2.531923451e-10
2.53215433e-10
2.50702962e-10
2.478246475e-10
2.472247915e-10
2.503031758e-10
2.543966346e-10
2.554697904e-10
2.549580278e-10
2.553985867e-10
2.577795278e-10
2.599528721e-10
2.615740809e-10
2.587430308e-10