/*--------------------------------*- C++ -*----------------------------------*\
| =========                 |                                                 |
| \\      /  F ield         | OpenFOAM: The Open Source CFD Toolbox           |
|  \\    /   O peration     | Version:  2.3.1                                 |
|   \\  /    A nd           | Web:      www.OpenFOAM.org                      |
|    \\/     M anipulation  |                                                 |
\*---------------------------------------------------------------------------*/
FoamFile
{
    version     2.0;
    format      ascii;
    class       dictionary;
    location    "constant";
    object      DPSI29;
}
// * * * * * * * * * * * * * * * * * * * * * * * * * * * * * * * * * * * * * //

DPSI29_table
101
(

101
(
3.070410916e-10
6.408381122e-09
9.91207417e-09
1.311065194e-08
1.664303659e-08
2.074877501e-08
2.534661759e-08
3.040667188e-08
3.574829246e-08
4.124362532e-08
4.673694423e-08
5.209887256e-08
5.717606933e-08
6.189926176e-08
6.610468265e-08
6.974316839e-08
7.275206175e-08
7.503528615e-08
7.678930224e-08
7.758606693e-08
7.795262281e-08
7.774679068e-08
7.659902831e-08
7.498125814e-08
7.289097424e-08
7.026440834e-08
6.713318131e-08
6.356405989e-08
5.943693097e-08
5.493257851e-08
4.999988943e-08
4.478908541e-08
3.974047599e-08
3.27448624e-08
2.639315394e-08
1.971617767e-08
1.28595499e-08
6.063767284e-09
-1.331072981e-09
-9.519930922e-09
-1.787314236e-08
-2.549938287e-08
-3.39331274e-08
-4.245894272e-08
-5.063745475e-08
-5.93929875e-08
-6.794315539e-08
-7.695174768e-08
-8.581302123e-08
-9.500225356e-08
-1.039892343e-07
-1.13095318e-07
-1.222333869e-07
-1.313315356e-07
-1.403343083e-07
-1.492851644e-07
-1.587658792e-07
-1.674853937e-07
-1.766665368e-07
-1.855068916e-07
-1.944810791e-07
-2.032707663e-07
-2.119318794e-07
-2.205740143e-07
-2.290833977e-07
-2.375238384e-07
-2.457820146e-07
-2.538908963e-07
-2.61983849e-07
-2.698095115e-07
-2.77521224e-07
-2.850891701e-07
-2.92646495e-07
-2.998827052e-07
-3.068356619e-07
-3.134834083e-07
-3.201661926e-07
-3.265941592e-07
-3.327023625e-07
-3.38541105e-07
-3.441153035e-07
-3.495967686e-07
-3.54721042e-07
-3.596250841e-07
-3.642393559e-07
-3.685463116e-07
-3.725507243e-07
-3.762896717e-07
-3.79751588e-07
-3.829699448e-07
-3.858697723e-07
-3.884957649e-07
-3.908641412e-07
-3.929919777e-07
-3.94863657e-07
-3.9706555e-07
-3.999149888e-07
-4.422528402e-07
-4.855277089e-07
-5.301593217e-07
-5.755082039e-07
)


101
(
3.070487879e-10
6.418846976e-09
9.943090439e-09
1.315607303e-08
1.67013261e-08
2.082210378e-08
2.544320496e-08
3.0536384e-08
3.592640521e-08
4.148629178e-08
4.706311718e-08
5.252776602e-08
5.772850805e-08
6.25922171e-08
6.695952254e-08
7.077304522e-08
7.39693772e-08
7.64535494e-08
7.839206429e-08
7.941611921e-08
7.99548692e-08
7.992759576e-08
7.899826284e-08
7.753644735e-08
7.558405735e-08
7.30909541e-08
7.007566495e-08
6.65958535e-08
6.255605761e-08
5.809362853e-08
5.318663826e-08
4.795833503e-08
4.279592686e-08
3.601185609e-08
2.944859528e-08
2.262430942e-08
1.558765779e-08
8.543393954e-09
9.958085169e-10
-7.307013801e-09
-1.591775092e-08
-2.40381281e-08
-3.272747816e-08
-4.161939537e-08
-5.030596331e-08
-5.94264879e-08
-6.848935398e-08
-7.792466103e-08
-8.73399624e-08
-9.703125522e-08
-1.06641646e-07
-1.163504653e-07
-1.261216378e-07
-1.358946136e-07
-1.456107438e-07
-1.552869689e-07
-1.653725367e-07
-1.74977648e-07
-1.848521338e-07
-1.945241072e-07
-2.042700909e-07
-2.138968637e-07
-2.234108573e-07
-2.328902015e-07
-2.422658071e-07
-2.515703959e-07
-2.607232796e-07
-2.697308494e-07
-2.78691876e-07
-2.874371182e-07
-2.960459871e-07
-3.045027436e-07
-3.129068552e-07
-3.210541623e-07
-3.289358326e-07
-3.365209042e-07
-3.440404143e-07
-3.513281781e-07
-3.583025018e-07
-3.649872273e-07
-3.713842177e-07
-3.776156619e-07
-3.835158136e-07
-3.891543553e-07
-3.944861768e-07
-3.994960401e-07
-4.041533524e-07
-4.084926109e-07
-4.125131982e-07
-4.162590104e-07
-4.19646395e-07
-4.227471576e-07
-4.25519616e-07
-4.280157775e-07
-4.302496814e-07
-4.328774047e-07
-4.363124258e-07
-4.788057381e-07
-5.221386596e-07
-5.667821482e-07
-6.120832203e-07
)


101
(
3.070564847e-10
6.435149323e-09
9.991174233e-09
1.321898377e-08
1.676933462e-08
2.089065862e-08
2.551826779e-08
3.062526376e-08
3.604670363e-08
4.165707349e-08
4.730938674e-08
5.28759399e-08
5.821030401e-08
6.323227114e-08
6.779497444e-08
7.182822184e-08
7.526828873e-08
7.802530676e-08
8.021515386e-08
8.15721641e-08
8.236324913e-08
8.260064945e-08
8.202408557e-08
8.083059494e-08
7.911947511e-08
7.687380005e-08
7.409570623e-08
7.082542594e-08
6.701109955e-08
6.272003745e-08
5.797111987e-08
5.28460078e-08
4.76251002e-08
4.137046767e-08
3.473735485e-08
2.787224718e-08
2.075911336e-08
1.353116341e-08
5.971741163e-09
-2.198641066e-09
-1.085009383e-08
-1.943640328e-08
-2.824773787e-08
-3.735269454e-08
-4.649110299e-08
-5.584565153e-08
-6.532778608e-08
-7.504315932e-08
-8.490248475e-08
-9.495514846e-08
-1.050946576e-07
-1.153115517e-07
-1.256186513e-07
-1.359849357e-07
-1.463587711e-07
-1.567169272e-07
-1.672601273e-07
-1.777349425e-07
-1.882291234e-07
-1.98695507e-07
-2.091554071e-07
-2.195801768e-07
-2.29928441e-07
-2.402186446e-07
-2.504433439e-07
-2.605965072e-07
-2.70647732e-07
-2.805715464e-07
-2.904001921e-07
-3.00091685e-07
-3.096319658e-07
-3.190131021e-07
-3.282711111e-07
-3.373648467e-07
-3.462453879e-07
-3.548756137e-07
-3.633052388e-07
-3.715324066e-07
-3.794826719e-07
-3.871346991e-07
-3.944796725e-07
-4.015568657e-07
-4.083477347e-07
-4.148387501e-07
-4.210147604e-07
-4.26872373e-07
-4.323507488e-07
-4.374434795e-07
-4.421568086e-07
-4.465642047e-07
-4.505788752e-07
-4.543037027e-07
-4.576472283e-07
-4.606538263e-07
-4.634162757e-07
-4.666739763e-07
-4.709408725e-07
-5.135109289e-07
-5.568539649e-07
-6.014890729e-07
-6.467469217e-07
)


101
(
3.070641815e-10
6.451594378e-09
1.003975124e-08
1.328289217e-08
1.683854847e-08
2.096029956e-08
2.559372077e-08
3.071350854e-08
3.616447392e-08
4.18230141e-08
4.754773745e-08
5.321271766e-08
5.86765193e-08
6.385319192e-08
6.860622739e-08
7.285606535e-08
7.653716381e-08
7.9563877e-08
8.201157483e-08
8.368901208e-08
8.475246699e-08
8.52576138e-08
8.501789212e-08
8.411851193e-08
8.266584186e-08
8.067484453e-08
7.814550416e-08
7.510359505e-08
7.152258783e-08
6.743172491e-08
6.285954118e-08
5.786801557e-08
5.265983227e-08
4.67474389e-08
4.02500081e-08
3.339680011e-08
2.625143461e-08
1.890457167e-08
1.128659722e-08
3.187775282e-09
-5.426672868e-09
-1.425018658e-08
-2.325533462e-08
-3.253207482e-08
-4.197978591e-08
-5.161088091e-08
-6.141927106e-08
-7.14352982e-08
-8.164624801e-08
-9.205323529e-08
-1.026152303e-07
-1.132934608e-07
-1.240822128e-07
-1.34968606e-07
-1.459175134e-07
-1.568943835e-07
-1.679728071e-07
-1.791012817e-07
-1.902522557e-07
-2.014114028e-07
-2.125720174e-07
-2.23722144e-07
-2.348338952e-07
-2.4589763e-07
-2.569125866e-07
-2.67870431e-07
-2.787538221e-07
-2.895366132e-07
-3.002175101e-07
-3.107827642e-07
-3.212167711e-07
-3.314985546e-07
-3.416331377e-07
-3.516135916e-07
-3.614121094e-07
-3.709960759e-07
-3.803588198e-07
-3.895103313e-07
-3.98405262e-07
-4.07009313e-07
-4.152912905e-07
-4.232592197e-07
-4.309229081e-07
-4.382710658e-07
-4.452860986e-07
-4.519728869e-07
-4.58285604e-07
-4.641925069e-07
-4.696456949e-07
-4.747472272e-07
-4.794216352e-07
-4.837872738e-07
-4.877773885e-07
-4.913599191e-07
-4.946933548e-07
-4.986759553e-07
-5.038344391e-07
-5.464445559e-07
-5.897861859e-07
-6.344206215e-07
-6.796617802e-07
)


101
(
3.070719068e-10
6.468185691e-09
1.008883187e-08
1.334782195e-08
1.690901359e-08
2.103108588e-08
2.566964529e-08
3.08012129e-08
3.6279846e-08
4.198424336e-08
4.777831465e-08
5.353821524e-08
5.91272484e-08
6.445489103e-08
6.93932291e-08
7.385606042e-08
7.777520444e-08
8.10682976e-08
8.377848746e-08
8.576719302e-08
8.711641279e-08
8.789557967e-08
8.79811571e-08
8.739129113e-08
8.621517089e-08
8.448899033e-08
8.221875373e-08
7.942128041e-08
7.608419387e-08
7.221644086e-08
6.78427188e-08
6.30120724e-08
5.787235611e-08
5.220269591e-08
4.591480451e-08
3.915739286e-08
3.203627877e-08
2.463336351e-08
1.695753101e-08
8.885512361e-09
3.249353989e-10
-8.592010402e-09
-1.775097236e-08
-2.717853812e-08
-3.684562043e-08
-4.672286102e-08
-5.680650468e-08
-6.71013742e-08
-7.761353754e-08
-8.833891178e-08
-9.925953013e-08
-1.103392929e-07
-1.215581803e-07
-1.32903976e-07
-1.443544318e-07
-1.558777626e-07
-1.674883741e-07
-1.791849158e-07
-1.909387547e-07
-2.027319026e-07
-2.145484469e-07
-2.263753123e-07
-2.381915007e-07
-2.499792663e-07
-2.617336048e-07
-2.734466621e-07
-2.851076764e-07
-2.966944944e-07
-3.081916147e-07
-3.195848367e-07
-3.308641741e-07
-3.420067557e-07
-3.530035567e-07
-3.638495597e-07
-3.745275477e-07
-3.850099751e-07
-3.952734952e-07
-4.053267524e-07
-4.151366473e-07
-4.246752586e-07
-4.338933783e-07
-4.427679557e-07
-4.51312599e-07
-4.595225785e-07
-4.67385021e-07
-4.749050363e-07
-4.820419664e-07
-4.887855348e-07
-4.950467609e-07
-5.008869639e-07
-5.062617571e-07
-5.113119699e-07
-5.159774652e-07
-5.202208863e-07
-5.241781655e-07
-5.289564669e-07
-5.350668465e-07
-5.777116764e-07
-6.210661245e-07
-6.657264246e-07
-7.109918736e-07
)


101
(
3.070795756e-10
6.484923764e-09
1.013842365e-08
1.3413792e-08
1.698076624e-08
2.110307083e-08
2.574611531e-08
3.088846308e-08
3.639293934e-08
4.214088287e-08
4.800125316e-08
5.385254067e-08
5.956257552e-08
6.503728554e-08
7.015590645e-08
7.482773632e-08
7.898162442e-08
8.25375907e-08
8.551329832e-08
8.780653066e-08
8.9450207e-08
9.051086989e-08
9.091427027e-08
9.064258848e-08
8.975939221e-08
8.831016988e-08
8.630933443e-08
8.377014426e-08
8.068857328e-08
7.706312178e-08
7.291012883e-08
6.826664046e-08
6.324074857e-08
5.776670566e-08
5.170454051e-08
4.511159783e-08
3.807690443e-08
3.06828897e-08
2.297912209e-08
1.491621863e-08
6.404340604e-09
-2.527725658e-09
-1.177360894e-08
-2.131476345e-08
-3.113890012e-08
-4.121179932e-08
-5.152301493e-08
-6.206162415e-08
-7.283404396e-08
-8.383673615e-08
-9.506447115e-08
-1.064896253e-07
-1.180871218e-07
-1.298399297e-07
-1.417305885e-07
-1.537329337e-07
-1.65836082e-07
-1.780462361e-07
-1.903427181e-07
-2.027111637e-07
-2.151314997e-07
-2.275871818e-07
-2.400581061e-07
-2.525224732e-07
-2.649696496e-07
-2.773900613e-07
-2.89778048e-07
-3.021173686e-07
-3.143883629e-07
-3.26571075e-07
-3.386544984e-07
-3.50617055e-07
-3.624448939e-07
-3.741315956e-07
-3.856631551e-07
-3.97013785e-07
-4.081504088e-07
-4.190798312e-07
-4.297760053e-07
-4.402209595e-07
-4.503663514e-07
-4.601610926e-07
-4.69601947e-07
-4.786863751e-07
-4.874066329e-07
-4.957735481e-07
-5.037473234e-07
-5.113269105e-07
-5.184408844e-07
-5.250816793e-07
-5.312051182e-07
-5.369858299e-07
-5.423634131e-07
-5.473417406e-07
-5.519881257e-07
-5.576163993e-07
-5.647434708e-07
-6.074337109e-07
-6.508268705e-07
-6.955556346e-07
-7.40898121e-07
)


101
(
3.070872715e-10
6.501816302e-09
1.01885401e-08
1.34808294e-08
1.705385343e-08
2.117632153e-08
2.582322218e-08
3.09753666e-08
3.650389691e-08
4.229308371e-08
4.821671996e-08
5.415584144e-08
5.998262523e-08
6.56003475e-08
7.089422293e-08
7.577071753e-08
8.015571088e-08
8.39708265e-08
8.721366332e-08
8.980636088e-08
9.174989479e-08
9.309945384e-08
9.381660853e-08
9.386765059e-08
9.329094132e-08
9.213159994e-08
9.041100283e-08
8.814249144e-08
8.532789397e-08
8.196116198e-08
7.80501986e-08
7.361987104e-08
6.874716832e-08
6.345304373e-08
5.76114722e-08
5.12213909e-08
4.433312625e-08
3.701365789e-08
2.932953327e-08
2.128428477e-08
1.281732088e-08
3.909663075e-09
-5.364378581e-09
-1.497181627e-08
-2.489965339e-08
-3.511513508e-08
-4.560469097e-08
-5.634603958e-08
-6.733898147e-08
-7.857769798e-08
-9.006449843e-08
-1.01781865e-07
-1.13706562e-07
-1.25817288e-07
-1.380960071e-07
-1.505202197e-07
-1.630676625e-07
-1.757414159e-07
-1.885252077e-07
-2.014108168e-07
-2.143791143e-07
-2.274124927e-07
-2.404902548e-07
-2.535868443e-07
-2.666852929e-07
-2.797704565e-07
-2.928388708e-07
-3.058812726e-07
-3.188810375e-07
-3.318152029e-07
-3.446670302e-07
-3.574140291e-07
-3.700397912e-07
-3.825377753e-07
-3.948961416e-07
-4.070914617e-07
-4.190829779e-07
-4.308710282e-07
-4.424317654e-07
-4.537573694e-07
-4.648080319e-07
-4.755262529e-07
-4.858821439e-07
-4.958630467e-07
-5.054617775e-07
-5.146937688e-07
-5.235199271e-07
-5.319542008e-07
-5.399318053e-07
-5.47438991e-07
-5.543647484e-07
-5.609274874e-07
-5.670724859e-07
-5.728376504e-07
-5.782431905e-07
-5.847715558e-07
-5.929891487e-07
-6.357496904e-07
-6.792180484e-07
-7.240629611e-07
-7.69536171e-07
)


101
(
3.07094968e-10
6.518866279e-09
1.0239191e-08
1.3548957e-08
1.712831718e-08
2.125089946e-08
2.590105099e-08
3.106202446e-08
3.661285287e-08
4.244098926e-08
4.842487405e-08
5.444826053e-08
6.038752177e-08
6.614406367e-08
7.160814175e-08
7.668467348e-08
8.129679096e-08
8.53670835e-08
8.887743215e-08
9.176557685e-08
9.401207408e-08
9.565723833e-08
9.66866013e-08
9.706262355e-08
9.680298551e-08
9.594616742e-08
9.451719007e-08
9.253106683e-08
8.999443255e-08
8.690053604e-08
8.325078607e-08
7.905856503e-08
7.437516259e-08
6.926515676e-08
6.363667275e-08
5.746674054e-08
5.076906111e-08
4.35842193e-08
3.597616071e-08
2.797844391e-08
1.956424231e-08
1.070365581e-08
1.44468139e-09
-8.183133776e-09
-1.816518911e-08
-2.847091206e-08
-3.908803029e-08
-4.99876364e-08
-6.116160161e-08
-7.259776462e-08
-8.429899118e-08
-9.625676692e-08
-1.084558843e-07
-1.208748913e-07
-1.334929721e-07
-1.462885678e-07
-1.592339824e-07
-1.72325776e-07
-1.855477495e-07
-1.988963788e-07
-2.123565646e-07
-2.259138331e-07
-2.395480765e-07
-2.532323249e-07
-2.669431002e-07
-2.806567753e-07
-2.943658887e-07
-3.080660898e-07
-3.217485204e-07
-3.353939664e-07
-3.489809339e-07
-3.624817049e-07
-3.758759062e-07
-3.891562098e-07
-4.023135815e-07
-4.153288659e-07
-4.281585024e-07
-4.407935677e-07
-4.532072397e-07
-4.653983287e-07
-4.773365681e-07
-4.889677124e-07
-5.002489157e-07
-5.111472821e-07
-5.216512469e-07
-5.317780108e-07
-5.41478137e-07
-5.507918429e-07
-5.596480412e-07
-5.680679915e-07
-5.758543344e-07
-5.832533629e-07
-5.902271085e-07
-5.968276203e-07
-6.0307065e-07
-6.105637655e-07
-6.199220695e-07
-6.627943392e-07
-7.063873054e-07
-7.513989398e-07
-7.970599837e-07
)


101
(
3.071027217e-10
6.536077759e-09
1.029039003e-08
1.361820243e-08
1.720420556e-08
2.132687349e-08
2.597969547e-08
3.114854814e-08
3.671995421e-08
4.258475993e-08
4.862589448e-08
5.472996655e-08
6.077741826e-08
6.666846302e-08
7.229765762e-08
7.756934921e-08
8.240427951e-08
8.672550998e-08
9.050268471e-08
9.368286691e-08
9.623377187e-08
9.818020947e-08
9.952203643e-08
1.002242533e-07
1.002895607e-07
9.974682787e-08
9.862102533e-08
9.692872554e-08
9.468072197e-08
9.187197927e-08
8.850017994e-08
8.456893065e-08
8.010782382e-08
7.519872653e-08
6.978217648e-08
6.383807543e-08
5.735835523e-08
5.035669926e-08
4.288103595e-08
3.497444651e-08
2.663557858e-08
1.78421265e-08
8.63039515e-09
-9.783806365e-10
-1.097076884e-08
-2.131793144e-08
-3.201173036e-08
-4.3021912e-08
-5.433491408e-08
-6.593128683e-08
-7.780889818e-08
-8.996127158e-08
-1.023816463e-07
-1.150561084e-07
-1.279638778e-07
-1.410818472e-07
-1.543798523e-07
-1.678488471e-07
-1.81466776e-07
-1.952313876e-07
-2.091318849e-07
-2.231589861e-07
-2.372963849e-07
-2.515198724e-07
-2.658029373e-07
-2.801127538e-07
-2.944313545e-07
-3.087527938e-07
-3.230747493e-07
-3.373885582e-07
-3.51675326e-07
-3.659014268e-07
-3.80039477e-07
-3.940779321e-07
-4.080088868e-07
-4.218188654e-07
-4.354682791e-07
-4.489416162e-07
-4.622023187e-07
-4.752501893e-07
-4.880673496e-07
-5.006040215e-07
-5.128122495e-07
-5.246412216e-07
-5.360729971e-07
-5.471281423e-07
-5.57739328e-07
-5.679598435e-07
-5.777281127e-07
-5.870843282e-07
-5.957988244e-07
-6.040880212e-07
-6.119508644e-07
-6.194393257e-07
-6.265967386e-07
-6.351244776e-07
-6.456661048e-07
-6.886955263e-07
-7.324643634e-07
-7.776969299e-07
-8.236042505e-07
)


101
(
3.071104181e-10
6.553454738e-09
1.034214543e-08
1.368858683e-08
1.728155882e-08
2.140430287e-08
2.605923712e-08
3.123503388e-08
3.68253319e-08
4.272454161e-08
4.881994265e-08
5.500110938e-08
6.115244747e-08
6.717356252e-08
7.296273919e-08
7.842449353e-08
8.347760488e-08
8.804525489e-08
9.208761241e-08
9.555668756e-08
9.841222304e-08
1.00664433e-07
1.023201334e-07
1.033493862e-07
1.037452849e-07
1.035266573e-07
1.027153689e-07
1.013282665e-07
9.937935651e-08
9.686673763e-08
9.378714813e-08
9.013706464e-08
8.592820518e-08
8.124368332e-08
7.604704128e-08
7.033179694e-08
6.408437319e-08
5.729979888e-08
5.000574348e-08
4.223938382e-08
3.401095621e-08
2.530974407e-08
1.617326666e-08
6.616962722e-09
-3.347601476e-09
-1.369260344e-08
-2.44148666e-08
-3.548763359e-08
-4.689507185e-08
-5.861173469e-08
-7.062979914e-08
-8.293909978e-08
-9.553528156e-08
-1.084124162e-07
-1.215573113e-07
-1.34947622e-07
-1.485516373e-07
-1.623564009e-07
-1.763319166e-07
-1.904729361e-07
-2.047695459e-07
-2.192171294e-07
-2.338049208e-07
-2.485153093e-07
-2.633249774e-07
-2.781966402e-07
-2.930986597e-07
-3.080147818e-07
-3.229423676e-07
-3.378835261e-07
-3.528306694e-07
-3.677516695e-07
-3.826110431e-07
-3.973889484e-07
-4.120741566e-07
-4.266578362e-07
-4.41106582e-07
-4.554071527e-07
-4.695138614e-07
-4.834159965e-07
-4.971044703e-07
-5.105452141e-07
-5.236849411e-07
-5.36458211e-07
-5.488330814e-07
-5.608459773e-07
-5.724133485e-07
-5.835700695e-07
-5.942898664e-07
-6.046119256e-07
-6.143184778e-07
-6.235545761e-07
-6.323607451e-07
-6.408015375e-07
-6.489426543e-07
-6.585615355e-07
-6.703528488e-07
-7.135831754e-07
-7.575760428e-07
-8.030793494e-07
-8.49287107e-07
)


101
(
3.071180255e-10
6.57100042e-09
1.039446776e-08
1.37601347e-08
1.736042171e-08
2.148325274e-08
2.613976466e-08
3.132158671e-08
3.692912651e-08
4.286049467e-08
4.900719631e-08
5.52618617e-08
6.151276694e-08
6.76594226e-08
7.360339125e-08
7.924991666e-08
8.451627414e-08
8.932553583e-08
9.363060242e-08
9.73853998e-08
1.005448373e-07
1.031061678e-07
1.050777529e-07
1.064349192e-07
1.071654176e-07
1.072791364e-07
1.067929921e-07
1.057223841e-07
1.040830856e-07
1.018767051e-07
9.910135939e-08
9.574947066e-08
9.181892001e-08
8.738581042e-08
8.242515953e-08
7.694517612e-08
7.093777715e-08
6.439119904e-08
5.731673847e-08
4.973719695e-08
4.166181576e-08
3.308612449e-08
2.405318034e-08
1.457971291e-08
4.676284929e-09
-5.629084455e-09
-1.633593264e-08
-2.742355675e-08
-3.888009039e-08
-5.067542834e-08
-6.279662815e-08
-7.522758295e-08
-8.796225324e-08
-1.009973841e-07
-1.143277907e-07
-1.279385074e-07
-1.417987149e-07
-1.55895463e-07
-1.701903414e-07
-1.846720637e-07
-1.993276701e-07
-2.141540064e-07
-2.291449379e-07
-2.442901636e-07
-2.595748217e-07
-2.749654681e-07
-2.904227368e-07
-3.059133211e-07
-3.214247131e-07
-3.369622045e-07
-3.52531224e-07
-3.681116198e-07
-3.836669897e-07
-3.991682837e-07
-4.145952898e-07
-4.299384002e-07
-4.451678769e-07
-4.602791154e-07
-4.75229585e-07
-4.899923196e-07
-5.045493773e-07
-5.188905011e-07
-5.329706234e-07
-5.467078154e-07
-5.600452946e-07
-5.730323879e-07
-5.855991918e-07
-5.977354841e-07
-6.094354852e-07
-6.207683459e-07
-6.315134107e-07
-6.417624535e-07
-6.515705523e-07
-6.610308838e-07
-6.702226397e-07
-6.809938917e-07
-6.940958829e-07
-7.375714334e-07
-7.818354252e-07
-8.276565171e-07
-8.742119905e-07
)


101
(
3.071258082e-10
6.588723466e-09
1.044737818e-08
1.383288423e-08
1.744085657e-08
2.156381037e-08
2.622139424e-08
3.140834542e-08
3.703151722e-08
4.29928251e-08
4.918788726e-08
5.551246263e-08
6.185861083e-08
6.81261965e-08
7.421971677e-08
8.004555735e-08
8.551995188e-08
9.05657349e-08
9.513029579e-08
9.916747372e-08
1.026292751e-07
1.055018524e-07
1.077914945e-07
1.094776446e-07
1.105456375e-07
1.109982177e-07
1.108467224e-07
1.101035864e-07
1.087846062e-07
1.06894263e-07
1.044334762e-07
1.013938531e-07
9.776360645e-08
9.360843137e-08
8.890562206e-08
8.367330974e-08
7.791317175e-08
7.161631245e-08
6.478677331e-08
5.743337214e-08
4.955481627e-08
4.114418174e-08
3.224714171e-08
2.288665415e-08
1.307518352e-08
2.842088127e-09
-7.812133616e-09
-1.887088992e-08
-3.032942052e-08
-4.215952212e-08
-5.434481485e-08
-6.686258754e-08
-7.970159646e-08
-9.285761368e-08
-1.063296173e-07
-1.201105015e-07
-1.341757692e-07
-1.485166685e-07
-1.630900516e-07
-1.778774117e-07
-1.928588613e-07
-2.080293073e-07
-2.233840771e-07
-2.389179266e-07
-2.546259559e-07
-2.704847626e-07
-2.864587741e-07
-3.025016464e-07
-3.185827511e-07
-3.346978157e-07
-3.508592031e-07
-3.670629831e-07
-3.832841922e-07
-3.99490216e-07
-4.156496661e-07
-4.317440396e-07
-4.477443333e-07
-4.63651239e-07
-4.794340227e-07
-4.950625464e-07
-5.104978095e-07
-5.257353476e-07
-5.407592691e-07
-5.554830914e-07
-5.698175347e-07
-5.837912401e-07
-5.973861402e-07
-6.10557921e-07
-6.232734913e-07
-6.356572505e-07
-6.474840894e-07
-6.588137934e-07
-6.696876585e-07
-6.802321433e-07
-6.90543493e-07
-7.025346614e-07
-7.16999974e-07
-7.607655845e-07
-8.053474244e-07
-8.515282689e-07
-8.984721047e-07
)


101
(
3.071335667e-10
6.606628392e-09
1.050088691e-08
1.39068594e-08
1.752290798e-08
2.164604141e-08
2.630421543e-08
3.14954171e-08
3.713264715e-08
4.312169854e-08
4.936220058e-08
5.575310059e-08
6.219016361e-08
6.857398702e-08
7.481175739e-08
8.081130994e-08
8.648827818e-08
9.176522212e-08
9.658539845e-08
1.009012982e-07
1.046632027e-07
1.078480141e-07
1.104576338e-07
1.124739829e-07
1.138816651e-07
1.146781926e-07
1.148694837e-07
1.144641076e-07
1.134762107e-07
1.119118128e-07
1.097749597e-07
1.070589125e-07
1.037466751e-07
9.989358236e-08
9.547336715e-08
9.050714262e-08
8.500490787e-08
7.896585526e-08
7.23966895e-08
6.529792697e-08
5.76550703e-08
4.945158877e-08
4.072878596e-08
3.151324803e-08
2.182394958e-08
1.169351087e-08
1.124086865e-09
-9.868277724e-09
-2.128530096e-08
-3.310515752e-08
-4.531174264e-08
-5.787895356e-08
-7.078947803e-08
-8.403350042e-08
-9.761015959e-08
-1.115179674e-07
-1.25739981e-07
-1.402744536e-07
-1.550813164e-07
-1.701364914e-07
-1.854109893e-07
-2.008956512e-07
-2.165830467e-07
-2.324687069e-07
-2.485541537e-07
-2.64829549e-07
-2.812713742e-07
-2.978330607e-07
-3.144670434e-07
-3.311494805e-07
-3.478869871e-07
-3.646858721e-07
-3.815392594e-07
-3.984240046e-07
-4.153036687e-07
-4.321469752e-07
-4.489165254e-07
-4.656125286e-07
-4.822151242e-07
-4.987066125e-07
-5.150345439e-07
-5.311746778e-07
-5.471381578e-07
-5.628625187e-07
-5.782330615e-07
-5.93224069e-07
-6.078603593e-07
-6.221157751e-07
-6.359077043e-07
-6.493694006e-07
-6.623275474e-07
-6.748012864e-07
-6.86809029e-07
-6.985013993e-07
-7.100007393e-07
-7.232806635e-07
-7.391649122e-07
-7.832607756e-07
-8.282023367e-07
-8.747800201e-07
-9.221517682e-07
)


101
(
3.07141378e-10
6.624723302e-09
1.055501244e-08
1.398209552e-08
1.760663526e-08
2.173003013e-08
2.63883408e-08
3.15829366e-08
3.723269078e-08
4.324731957e-08
4.953036803e-08
5.598402037e-08
6.250767276e-08
6.900297932e-08
7.53796426e-08
8.154717465e-08
8.742102035e-08
9.292350436e-08
9.799484283e-08
1.025854159e-07
1.066444905e-07
1.101414462e-07
1.130724704e-07
1.154202855e-07
1.171694019e-07
1.183137519e-07
1.188545343e-07
1.187962121e-07
1.181499764e-07
1.16921697e-07
1.151178883e-07
1.127349212e-07
1.097544998e-07
1.062237474e-07
1.021105808e-07
9.743315614e-08
9.220500833e-08
8.643343743e-08
8.013346703e-08
7.330704615e-08
6.593060006e-08
5.797398311e-08
4.946710464e-08
4.043259808e-08
3.089650223e-08
2.089848688e-08
1.044346889e-08
-4.503699201e-10
-1.178762628e-08
-2.355459043e-08
-3.573986445e-08
-4.831566644e-08
-6.126150582e-08
-7.456225368e-08
-8.821075973e-08
-1.022085221e-07
-1.165444751e-07
-1.31225498e-07
-1.462181765e-07
-1.614987811e-07
-1.770314904e-07
-1.928003248e-07
-2.087935967e-07
-2.250032296e-07
-2.41431236e-07
-2.580780736e-07
-2.749361973e-07
-2.919710696e-07
-3.091296617e-07
-3.263683622e-07
-3.436744036e-07
-3.610526916e-07
-3.785093943e-07
-3.960408373e-07
-4.136196664e-07
-4.312078714e-07
-4.487511779e-07
-4.662391329e-07
-4.836560114e-07
-5.010030793e-07
-5.182337936e-07
-5.352971708e-07
-5.522017677e-07
-5.689255707e-07
-5.853614592e-07
-6.014197737e-07
-6.171149179e-07
-6.324820288e-07
-6.474153113e-07
-6.619956887e-07
-6.761276627e-07
-6.898088017e-07
-7.030182695e-07
-7.159273757e-07
-7.286817912e-07
-7.433162831e-07
-7.606817504e-07
-8.051428815e-07
-8.504805365e-07
-8.974856537e-07
-9.453127587e-07
)


101
(
3.071491878e-10
6.643011005e-09
1.060976611e-08
1.405861875e-08
1.769208629e-08
2.181584719e-08
2.647386726e-08
3.167102033e-08
3.733179836e-08
4.33698665e-08
4.969259757e-08
5.620543828e-08
6.281135904e-08
6.941334256e-08
7.592349049e-08
8.225314624e-08
8.83179453e-08
9.404007349e-08
9.935758085e-08
1.042183285e-07
1.08571022e-07
1.123790219e-07
1.156322703e-07
1.18312715e-07
1.2040468e-07
1.218997484e-07
1.227953637e-07
1.230921612e-07
1.22797628e-07
1.219158549e-07
1.204543713e-07
1.184129472e-07
1.157751468e-07
1.12582856e-07
1.087984795e-07
1.044340322e-07
9.950100906e-08
9.401107767e-08
8.798828721e-08
8.144447264e-08
7.435426451e-08
6.667728069e-08
5.842709938e-08
4.961466475e-08
4.026588483e-08
3.042980581e-08
2.01182833e-08
9.351703492e-09
-1.873247062e-09
-1.354810222e-08
-2.566990598e-08
-3.82142437e-08
-5.115713026e-08
-6.448035126e-08
-7.817099694e-08
-9.222529168e-08
-1.066372316e-07
-1.214223236e-07
-1.365544698e-07
-1.520164323e-07
-1.677697036e-07
-1.837898796e-07
-2.00061123e-07
-2.1657077e-07
-2.333174114e-07
-2.50302775e-07
-2.675322908e-07
-2.849898967e-07
-3.026316045e-07
-3.204048869e-07
-3.382729484e-07
-3.562255351e-07
-3.74269636e-07
-3.924179616e-07
-4.1066463e-07
-4.289814462e-07
-4.473030697e-07
-4.655946313e-07
-4.838289408e-07
-5.020245306e-07
-5.201593424e-07
-5.381704946e-07
-5.56035618e-07
-5.737560464e-07
-5.912678837e-07
-6.084456381e-07
-6.252375979e-07
-6.417360566e-07
-6.578611029e-07
-6.736223985e-07
-6.889718085e-07
-7.039197636e-07
-7.183902885e-07
-7.325870061e-07
-7.466657614e-07
-7.627184129e-07
-7.816247276e-07
-8.264838895e-07
-8.722499712e-07
-9.197067738e-07
-9.680365565e-07
)


101
(
3.071566551e-10
6.661491502e-09
1.066515201e-08
1.413644566e-08
1.777929751e-08
2.190354945e-08
2.656087526e-08
3.175976537e-08
3.743009661e-08
4.348949169e-08
4.984906971e-08
5.641754049e-08
6.310141302e-08
6.980522281e-08
7.644339417e-08
8.292920538e-08
8.917881786e-08
9.511441483e-08
1.006726039e-07
1.05798517e-07
1.104406854e-07
1.145576965e-07
1.181332346e-07
1.211472202e-07
1.235832156e-07
1.254311432e-07
1.266856595e-07
1.273441766e-07
1.274104703e-07
1.268856162e-07
1.257762929e-07
1.240847001e-07
1.217979463e-07
1.18956399e-07
1.155188205e-07
1.1149025e-07
1.068760978e-07
1.016869735e-07
9.595314001e-08
8.969861665e-08
8.29056773e-08
7.55311897e-08
6.757303734e-08
5.902487609e-08
4.990277661e-08
4.026052794e-08
3.012097617e-08
1.950961845e-08
8.425167033e-09
-3.124339946e-09
-1.514305598e-08
-2.761474204e-08
-4.051667133e-08
-5.382685816e-08
-6.752835675e-08
-8.161050661e-08
-9.606445047e-08
-1.109134127e-07
-1.261415578e-07
-1.417405076e-07
-1.576736432e-07
-1.739104702e-07
-1.90429497e-07
-2.072140833e-07
-2.242586025e-07
-2.415604698e-07
-2.591291382e-07
-2.769652489e-07
-2.95042868e-07
-3.133147874e-07
-3.317299637e-07
-3.502551407e-07
-3.688845435e-07
-3.876331829e-07
-4.065152254e-07
-4.255302499e-07
-4.446210324e-07
-4.63729305e-07
-4.827975513e-07
-5.018416528e-07
-5.208717017e-07
-5.398438757e-07
-5.587021796e-07
-5.77431401e-07
-5.960197929e-07
-6.143550612e-07
-6.322996228e-07
-6.499544462e-07
-6.673097669e-07
-6.84319192e-07
-7.009288271e-07
-7.172082782e-07
-7.329961419e-07
-7.485472779e-07
-7.640214583e-07
-7.815610857e-07
-8.020601771e-07
-8.473435197e-07
-8.935637902e-07
-9.41492193e-07
-9.90330315e-07
)


101
(
3.07164351e-10
6.680183908e-09
1.072121703e-08
1.421563625e-08
1.78683603e-08
2.199326213e-08
2.664952798e-08
3.184936818e-08
3.752782735e-08
4.360648188e-08
5.000012111e-08
5.662069778e-08
6.337822927e-08
7.017899831e-08
7.693969959e-08
8.357562447e-08
9.000373331e-08
9.614638855e-08
1.019393607e-07
1.073249781e-07
1.122519122e-07
1.166749596e-07
1.205719645e-07
1.239199378e-07
1.26700952e-07
1.289033628e-07
1.305197862e-07
1.315451913e-07
1.319801572e-07
1.318222121e-07
1.310753817e-07
1.2974258e-07
1.278145075e-07
1.253325582e-07
1.22255561e-07
1.185823712e-07
1.143106373e-07
1.094455757e-07
1.040180584e-07
9.806123519e-08
9.157179258e-08
8.451142529e-08
7.687111401e-08
6.862591593e-08
5.977374632e-08
5.03624292e-08
4.042389146e-08
2.999488173e-08
1.907801761e-08
7.682735305e-09
-4.198664203e-09
-1.65584408e-08
-2.938032562e-08
-4.264146105e-08
-5.632099295e-08
-7.040224798e-08
-8.48700427e-08
-9.974859038e-08
-1.15031324e-07
-1.307219023e-07
-1.467912905e-07
-1.632079917e-07
-1.799426074e-07
-1.969748245e-07
-2.142945707e-07
-2.31894426e-07
-2.497809645e-07
-2.679628746e-07
-2.864334959e-07
-3.051609667e-07
-3.240944234e-07
-3.431843013e-07
-3.624033608e-07
-3.817535729e-07
-4.012525828e-07
-4.209295225e-07
-4.407601265e-07
-4.606855745e-07
-4.806108303e-07
-5.005197591e-07
-5.204387143e-07
-5.403679975e-07
-5.602476519e-07
-5.800157064e-07
-5.996844378e-07
-6.191967088e-07
-6.38355226e-07
-6.572046486e-07
-6.758193479e-07
-6.941393044e-07
-7.120556845e-07
-7.29727784e-07
-7.469012368e-07
-7.638678055e-07
-7.808076564e-07
-7.99899891e-07
-8.220454263e-07
-8.677747443e-07
-9.144707156e-07
-9.6288725e-07
-1.012226686e-06
)


101
(
3.071722758e-10
6.699094936e-09
1.077796881e-08
1.429622588e-08
1.795933548e-08
2.208507335e-08
2.673994406e-08
3.193997262e-08
3.762516768e-08
4.372104719e-08
5.014600719e-08
5.681519563e-08
6.364211215e-08
7.05349479e-08
7.741263674e-08
8.419254633e-08
9.079266612e-08
9.71357442e-08
1.031572344e-07
1.087967433e-07
1.140031935e-07
1.187284341e-07
1.229450327e-07
1.266267695e-07
1.297534688e-07
1.323116617e-07
1.342921826e-07
1.356882837e-07
1.36498179e-07
1.367161416e-07
1.363422876e-07
1.353780151e-07
1.338165467e-07
1.317012094e-07
1.289944849e-07
1.256919716e-07
1.217840023e-07
1.17267711e-07
1.121686371e-07
1.065235673e-07
1.003431213e-07
9.360199898e-08
8.629401316e-08
7.838163215e-08
6.984078196e-08
6.07027303e-08
5.09992196e-08
4.077948381e-08
3.005621484e-08