/*--------------------------------*- C++ -*----------------------------------*\
| =========                 |                                                 |
| \\      /  F ield         | OpenFOAM: The Open Source CFD Toolbox           |
|  \\    /   O peration     | Version:  2.3.1                                 |
|   \\  /    A nd           | Web:      www.OpenFOAM.org                      |
|    \\/     M anipulation  |                                                 |
\*---------------------------------------------------------------------------*/
FoamFile
{
    version     2.0;
    format      ascii;
    class       dictionary;
    location    "constant";
    object      DPSI16;
}
// * * * * * * * * * * * * * * * * * * * * * * * * * * * * * * * * * * * * * //

DPSI16_table
101
(

101
(
-4.758330409e-14
-3.430107761e-13
-1.466021888e-12
-3.711703845e-12
-7.121933129e-12
-1.170020189e-11
-1.793792756e-11
-2.6298774e-11
-3.724459696e-11
-5.168025857e-11
-7.08215658e-11
-9.585969766e-11
-1.297991071e-10
-1.754890141e-10
-2.353860787e-10
-3.149673307e-10
-4.228892596e-10
-5.560939785e-10
-7.329283301e-10
-9.529753366e-10
-1.200274133e-09
-1.505132727e-09
-1.855774466e-09
-2.219662885e-09
-2.591239187e-09
-2.956985544e-09
-3.297612643e-09
-3.601949918e-09
-3.857924866e-09
-4.056253723e-09
-4.196850384e-09
-4.283911039e-09
-4.323516076e-09
-4.315174938e-09
-4.268802477e-09
-4.211271459e-09
-4.131366391e-09
-3.934192511e-09
-3.689226316e-09
-3.484470148e-09
-3.287724009e-09
-3.082096913e-09
-2.856239945e-09
-2.639902649e-09
-2.416864123e-09
-2.188297425e-09
-1.958017636e-09
-1.724646722e-09
-1.49172728e-09
-1.260399108e-09
-1.035552728e-09
-8.097010398e-10
-5.886123341e-10
-3.742543324e-10
-1.657104524e-10
5.175174197e-11
2.557974253e-10
4.507586039e-10
6.473774882e-10
8.346635409e-10
1.01719646e-09
1.188442478e-09
1.355958829e-09
1.516720774e-09
1.669678508e-09
1.815433232e-09
1.953446917e-09
2.08611696e-09
2.209408626e-09
2.323313613e-09
2.43022353e-09
2.529247478e-09
2.611708275e-09
2.620452777e-09
2.685115983e-09
2.892078462e-09
3.042146183e-09
3.104164878e-09
3.158239464e-09
3.202362143e-09
3.236022728e-09
3.251721612e-09
3.208215898e-09
3.275686406e-09
3.427817523e-09
3.471445266e-09
3.474065476e-09
3.459849824e-09
3.371318221e-09
3.416986804e-09
3.526129673e-09
3.458802798e-09
3.426336586e-09
3.40884974e-09
3.431252501e-09
3.482832142e-09
1.73655555e-09
9.375211104e-17
1.060565864e-26
1.802344288e-27
-2.354556959e-26
)


101
(
-4.371433026e-14
-3.290103781e-13
-1.416541013e-12
-3.593880926e-12
-6.899293744e-12
-1.133069495e-11
-1.734232932e-11
-2.537982306e-11
-3.587182157e-11
-4.965342952e-11
-6.784938444e-11
-9.158246595e-11
-1.235146598e-10
-1.663924554e-10
-2.225570998e-10
-2.968338604e-10
-3.970576423e-10
-5.223424839e-10
-6.864144453e-10
-8.930202446e-10
-1.129912259e-09
-1.416672792e-09
-1.751570512e-09
-2.109368493e-09
-2.478577788e-09
-2.847531382e-09
-3.199464891e-09
-3.52094348e-09
-3.800373813e-09
-4.027608278e-09
-4.199225079e-09
-4.318379009e-09
-4.383352238e-09
-4.402930228e-09
-4.385832102e-09
-4.344842507e-09
-4.284676071e-09
-4.143422895e-09
-3.930458689e-09
-3.716585874e-09
-3.516912197e-09
-3.3157265e-09
-3.100378858e-09
-2.884728376e-09
-2.664933505e-09
-2.43904745e-09
-2.209304679e-09
-1.975865586e-09
-1.740943777e-09
-1.505949048e-09
-1.274215106e-09
-1.04342533e-09
-8.1457508e-10
-5.9004918e-10
-3.709191479e-10
-1.503583201e-10
6.652371852e-11
2.756279445e-10
4.814347827e-10
6.823274137e-10
8.778418672e-10
1.065772668e-09
1.247426777e-09
1.423283092e-09
1.591907196e-09
1.753430225e-09
1.90822686e-09
2.056741727e-09
2.19774773e-09
2.330026659e-09
2.454627894e-09
2.571833708e-09
2.678057148e-09
2.745301072e-09
2.801850035e-09
2.921565469e-09
3.078128097e-09
3.20975972e-09
3.305381015e-09
3.373250991e-09
3.42550295e-09
3.4663587e-09
3.472546055e-09
3.483734247e-09
3.566382029e-09
3.6721375e-09
3.731014537e-09
3.745961503e-09
3.721519731e-09
3.690492711e-09
3.733253904e-09
3.78282226e-09
3.749609994e-09
3.72161049e-09
3.765636287e-09
3.895562101e-09
1.752889875e-09
-5.150998791e-10
-5.505182343e-10
-5.844031812e-10
-6.107155008e-10
)


101
(
-3.999449844e-14
-3.153963239e-13
-1.368208781e-12
-3.478628834e-12
-6.681504027e-12
-1.09695803e-11
-1.676184792e-11
-2.448560008e-11
-3.453895893e-11
-4.769147456e-11
-6.498254532e-11
-8.746781319e-11
-1.175047655e-10
-1.577112069e-10
-2.10322476e-10
-2.795889229e-10
-3.725604713e-10
-4.899581872e-10
-6.421717307e-10
-8.352967956e-10
-1.060828678e-09
-1.330749383e-09
-1.648759066e-09
-1.997029463e-09
-2.361508388e-09
-2.73087399e-09
-3.090492444e-09
-3.426093269e-09
-3.725966652e-09
-3.979527936e-09
-4.180891396e-09
-4.331580789e-09
-4.424318471e-09
-4.471276226e-09
-4.482824804e-09
-4.46293401e-09
-4.422403422e-09
-4.323761023e-09
-4.151674035e-09
-3.949397603e-09
-3.750098588e-09
-3.551150936e-09
-3.343533939e-09
-3.133348869e-09
-2.918046732e-09
-2.696553402e-09
-2.469803402e-09
-2.238245657e-09
-2.003748639e-09
-1.767643826e-09
-1.532456587e-09
-1.297920949e-09
-1.064438957e-09
-8.33197116e-10
-6.055728291e-10
-3.790777428e-10
-1.543252675e-10
6.570873072e-11
2.816157548e-10
4.933722099e-10
7.005792768e-10
9.021265046e-10
1.097388449e-09
1.286574003e-09
1.469503703e-09
1.646259827e-09
1.816733248e-09
1.980562576e-09
2.137829842e-09
2.287380499e-09
2.429251105e-09
2.56356032e-09
2.689817298e-09
2.795311335e-09
2.877393898e-09
2.969823753e-09
3.096188778e-09
3.243146131e-09
3.381013656e-09
3.487411338e-09
3.563968659e-09
3.625159912e-09
3.668890824e-09
3.692529874e-09
3.728492926e-09
3.813075907e-09
3.915225461e-09
3.97341356e-09
3.982419216e-09
3.972674795e-09
3.96586152e-09
4.005756074e-09
4.033527432e-09
3.989012255e-09
4.071809018e-09
4.347190506e-09
1.705543948e-09
-1.163583016e-09
-1.254853048e-09
-1.343051192e-09
-1.398238311e-09
)


101
(
-3.642147254e-14
-3.021634353e-13
-1.321011039e-12
-3.3659163e-12
-6.468502667e-12
-1.061674518e-11
-1.619624717e-11
-2.361578094e-11
-3.324540012e-11
-4.579321439e-11
-6.221877406e-11
-8.351234841e-11
-1.117609431e-10
-1.494361637e-10
-1.986725673e-10
-2.632160686e-10
-3.493758634e-10
-4.590238781e-10
-6.00157553e-10
-7.800231956e-10
-9.935028284e-10
-1.247444673e-09
-1.548070268e-09
-1.884073194e-09
-2.241274935e-09
-2.608325054e-09
-2.972192475e-09
-3.318632617e-09
-3.63575824e-09
-3.912726214e-09
-4.141917756e-09
-4.323101778e-09
-4.444802286e-09
-4.519436941e-09
-4.559232557e-09
-4.563007579e-09
-4.543203463e-09
-4.478952212e-09
-4.347911427e-09
-4.170947317e-09
-3.981314041e-09
-3.786462616e-09
-3.584802935e-09
-3.381401283e-09
-3.172404496e-09
-2.956928507e-09
-2.735308983e-09
-2.50769601e-09
-2.275818095e-09
-2.040930155e-09
-1.805138718e-09
-1.568856642e-09
-1.332812325e-09
-1.097680186e-09
-8.645543081e-10
-6.326288233e-10
-4.020101402e-10
-1.742458324e-10
5.028934658e-11
2.712296469e-10
4.883363083e-10
7.009922545e-10
9.083208111e-10
1.10999465e-09
1.305944897e-09
1.496292589e-09
1.681119698e-09
1.859554768e-09
2.031644421e-09
2.196983954e-09
2.355006757e-09
2.505329307e-09
2.648487109e-09
2.780181627e-09
2.89322789e-09
2.995050843e-09
3.105932572e-09
3.240991841e-09
3.393773115e-09
3.536874259e-09
3.648483326e-09
3.732031148e-09
3.799393175e-09
3.851922693e-09
3.891681152e-09
3.945329856e-09
4.043114424e-09
4.144933111e-09
4.193146549e-09
4.204295392e-09
4.200664408e-09
4.209031287e-09
4.245808405e-09
4.232131406e-09
4.358708686e-09
4.775713338e-09
1.612377144e-09
-1.90278555e-09
-2.041898712e-09
-2.177057064e-09
-2.259400454e-09
)


101
(
-3.29929236e-14
-2.8930654e-13
-1.274933679e-12
-3.255712195e-12
-6.260228018e-12
-1.027207376e-11
-1.564528114e-11
-2.277001045e-11
-3.199048259e-11
-4.395735596e-11
-5.95555768e-11
-7.971216994e-11
-1.062740929e-10
-1.415559963e-10
-1.875938634e-10
-2.476929695e-10
-3.274713784e-10
-4.295871805e-10
-5.603308648e-10
-7.273323485e-10
-9.28326361e-10
-1.166888525e-09
-1.450038118e-09
-1.771714495e-09
-2.119154878e-09
-2.481209166e-09
-2.846052043e-09
-3.199931823e-09
-3.530945207e-09
-3.828121038e-09
-4.082669153e-09
-4.292753922e-09
-4.443636101e-09
-4.546344477e-09
-4.613914721e-09
-4.64301752e-09
-4.645541704e-09
-4.610591277e-09
-4.517612941e-09
-4.373141909e-09
-4.202776551e-09
-4.017370744e-09
-3.822339947e-09
-3.625996629e-09
-3.424348618e-09
-3.216295142e-09
-3.001622713e-09
-2.779947664e-09
-2.552779286e-09
-2.321300533e-09
-2.087427348e-09
-1.85167592e-09
-1.615164328e-09
-1.378499771e-09
-1.142478244e-09
-9.070129131e-10
-6.724878149e-10
-4.395723504e-10
-2.087053377e-10
1.940777688e-11
2.444781523e-10
4.660134834e-10
6.832585315e-10
8.956617173e-10
1.103014426e-09
1.30530462e-09
1.502534832e-09
1.694178574e-09
1.880196916e-09
2.060259699e-09
2.233461826e-09
2.398890542e-09
2.556878866e-09
2.706998965e-09
2.845599684e-09
2.970703529e-09
3.088011147e-09
3.213760372e-09
3.362046018e-09
3.524510884e-09
3.672772572e-09
3.787370647e-09
3.875525294e-09
3.950694275e-09
4.01356763e-09
4.068686533e-09
4.145434534e-09
4.256976053e-09
4.347657263e-09
4.386958454e-09
4.398842068e-09
4.402433884e-09
4.431903302e-09
4.434417511e-09
4.607500235e-09
5.139238547e-09
1.453595368e-09
-2.689832555e-09
-2.865564043e-09
-3.033352036e-09
-3.135487761e-09
)


101
(
-2.970650935e-14
-2.768204669e-13
-1.229962632e-12
-3.147985448e-12
-6.056618112e-12
-9.935447817e-12
-1.510869527e-11
-2.194790483e-11
-3.077349378e-11
-4.21825064e-11
-5.699026309e-11
-7.606293815e-11
-1.010345891e-10
-1.340575242e-10
-1.770695859e-10
-2.329923277e-10
-3.068056602e-10
-4.01666683e-10
-5.226476103e-10
-6.772916362e-10
-8.656058898e-10
-1.089233565e-09
-1.355061987e-09
-1.660964953e-09
-1.996397245e-09
-2.35086671e-09
-2.713565455e-09
-3.07147376e-09
-3.412885914e-09
-3.726828219e-09
-4.003806378e-09
-4.24065225e-09
-4.420069939e-09
-4.551006306e-09
-4.646291717e-09
-4.701328581e-09
-4.727217707e-09
-4.718988916e-09
-4.660351613e-09
-4.550800403e-09
-4.407118643e-09
-4.237956375e-09
-4.052685819e-09
-3.864273735e-09
-3.670539965e-09
-3.470830805e-09
-3.264521722e-09
-3.050544308e-09
-2.830025016e-09
-2.604002064e-09
-2.374326752e-09
-2.141415353e-09
-1.906577993e-09
-1.670534566e-09
-1.434040389e-09
-1.197185073e-09
-9.607864986e-10
-7.251273376e-10
-4.904859015e-10
-2.576902505e-10
-2.687895406e-11
2.012920735e-10
4.261494191e-10
6.471400983e-10
8.637248412e-10
1.075822683e-09
1.283528399e-09
1.486444155e-09
1.684523534e-09
1.877427206e-09
2.064369134e-09
2.244129516e-09
2.416191593e-09
2.58104149e-09
2.738410473e-09
2.8860943e-09
3.02211135e-09
3.15319939e-09
3.295169259e-09
3.459308359e-09
3.632246699e-09
3.782844371e-09
3.89887933e-09
3.99400926e-09
4.078053052e-09
4.151561875e-09
4.22696831e-09
4.331548338e-09
4.446581307e-09
4.521878092e-09
4.551216414e-09
4.562017633e-09
4.589194294e-09
4.597390895e-09
4.815895215e-09
5.456570309e-09
1.259145109e-09
-3.498330215e-09
-3.756626861e-09
-4.004903042e-09
-4.131462274e-09
)


101
(
-2.655988977e-14
-2.647000624e-13
-1.186083906e-12
-3.04270516e-12
-5.85761101e-12
-9.606747778e-12
-1.458622997e-11
-2.114906122e-11
-2.959369323e-11
-4.046722555e-11
-5.452006206e-11
-7.256011826e-11
-9.603271746e-11
-1.269266657e-10
-1.670811275e-10
-2.190840491e-10
-2.873319279e-10
-3.752586352e-10
-4.87060567e-10
-6.299218438e-10
-8.055699264e-10
-1.014637426e-09
-1.263450307e-09
-1.552651209e-09
-1.874173474e-09
-2.21863489e-09
-2.576234714e-09
-2.934826349e-09
-3.283097361e-09
-3.610211806e-09
-3.906302607e-09
-4.167212279e-09
-4.37375241e-09
-4.532553687e-09
-4.655418638e-09
-4.736700227e-09
-4.786618396e-09
-4.803608954e-09
-4.775905871e-09
-4.700850705e-09
-4.588326807e-09
-4.44185736e-09
-4.271093605e-09
-4.092782441e-09
-3.907722521e-09
-3.716896872e-09
-3.519851302e-09
-3.31491271e-09
-3.102727325e-09
-2.883989097e-09
-2.66052916e-09
-2.432644245e-09
-2.201631286e-09
-1.968237626e-09
-1.733403457e-09
-1.497334231e-09
-1.261158662e-09
-1.025025595e-09
-7.890810553e-10
-5.541711405e-10
-3.201320681e-10
-8.781922769e-11
1.4210697e-10
3.692931937e-10
5.928864012e-10
8.124162422e-10
1.028104939e-09
1.239771385e-09
1.447617102e-09
1.651164825e-09
1.849527073e-09
2.041622345e-09
2.226420246e-09
2.404124315e-09
2.57586415e-09
2.741498531e-09
2.897667152e-09
3.043886103e-09
3.18848906e-09
3.348445406e-09
3.530216444e-09
3.710577538e-09
3.860715213e-09
3.98038152e-09
4.084020034e-09
4.178013667e-09
4.266129537e-09
4.368041405e-09
4.493828803e-09
4.603456737e-09
4.658806647e-09
4.679612903e-09
4.706074628e-09
4.71986564e-09
4.988686688e-09
5.733537975e-09
9.969312825e-10
-4.383816326e-09
-4.676118289e-09
-4.951553737e-09
-5.090529956e-09
)


101
(
-2.355072551e-14
-2.529401577e-13
-1.143283488e-12
-2.93984035e-12
-5.663144055e-12
-9.285850662e-12
-1.407761689e-11
-2.037305773e-11
-2.845031704e-11
-3.881003291e-11
-5.214214595e-11
-6.919902531e-11
-9.125875841e-11
-1.20148709e-10
-1.576085058e-10
-2.059361875e-10
-2.689996956e-10
-3.503408765e-10
-4.535167432e-10
-5.852090504e-10
-7.483767984e-10
-9.432444316e-10
-1.175443007e-09
-1.447436925e-09
-1.753545775e-09
-2.085823412e-09
-2.435566694e-09
-2.791613203e-09
-3.143219081e-09
-3.479826268e-09
-3.791450064e-09
-4.073261025e-09
-4.304777488e-09
-4.490423475e-09
-4.640443178e-09
-4.748031001e-09
-4.822369845e-09
-4.863652104e-09
-4.864016647e-09
-4.821528363e-09
-4.741942841e-09
-4.623082061e-09
-4.472046233e-09
-4.307256007e-09
-4.132318411e-09
-3.950865149e-09
-3.763622633e-09
-3.568655314e-09
-3.366073433e-09
-3.156112499e-09
-2.94057921e-09
-2.719582577e-09
-2.494300744e-09
-2.265556077e-09
-2.034356463e-09
-1.800895788e-09
-1.566844612e-09
-1.332339996e-09
-1.097412967e-09
-8.62963085e-10
-6.283127025e-10
-3.944249975e-10
-1.619405646e-10
6.889516494e-11
2.970850731e-10
5.21652623e-10
7.42769328e-10
9.604143727e-10
1.175022404e-09
1.386550371e-09
1.593688185e-09
1.795353812e-09
1.9904557e-09
2.178766878e-09
2.361719603e-09
2.540818439e-09
2.713595877e-09
2.876837945e-09
3.031959268e-09
3.191438737e-09
3.372178427e-09
3.568681272e-09
3.750899345e-09
3.900879243e-09
4.02619814e-09
4.139967434e-09
4.245877462e-09
4.354886689e-09
4.486021771e-09
4.621561047e-09
4.709017876e-09
4.748092913e-09
4.777496921e-09
4.797766436e-09
5.109191365e-09
5.943598936e-09
6.886884554e-10
-5.280111335e-09
-5.562805688e-09
-5.820980151e-09
-5.962943961e-09
)


101
(
-2.067666787e-14
-2.41535604e-13
-1.101547481e-12
-2.839360318e-12
-5.47315482e-12
-8.972632079e-12
-1.35825818e-11
-1.961945851e-11
-2.734258681e-11
-3.720942889e-11
-4.985366106e-11
-6.597489123e-11
-8.670308113e-11
-1.137086455e-10
-1.486308944e-10
-1.935157199e-10
-2.51756175e-10
-3.268774814e-10
-4.219566647e-10
-5.431123321e-10
-6.941255843e-10
-8.7517545e-10
-1.091225263e-09
-1.345844364e-09
-1.635443813e-09
-1.953673573e-09
-2.293047051e-09
-2.643492929e-09
-2.994989818e-09
-3.337395649e-09
-3.660805314e-09
-3.959988516e-09
-4.213713143e-09
-4.424476934e-09
-4.600755837e-09
-4.73442764e-09
-4.833362698e-09
-4.898334639e-09
-4.924449197e-09
-4.911887872e-09
-4.864819616e-09
-4.776461761e-09
-4.649919985e-09
-4.502860772e-09
-4.340421468e-09
-4.169111015e-09
-3.991869701e-09
-3.8072757e-09
-3.615163582e-09
-3.415297487e-09
-3.20901572e-09
-2.996223576e-09
-2.778457726e-09
-2.556156883e-09
-2.330047492e-09
-2.100884932e-09
-1.870768924e-09
-1.639495082e-09
-1.407276104e-09
-1.17531404e-09
-9.42464876e-10
-7.098454232e-10
-4.775675957e-10
-2.45509258e-10
-1.489831446e-11
2.128285276e-10
4.369244907e-10
6.57502689e-10
8.752253102e-10
1.091208312e-09
1.304279443e-09
1.513115426e-09
1.716127668e-09
1.911747537e-09
2.102314871e-09
2.290709621e-09
2.475329104e-09
2.652679727e-09
2.820226659e-09
2.984339522e-09
3.16199252e-09
3.362108188e-09
3.566092681e-09
3.746615121e-09
3.896648543e-09
4.030028827e-09
4.15389562e-09
4.275603854e-09
4.412803227e-09
4.568057508e-09
4.687886733e-09
4.74973478e-09
4.787779288e-09
4.815397639e-09
5.167412409e-09
6.093768638e-09
3.69985461e-10
-6.117317654e-09
-6.273913539e-09
-6.375732954e-09
-6.47399568e-09
)


101
(
-1.793536024e-14
-2.304812346e-13
-1.060861931e-12
-2.741234302e-12
-5.28758091e-12
-8.666967384e-12
-1.310084838e-11
-1.88878157e-11
-2.6269713e-11
-3.56639099e-11
-4.765176686e-11
-6.288294749e-11
-8.235627651e-11
-1.075914785e-10
-1.401270772e-10
-1.81789216e-10
-2.355474703e-10
-3.048215369e-10
-3.923148461e-10
-5.0357055e-10
-6.428614038e-10
-8.105190436e-10
-1.010935954e-09
-1.248271605e-09
-1.520650576e-09
-1.823324854e-09
-2.150111848e-09
-2.492130551e-09
-2.840221758e-09
-3.184795218e-09
-3.516186796e-09
-3.82896932e-09
-4.101620929e-09
-4.335106335e-09
-4.536148967e-09
-4.695218565e-09
-4.818627304e-09
-4.906855438e-09
-4.956937561e-09
-4.971573929e-09
-4.95525552e-09
-4.898218428e-09
-4.799480237e-09
-4.674308259e-09
-4.527551015e-09
-4.36784951e-09
-4.200807721e-09
-4.026634967e-09
-3.84547351e-09
-3.656405054e-09
-3.460117315e-09
-3.25645756e-09
-3.047298535e-09
-2.832868662e-09
-2.613706635e-09
-2.390110452e-09
-2.165217049e-09
-1.938611392e-09
-1.710064952e-09
-1.482073874e-09
-1.252782427e-09
-1.023305219e-09
-7.937261203e-10
-5.632249108e-10
-3.329437735e-10
-1.041574489e-10
1.211508432e-10
3.42509639e-10
5.611302551e-10
7.784833888e-10
9.940401823e-10
1.206073137e-09
1.413352364e-09
1.614070818e-09
1.809409589e-09
2.002461027e-09
2.193585658e-09
2.381064887e-09
2.558822805e-09
2.727959406e-09
2.903960172e-09
3.100575486e-09
3.313475703e-09
3.517120605e-09
3.690455626e-09
3.844195667e-09
3.984438224e-09
4.11836062e-09
4.262703849e-09
4.4307133e-09
4.578289186e-09
4.667138146e-09
4.719094096e-09
4.753018989e-09
5.140733205e-09
6.144791889e-09
9.15505225e-11
-6.722144174e-09
-6.567686249e-09
-6.254242854e-09
-6.190709293e-09
)


101
(
-1.532445452e-14
-2.197719061e-13
-1.021212999e-12
-2.64543182e-12
-5.106360584e-12
-8.368733458e-12
-1.263214331e-11
-1.817767211e-11
-2.523089002e-11
-3.417197584e-11
-4.553367485e-11
-5.991849389e-11
-7.820921664e-11
-1.017824181e-10
-1.320758633e-10
-1.707234954e-10
-2.203197781e-10
-2.841184705e-10
-3.645197556e-10
-4.665075448e-10
-5.945880089e-10
-7.493282712e-10
-9.346688469e-10
-1.155011858e-09
-1.409806345e-09
-1.695793662e-09
-2.008119076e-09
-2.33916401e-09
-2.680755128e-09
-3.023991125e-09
-3.359593244e-09
-3.682100002e-09
-3.970041445e-09
-4.223237087e-09
-4.446876232e-09
-4.630081391e-09
-4.777455095e-09
-4.888591583e-09
-4.961374104e-09
-5.000656222e-09
-5.012435904e-09
-4.985745049e-09
-4.916355497e-09
-4.816395601e-09
-4.68877418e-09
-4.54293316e-09
-4.386888784e-09
-4.223122519e-09
-4.052756172e-09
-3.874595836e-09
-3.688723955e-09
-3.494643858e-09
-3.294547322e-09
-3.089168541e-09
-2.878131202e-09
-2.660750775e-09
-2.441762862e-09
-2.220754658e-09
-1.996851578e-09
-1.773610877e-09
-1.549250752e-09
-1.324040641e-09
-1.098530589e-09
-8.721944394e-10
-6.451971786e-10
-4.170884241e-10
-1.912656373e-10
3.005418913e-11
2.47714588e-10
4.631292278e-10
6.775594334e-10
8.903132516e-10
1.099657258e-09
1.302489334e-09
1.498713253e-09
1.692171789e-09
1.88583712e-09
2.078112823e-09
2.262032458e-09
2.435068162e-09
2.609419621e-09
2.798641992e-09
3.009330872e-09
3.224971716e-09
3.414477117e-09
3.584932578e-09
3.740102528e-09
3.88284652e-09
4.033213674e-09
4.205570545e-09
4.371318151e-09
4.487330989e-09
4.555216096e-09
4.593475279e-09
5.007883136e-09
6.070744835e-09
-4.067583932e-11
-6.842817673e-09
-6.18648471e-09
-5.459704453e-09
-5.381690873e-09
)


101
(
-1.284158198e-14
-2.094024511e-13
-9.825867975e-13
-2.551922348e-12
-4.929432186e-12
-8.077807287e-12
-1.217619323e-11
-1.748856386e-11
-2.422530439e-11
-3.273213412e-11
-4.349663793e-11
-5.707690485e-11
-7.425306392e-11
-9.626694912e-11
-1.244562408e-10
-1.602859213e-10
-2.060199688e-10
-2.647085666e-10
-3.384945626e-10
-4.318343757e-10
-5.492730876e-10
-6.91621512e-10
-8.624800745e-10
-1.066271551e-09
-1.303413933e-09
-1.571955091e-09
-1.868318548e-09
-2.186171721e-09
-2.518425474e-09
-2.85700116e-09
-3.193144597e-09
-3.521489477e-09
-3.82088238e-09
-4.090315953e-09
-4.333747579e-09
-4.539197611e-09
-4.709544088e-09
-4.843084699e-09
-4.937612682e-09
-4.999392152e-09
-5.036321642e-09
-5.037713002e-09
-4.997400171e-09
-4.924546031e-09
-4.819178803e-09
-4.6900116e-09
-4.546433485e-09
-4.393153842e-09
-4.233040558e-09
-4.065471518e-09
-3.890155181e-09
-3.705819035e-09
-3.514842814e-09
-3.318553499e-09
-3.115499222e-09
-2.905196866e-09
-2.692977473e-09
-2.478074676e-09
-2.259154103e-09
-2.04025162e-09
-1.821055881e-09
-1.601033801e-09
-1.380576834e-09
-1.158925907e-09
-9.36352206e-10
-7.122154494e-10
-4.87457948e-10
-2.658002058e-10
-4.936757631e-11
1.634513189e-10
3.744787502e-10
5.846071709e-10
7.931011829e-10
9.960728495e-10
1.191426481e-09
1.382872564e-09
1.57560776e-09
1.766679716e-09
1.951774489e-09
2.127992026e-09
2.299323738e-09
2.478835404e-09
2.680175224e-09
2.894795692e-09
3.089949989e-09
3.269920043e-09
3.438147358e-09
3.587799844e-09
3.734476278e-09
3.900636168e-09
4.076329329e-09
4.212046936e-09
4.292561982e-09
4.331949828e-09
4.762596578e-09
5.86337642e-09
8.509983303e-11
-6.232929813e-09
-4.854923345e-09
-3.361086274e-09
-3.058245249e-09
)


101
(
-1.048437041e-14
-1.993677026e-13
-9.449694929e-13
-2.460675611e-12
-4.75673481e-12
-7.794067519e-12
-1.173272747e-11
-1.682002267e-11
-2.325214253e-11
-3.134291431e-11
-4.153796948e-11
-5.435364883e-11
-7.047931045e-11
-9.103095578e-11
-1.17247562e-10
-1.504446159e-10
-1.925963441e-10
-2.46528543e-10
-3.141583809e-10
-3.994538076e-10
-5.068556293e-10
-6.37385116e-10
-7.94391816e-10
-9.82189376e-10
-1.201863225e-09
-1.452543177e-09
-1.731824838e-09
-2.034633576e-09
-2.355021792e-09
-2.68585045e-09
-3.019025975e-09
-3.349398079e-09
-3.656335329e-09
-3.938245814e-09
-4.198145388e-09
-4.423301503e-09
-4.615027897e-09
-4.770143207e-09
-4.885575211e-09
-4.968124438e-09
-5.027406615e-09
-5.053922708e-09
-5.040970651e-09
-4.995565562e-09
-4.914604482e-09
-4.80474477e-09
-4.675437157e-09
-4.533159788e-09
-4.382805152e-09
-4.225106557e-09
-4.059961452e-09
-3.885225939e-09
-3.703063994e-09
-3.515077878e-09
-3.320016676e-09
-3.116914231e-09
-2.91139511e-09
-2.702594021e-09
-2.48857724e-09
-2.273702312e-09
-2.058728528e-09
-1.843309089e-09
-1.6276543e-09
-1.411333348e-09
-1.192890841e-09
-9.728911613e-10
-7.516719013e-10
-5.303596591e-10
-3.144188913e-10
-1.034345441e-10
1.047451985e-10
3.099906509e-10
5.146249577e-10
7.167191547e-10
9.1216726e-10
1.101039267e-09
1.288330883e-09
1.476067882e-09
1.659411633e-09
1.833599858e-09
2.001358138e-09
2.171383091e-09
2.357241492e-09
2.562846663e-09
2.756896245e-09
2.933231338e-09
3.104870859e-09
3.260652659e-09
3.398289014e-09
3.547147727e-09
3.721558761e-09
3.869502598e-09
3.952338144e-09
3.983097252e-09
4.421203269e-09
5.543607097e-09
6.253207603e-10
-4.628389046e-09
-2.49682982e-09
-3.635848808e-10
4.248687659e-11
)


101
(
-8.250444596e-15
-1.896624875e-13
-9.083472787e-13
-2.371661497e-12
-4.58820814e-12
-7.517394712e-12
-1.130147945e-11
-1.617157439e-11
-2.231058348e-11
-3.00028749e-11
-3.965506053e-11
-5.174430899e-11
-6.687981106e-11
-8.606085048e-11
-1.104297102e-10
-1.411686541e-10
-1.799987494e-10
-2.295136036e-10
-2.914270913e-10
-3.692615895e-10
-4.672539736e-10
-5.86577218e-10
-7.303917983e-10
-9.028370881e-10
-1.10542908e-09
-1.338144263e-09
-1.599599224e-09
-1.885901092e-09
-2.192253045e-09
-2.512544091e-09
-2.839461699e-09
-3.168184085e-09
-3.47880139e-09
-3.769315854e-09
-4.042012255e-09
-4.283769551e-09
-4.494614547e-09
-4.669934326e-09
-4.805309086e-09
-4.907247176e-09
-4.986510452e-09
-5.035055198e-09
-5.046718394e-09
-5.027554137e-09
-4.971820024e-09
-4.883342341e-09
-4.7702928e-09
-4.639893332e-09
-4.498865789e-09
-4.350191875e-09
-4.194574974e-09
-4.028721919e-09
-3.85468167e-09
-3.6743816e-09
-3.486846043e-09
-3.28986701e-09
-3.089978033e-09
-2.886616554e-09
-2.677103243e-09
-2.465623463e-09
-2.253731074e-09
-2.04210148e-09
-1.829684424e-09
-1.616359289e-09
-1.401632081e-09
-1.186289935e-09
-9.684208647e-10
-7.490256303e-10
-5.324591591e-10
-3.202060751e-10
-1.130045519e-10
8.825065541e-11
2.873101699e-10
4.866119866e-10
6.817915122e-10
8.705482189e-10
1.055401858e-09
1.236168358e-09
1.414059306e-09
1.585784506e-09
1.750041972e-09
1.910335777e-09
2.077295906e-09
2.268924403e-09
2.457198648e-09
2.621252327e-09
2.784634368e-09
2.941579694e-09
3.071226181e-09
3.194454043e-09
3.350966372e-09
3.500214441e-09
3.581931191e-09
3.593833045e-09
4.027140889e-09
5.172005424e-09
1.649845429e-09
-1.986758877e-09
7.608779517e-10
3.460369699e-09
4.054940977e-09
)


101
(
-6.137411807e-15
-1.802816194e-13
-8.727063506e-13
-2.284850013e-12
-4.42379231e-12
-7.247670475e-12
-1.088218576e-11
-1.55427464e-11
-2.13998085e-11
-2.871059349e-11
-3.784536806e-11
-4.92445925e-11
-6.344674984e-11
-8.134351058e-11
-1.039831542e-10
-1.324283091e-10
-1.68179167e-10
-2.13598907e-10
-2.70215195e-10
-3.411481558e-10
-4.303661409e-10
-5.391269857e-10
-6.704362942e-10
-8.282310054e-10
-1.014283947e-09
-1.229200864e-09
-1.472445348e-09
-1.741184286e-09
-2.031722469e-09
-2.339023892e-09
-2.656675795e-09
-2.980304022e-09
-3.290864098e-09
-3.586099201e-09
-3.86773513e-09
-4.122558666e-09
-4.349623407e-09
-4.543111428e-09
-4.697173799e-09
-4.817326714e-09
-4.914597861e-09
-4.982252298e-09
-5.015331427e-09
-5.020008905e-09
-4.988833219e-09
-4.922786487e-09
-4.827830449e-09
-4.710630477e-09
-4.579065295e-09
-4.438449973e-09
-4.290939778e-09
-4.132832927e-09
-3.966076933e-09
-3.792414951e-09
-3.61089351e-09
-3.419035207e-09
-3.223430081e-09
-3.024462354e-09
-2.818701415e-09
-2.609056531e-09
-2.39844908e-09
-2.189254625e-09
-1.978316995e-09
-1.764960204e-09
-1.552092403e-09
-1.339217699e-09
-1.124401829e-09
-9.06285357e-10
-6.875995498e-10
-4.735822307e-10
-2.642992403e-10
-6.284174181e-11
1.331550468e-10
3.289544103e-10
5.22692434e-10
7.142833368e-10
8.996098899e-10
1.075016859e-09
1.248172131e-09
1.414316732e-09
1.573922405e-09
1.729691722e-09
1.88092422e-09
2.04955636e-09
2.226729291e-09
2.383981966e-09
2.529618069e-09
2.676757347e-09
2.803361109e-09
2.894914949e-09
3.025648782e-09
3.157119301e-09
3.226978139e-09
3.226739977e-09
3.650015824e-09
4.801563518e-09
3.084965145e-09
1.464910266e-09
4.551617983e-09
7.670393219e-09
8.561949803e-09
)


101
(
-4.142873153e-15
-1.712199166e-13
-8.380329767e-13
-2.200211482e-12
-4.263428431e-12
-6.98477827e-12
-1.047458757e-11
-1.493307015e-11
-2.051900519e-11
-2.746465856e-11
-3.610643447e-11
-4.685036002e-11
-6.01726265e-11
-7.686629551e-11
-9.788898452e-11
-1.241951362e-10
-1.570923288e-10
-1.987212019e-10
-2.504384131e-10
-3.150026433e-10
-3.960763129e-10
-4.949377135e-10
-6.144505207e-10
-7.583401291e-10
-9.285134997e-10
-1.126021958e-09
-1.350998274e-09
-1.601517073e-09
-1.874884337e-09
-2.167128632e-09
-2.472825641e-09
-2.788189362e-09
-3.095181686e-09
-3.391368596e-09
-3.678045029e-09
-3.942151409e-09
-4.182053349e-09
-4.391048269e-09
-4.562019251e-09
-4.699068064e-09
-4.812757497e-09
-4.897137283e-09
-4.948401525e-09
-4.973598818e-09
-4.964889055e-09
-4.921156778e-09
-4.845488055e-09
-4.742925837e-09
-4.621589344e-09
-4.488187246e-09
-4.346968753e-09
-4.195275514e-09
-4.034604559e-09
-3.866129519e-09
-3.689141068e-09
-3.501003552e-09
-3.308003344e-09
-3.111457589e-09
-2.907933347e-09
-2.699489332e-09
-2.488146901e-09
-2.277989017e-09
-2.065739972e-09
-1.850036614e-09
-1.636298513e-09
-1.423272561e-09
-1.208246081e-09
-9.890202708e-10
-7.682660533e-10
-5.510085094e-10
-3.364177492e-10
-1.308839914e-10
6.723869582e-11
2.631601194e-10
4.543079142e-10
6.47076361e-10
8.364339901e-10
1.014903358e-09
1.18479663e-09
1.343937182e-09
1.501715254e-09
1.653094634e-09
1.793764319e-09
1.945581525e-09
2.10368008e-09
2.24884074e-09
2.37997537e-09
2.508881244e-09
2.62782805e-09
2.689362484e-09
2.791093706e-09
2.900891281e-09
2.947117465e-09
2.937323057e-09
3.345883809e-09
4.48568594e-09
4.814391855e-09
5.363397462e-09
8.319882634e-09
1.094518022e-08
1.157752226e-08
)


101
(
-2.264422281e-15
-1.624721932e-13
-8.043134673e-13
-2.117716419e-12
-4.10705826e-12
-6.728603231e-12
-1.00784308e-11
-1.434208233e-11
-1.966736891e-11
-2.626367572e-11
-3.443587749e-11
-4.455763036e-11
-5.705027175e-11
-7.26170797e-11
-9.212893836e-11
-1.164419258e-10
-1.46695499e-10
-1.848196863e-10
-2.320140417e-10
-2.90713125e-10
-3.642579107e-10
-4.538911749e-10
-5.623329605e-10
-6.930948081e-10
-8.481310699e-10
-1.028796422e-09
-1.235728391e-09
-1.467743541e-09
-1.723012024e-09
-1.998562052e-09
-2.28999914e-09
-2.594240483e-09
-2.894411519e-09
-3.187989367e-09
-3.475901056e-09
-3.745420179e-09
-3.994466e-09
-4.21578738e-09
-4.401296567e-09
-4.553654457e-09
-4.682324383e-09
-4.781395998e-09
-4.847986159e-09
-4.890299404e-09
-4.900976336e-09
-4.877814549e-09
-4.821437875e-09
-4.734805412e-09
-4.624844328e-09
-4.498351544e-09
-4.361816835e-09
-4.214797243e-09
-4.058517606e-09
-3.893785304e-09
-3.720266588e-09
-3.534011516e-09
-3.341306653e-09
-3.145061606e-09
-2.941915238e-09
-2.732548643e-09
-2.518343708e-09
-2.304150851e-09
-2.087326355e-09
-1.868077593e-09
-1.648944046e-09
-1.430627599e-09
-1.213593314e-09
-9.917569182e-10
-7.671316734e-10
-5.42890699e-10
-3.204989919e-10
-1.076310577e-10
9.769046739e-11
2.980231098e-10
4.90468296e-10
6.814596282e-10
8.773583638e-10
1.06399714e-09
1.233705543e-09
1.393004781e-09
1.548457504e-09
1.692576774e-09
1.827675484e-09
1.966872758e-09
2.107339019e-09
2.239368002e-09
2.355149589e-09
2.461982097e-09
2.565560648e-09
2.60525737e-09
2.674578029e-09
2.761541465e-09
2.780738432e-09
2.756178191e-09
3.159191337e-09
4.302457549e-09
6.599043861e-09
9.103854254e-09
1.149799252e-08
1.348626105e-08
1.403251958e-08
)


101
(
-4.996322008e-16
-1.540330433e-13
-7.715340047e-13
-2.03733531e-12
-3.954623415e-12
-6.479030939e-12
-9.693464222e-12
-1.376932706e-11
-1.884410657e-11
-2.510626057e-11
-3.283136457e-11
-4.236256228e-11
-5.407285861e-11
-6.858429885e-11
-8.668539782e-11
-1.091425822e-10
-1.36948164e-10
-1.718354277e-10
-2.148610489e-10
-2.681685863e-10
-3.34777153e-10
-4.158528498e-10
-5.139591692e-10
-6.323931366e-10
-7.730961161e-10
-9.376142267e-10
-1.126952356e-09
-1.340510317e-09
-1.577167046e-09
-1.834838923e-09
-2.110142235e-09
-2.400771449e-09
-2.691168628e-09
-2.978839563e-09
-3.264379298e-09
-3.535503586e-09