/*--------------------------------*- C++ -*----------------------------------*\
| =========                 |                                                 |
| \\      /  F ield         | OpenFOAM: The Open Source CFD Toolbox           |
|  \\    /   O peration     | Version:  2.3.1                                 |
|   \\  /    A nd           | Web:      www.OpenFOAM.org                      |
|    \\/     M anipulation  |                                                 |
\*---------------------------------------------------------------------------*/
FoamFile
{
    version     2.0;
    format      ascii;
    class       dictionary;
    location    "constant";
    object      DPSI3;
}
// * * * * * * * * * * * * * * * * * * * * * * * * * * * * * * * * * * * * * //

DPSI3_table
101
(

101
(
-3.194707818e-10
-5.932300665e-10
-9.851640855e-10
-1.104619535e-09
-1.050417343e-09
-9.130182715e-10
-7.359356685e-10
-5.436644488e-10
-3.568049192e-10
-1.80504545e-10
-1.655005699e-11
1.280171804e-10
2.549361528e-10
3.619503306e-10
4.44482355e-10
5.030835658e-10
5.368851575e-10
5.46323122e-10
5.332172351e-10
5.031522255e-10
4.636543106e-10
4.151037378e-10
3.624569886e-10
3.127575477e-10
2.665227312e-10
2.244301743e-10
1.873247313e-10
1.549872411e-10
1.273668839e-10
1.04361703e-10
8.539838307e-11
7.04958707e-11
5.696489803e-11
4.559173963e-11
3.755738889e-11
2.666698999e-11
1.439984423e-11
1.581504677e-11
2.02336708e-11
1.643676428e-11
1.365494166e-11
1.139509419e-11
9.399571292e-12
7.869980168e-12
6.579818655e-12
5.485035069e-12
4.583221136e-12
3.822199766e-12
3.198044016e-12
2.672043082e-12
2.241882412e-12
1.876607128e-12
1.571921323e-12
1.315043087e-12
1.101643272e-12
9.134224881e-13
7.594331402e-13
6.3471094e-13
5.250251145e-13
4.351127833e-13
3.588901343e-13
2.98485991e-13
2.46336982e-13
1.995679712e-13
1.616879813e-13
1.321040046e-13
1.064298499e-13
8.494355427e-14
6.766381701e-14
5.36154498e-14
4.203858173e-14
3.269388522e-14
2.511677477e-14
1.660786997e-14
1.091722426e-14
1.103099246e-14
9.968292802e-15
7.163362797e-15
5.152822527e-15
3.64909312e-15
2.473827662e-15
1.643627125e-15
9.637035544e-16
5.543376806e-16
4.845266469e-16
3.651039803e-16
2.153327387e-16
1.231655012e-16
5.948005816e-17
3.218395084e-17
2.611585119e-17
1.311902929e-17
5.578270185e-18
2.448556678e-18
1.132563444e-18
4.507375379e-19
9.490600756e-20
-5.363373644e-26
3.368333829e-36
3.50227617e-36
-7.478021378e-36
)


101
(
-3.13895928e-10
-5.840507411e-10
-9.725301531e-10
-1.09411034e-09
-1.044024326e-09
-9.108857969e-10
-7.379717293e-10
-5.496532731e-10
-3.658287213e-10
-1.920993457e-10
-3.016153783e-11
1.135750556e-10
2.398692452e-10
3.471599919e-10
4.314977235e-10
4.927694683e-10
5.301087599e-10
5.44107949e-10
5.35767652e-10
5.099005523e-10
4.736963074e-10
4.281032004e-10
3.774305759e-10
3.280933164e-10
2.8167885e-10
2.390220129e-10
2.009292262e-10
1.674451507e-10
1.385324844e-10
1.14118407e-10
9.379823603e-11
7.754020002e-11
6.351136759e-11
5.155543581e-11
4.248440466e-11
3.288182134e-11
2.211191989e-11
1.808636428e-11
1.912907636e-11
1.762559289e-11
1.499157016e-11
1.254531165e-11
1.040040097e-11
8.668798136e-12
7.250911127e-12
6.066572516e-12
5.088641067e-12
4.270038211e-12
3.587560366e-12
3.014299964e-12
2.536052041e-12
2.134706547e-12
1.802463288e-12
1.524225665e-12
1.285145142e-12
1.077030535e-12
9.013503394e-13
7.56350983e-13
6.336234232e-13
5.305524023e-13
4.435470154e-13
3.713544901e-13
3.109407466e-13
2.588509278e-13
2.136444065e-13
1.758869456e-13
1.447329838e-13
1.185592061e-13
9.662837987e-14
7.816923296e-14
6.278702096e-14
5.008296863e-14
3.986479175e-14
3.085787114e-14
2.297623153e-14
1.779710696e-14
1.428711553e-14
1.11147559e-14
8.412049189e-15
6.242954584e-15
4.530751595e-15
3.220763965e-15
2.21527145e-15
1.468883806e-15
9.794202357e-16
6.624411727e-16
4.423044872e-16
2.861114692e-16
1.742111833e-16
1.024041857e-16
6.021482346e-17
3.481907666e-17
1.971113537e-17
1.032644163e-17
5.176493217e-18
2.782469397e-18
8.993225311e-19
-2.373140634e-19
-7.498178746e-19
-1.791113025e-18
-2.456351067e-18
)


101
(
-3.083583387e-10
-5.749427087e-10
-9.600592285e-10
-1.08394189e-09
-1.038294565e-09
-9.098661842e-10
-7.416464038e-10
-5.578581972e-10
-3.776952139e-10
-2.070887577e-10
-4.764042156e-11
9.489408461e-11
2.204288005e-10
3.279476603e-10
4.14158792e-10
4.784125094e-10
5.197390538e-10
5.388861688e-10
5.360209755e-10
5.15238453e-10
4.833597943e-10
4.413905925e-10
3.934246265e-10
3.453464882e-10
2.992664693e-10
2.56372528e-10
2.175507925e-10
1.830180733e-10
1.528397039e-10
1.269914878e-10
1.051809128e-10
8.74277199e-11
7.236184402e-11
5.964422771e-11
4.963946975e-11
3.986462582e-11
2.97712015e-11
2.338971226e-11
2.125437942e-11
1.963707287e-11
1.736888937e-11
1.486182053e-11
1.24796684e-11
1.048605303e-11
8.833151868e-12
7.449433667e-12
6.310214878e-12
5.361020178e-12
4.563011575e-12
3.887958547e-12
3.314450579e-12
2.824335669e-12
2.410972688e-12
2.067392121e-12
1.77630946e-12
1.522952384e-12
1.301809133e-12
1.110800636e-12
9.481076013e-13
8.088209155e-13
6.895415211e-13
5.89378506e-13
5.034400016e-13
4.285498193e-13
3.637191135e-13
3.081815858e-13
2.605377516e-13
2.189360972e-13
1.837488843e-13
1.538922444e-13
1.27987356e-13
1.052392608e-13
8.593210118e-14
7.018170623e-14
5.640469006e-14
4.476930498e-14
3.533249223e-14
2.764368119e-14
2.150587123e-14
1.660375762e-14
1.265349827e-14
9.487824065e-15
6.989295046e-15
5.06734584e-15
3.582057768e-15
2.448114241e-15
1.636993666e-15
1.116755553e-15
7.535079247e-16
4.872202133e-16
3.092872417e-16
1.86715778e-16
1.108050528e-16
6.731325145e-17
3.88089919e-17
2.560048921e-17
6.895256942e-18
-1.17316359e-17
-3.304703823e-17
-6.385835401e-17
-7.821348937e-17
)


101
(
-3.028576563e-10
-5.65903923e-10
-9.477430545e-10
-1.074093277e-09
-1.033186947e-09
-9.098917841e-10
-7.468593566e-10
-5.681439708e-10
-3.922329095e-10
-2.252816896e-10
-6.878728914e-11
7.216822035e-11
1.967706883e-10
3.044233948e-10
3.924974042e-10
4.599229942e-10
5.055738347e-10
5.303591232e-10
5.335975089e-10
5.186980801e-10
4.921200638e-10
4.545394135e-10
4.100284164e-10
3.641006163e-10
3.190011502e-10
2.762881329e-10
2.370669357e-10
2.016815786e-10
1.703297482e-10
1.43084316e-10
1.197139482e-10
1.00342912e-10
8.384419818e-11
7.003007004e-11
5.940750404e-11
4.878481784e-11
3.829268567e-11
3.085803559e-11
2.625997705e-11
2.33745981e-11
2.093836756e-11
1.833675241e-11
1.57259477e-11
1.342684301e-11
1.144103807e-11
9.752371725e-12
8.354122806e-12
7.1938489e-12
6.220653982e-12
5.392084006e-12
4.680435971e-12
4.054349364e-12
3.513569322e-12
3.057863994e-12
2.669263819e-12
2.336194471e-12
2.04585496e-12
1.783956797e-12
1.556025736e-12
1.355734186e-12
1.178073819e-12
1.026712725e-12
8.953793362e-13
7.803686163e-13
6.813205391e-13
5.938329967e-13
5.160152765e-13
4.447999829e-13
3.814379928e-13
3.289059362e-13
2.833256192e-13
2.412484078e-13
2.032668971e-13
1.713245922e-13
1.437133362e-13
1.195178397e-13
9.824616099e-14
7.946185309e-14
6.343365268e-14
5.027592295e-14
3.984404793e-14
3.127542628e-14
2.406510264e-14
1.833821484e-14
1.376153607e-14
1.006838683e-14
7.055866028e-15
4.851459351e-15
3.434003625e-15
2.394430048e-15
1.582635751e-15
9.96916918e-16
6.289664793e-16
4.03063546e-16
2.540670605e-16
1.869949002e-16
1.819019174e-17
-2.121903263e-16
-7.598374459e-16
-1.805709495e-15
-2.42427716e-15
)


101
(
-2.97393557e-10
-5.569323996e-10
-9.355735733e-10
-1.064544185e-09
-1.028661787e-09
-9.108981259e-10
-7.535167757e-10
-5.803864509e-10
-4.092873487e-10
-2.465121334e-10
-9.343532623e-11
4.554567843e-11
1.689968888e-10
2.766381306e-10
3.664737186e-10
4.371437836e-10
4.873382903e-10
5.181121757e-10
5.279837553e-10
5.197007161e-10
4.993343985e-10
4.669392647e-10
4.266610569e-10
3.837820938e-10
3.404240074e-10
2.984563056e-10
2.592532556e-10
2.232991853e-10
1.909540038e-10
1.624444038e-10
1.375505977e-10
1.16514849e-10
9.829934435e-11
8.295012556e-11
7.095231809e-11
5.996719162e-11
4.934407741e-11
4.046481329e-11
3.394727625e-11
2.947490037e-11
2.620137113e-11
2.321649675e-11
2.029046401e-11
1.765146873e-11
1.527994673e-11
1.3198995e-11
1.144236683e-11
9.975577011e-12
8.744831957e-12
7.69805863e-12
6.802441814e-12
5.999138726e-12
5.279702076e-12
4.65872365e-12
4.135775177e-12
3.678426375e-12
3.275270281e-12
2.915738963e-12
2.59995447e-12
2.317069882e-12
2.050208942e-12
1.817660333e-12
1.612854368e-12
1.430388329e-12
1.279264916e-12
1.146893858e-12
1.021157582e-12
9.020550732e-13
7.911670085e-13
6.995551644e-13
6.215824993e-13
5.461871924e-13
4.749074909e-13
4.110424358e-13
3.556676273e-13
3.077828702e-13
2.639106791e-13
2.224540315e-13
1.852421844e-13
1.520408858e-13
1.248514882e-13
1.023563319e-13
8.219099658e-14
6.526502534e-14
5.157588051e-14
4.012458487e-14
3.006723961e-14
2.156384047e-14
1.549800759e-14
1.142664979e-14
8.149105184e-15
5.462866195e-15
3.562057236e-15
2.275474787e-15
1.507163402e-15
1.154506903e-15
-3.887212106e-16
-2.958582105e-15
-1.155669208e-14
-2.289870958e-14
-2.703596807e-14
)


101
(
-2.919657366e-10
-5.480262156e-10
-9.235429271e-10
-1.055274868e-09
-1.024680781e-09
-9.128236353e-10
-7.615321322e-10
-5.944746469e-10
-4.28724592e-10
-2.706436551e-10
-1.214642976e-10
1.511978439e-11
1.371418277e-10
2.445573325e-10
3.359698127e-10
4.098296092e-10
4.646573479e-10
5.016535713e-10
5.185762518e-10
5.175509961e-10
5.042504527e-10
4.778643554e-10
4.426288754e-10
4.037261423e-10
3.629628682e-10
3.224242544e-10
2.837799813e-10
2.476566308e-10
2.145933534e-10
1.849755851e-10
1.587362965e-10
1.361664737e-10
1.160662773e-10
9.89158431e-11
8.540573056e-11
7.353434468e-11
6.249096682e-11
5.25652139e-11
4.4355281e-11
3.816292344e-11
3.365046868e-11
2.99023547e-11
2.645152698e-11
2.33885632e-11
2.059289073e-11
1.805682577e-11
1.583084049e-11
1.392801066e-11
1.234179376e-11
1.101304686e-11
9.890340907e-12
8.87707646e-12
7.935227654e-12
7.085644386e-12
6.36956852e-12
5.753182832e-12
5.203025494e-12
4.69878283e-12
4.259464426e-12
3.880595794e-12
3.49802444e-12
3.15026935e-12
2.843604919e-12
2.554418774e-12
2.316285103e-12
2.120326274e-12
1.936802659e-12
1.760486635e-12
1.575698091e-12
1.413383752e-12
1.286555685e-12
1.165926425e-12
1.047439005e-12
9.326006434e-13
8.280028758e-13
7.336862584e-13
6.49796313e-13
5.748551845e-13
5.012261405e-13
4.271621861e-13
3.603393099e-13
3.064033677e-13
2.593363725e-13
2.147936143e-13
1.774117013e-13
1.462840688e-13
1.176895172e-13
9.030591154e-14
6.779115336e-14
5.1851532e-14
3.971754289e-14
2.84132979e-14
1.991132453e-14
1.365803172e-14
9.350461134e-15
7.349152559e-15
-5.85549836e-15
-3.129716302e-14
-1.360298597e-13
-2.715856257e-13
-3.181858147e-13
)


101
(
-2.86573926e-10
-5.391835157e-10
-9.116434462e-10
-1.04626609e-09
-1.021206858e-09
-9.156092317e-10
-7.708232918e-10
-6.103049606e-10
-4.504210504e-10
-2.975525388e-10
-1.52771854e-10
-1.903857268e-11
1.012148891e-10
2.081160868e-10
3.008365648e-10
3.777031977e-10
4.371133454e-10
4.804377648e-10
5.047026888e-10
5.114674853e-10
5.060185753e-10
4.864604613e-10
4.570928531e-10
4.231316303e-10
3.859068488e-10
3.475875443e-10
3.101668643e-10
2.744139656e-10
2.410350856e-10
2.105985236e-10
1.832039575e-10
1.59282695e-10
1.37345258e-10
1.182140164e-10
1.030155386e-10
8.991491032e-11
7.815533859e-11
6.731211183e-11
5.762537684e-11
4.970902139e-11
4.37210897e-11
3.887176105e-11
3.459976082e-11
3.094461008e-11
2.764873254e-11
2.460886768e-11
2.182544044e-11
1.934923149e-11
1.728084014e-11
1.556563377e-11
1.415018143e-11
1.29026178e-11
1.171456967e-11
1.058029279e-11
9.601884906e-12
8.785196977e-12
8.054884697e-12
7.377574951e-12
6.781733115e-12
6.25792976e-12
5.727024701e-12
5.239325323e-12
4.810380139e-12
4.390176889e-12
4.017454659e-12
3.722416769e-12
3.465912703e-12
3.224020421e-12
2.966121459e-12
2.706844527e-12
2.48573506e-12
2.295721229e-12
2.120583663e-12
1.948264916e-12
1.778653958e-12
1.608973395e-12
1.457856801e-12
1.334177513e-12
1.211535307e-12
1.0787766e-12
9.400066001e-13
8.215984925e-13
7.256655545e-13
6.275519111e-13
5.389796835e-13
4.661076278e-13
3.993039511e-13
3.283530905e-13
2.597571744e-13
2.097659474e-13
1.726414336e-13
1.32797997e-13
9.852739163e-14
7.35517611e-14
5.6076895e-14
4.737623523e-14
-7.48292495e-14
-2.944738848e-13
-1.02687324e-12
-1.887227804e-12
-2.131245355e-12
)


101
(
-2.812178844e-10
-5.304024962e-10
-8.998676305e-10
-1.037499524e-09
-1.018206035e-09
-9.192027116e-10
-7.813186149e-10
-6.277803029e-10
-4.742582567e-10
-3.271292175e-10
-1.872738255e-10
-5.688305237e-11
6.120035512e-11
1.672205509e-10
2.608905567e-10
3.404715442e-10
4.04273521e-10
4.538833479e-10
4.856374881e-10
5.005962875e-10
5.037017138e-10
4.917875484e-10
4.691286806e-10
4.410983748e-10
4.084366164e-10
3.732149578e-10
3.377678446e-10
3.030401433e-10
2.698841938e-10
2.390404948e-10
2.107799652e-10
1.857689992e-10
1.621729226e-10
1.410324737e-10
1.239914366e-10
1.093892666e-10
9.666811373e-11
8.490296764e-11
7.39065884e-11
6.436790111e-11
5.681231178e-11
5.059520363e-11
4.517593806e-11
4.06841957e-11
3.673003761e-11
3.31124288e-11
2.973597574e-11
2.659310486e-11
2.389221739e-11
2.164799888e-11
1.984436824e-11
1.829880223e-11
1.68204596e-11
1.538216054e-11
1.409240545e-11
1.29886457e-11
1.203341112e-11
1.116584706e-11
1.039886803e-11
9.727989879e-12
9.02342471e-12
8.355888324e-12
7.756660678e-12
7.169934503e-12
6.630399395e-12
6.196607939e-12
5.83308329e-12
5.508784873e-12
5.184958856e-12
4.823283969e-12
4.493667329e-12
4.211788847e-12
3.960306979e-12
3.725068641e-12
3.491329172e-12
3.235494323e-12
2.981423831e-12
2.774671515e-12
2.595179929e-12
2.413674342e-12
2.1956369e-12
1.964068825e-12
1.782763926e-12
1.609567017e-12
1.428939611e-12
1.280724272e-12
1.154326511e-12
1.005616494e-12
8.430253529e-13
7.143281807e-13
6.21811849e-13
5.148994709e-13
4.036860653e-13
3.261906305e-13
2.684752166e-13
2.480001051e-13
-5.161294385e-13
-1.816516906e-12
-5.363122083e-12
-9.421752467e-12
-1.053617373e-11
)


101
(
-2.758974006e-10
-5.216814283e-10
-8.882081603e-10
-1.028957395e-09
-1.01564639e-09
-9.235579504e-10
-7.92957916e-10
-6.468107998e-10
-5.001225644e-10
-3.592749184e-10
-2.249069963e-10
-9.839368371e-11
1.70563922e-11
1.21753588e-10
2.159275269e-10
2.97821647e-10
3.656931292e-10
4.213945769e-10
4.606241712e-10
4.840227281e-10
4.962695125e-10
4.928022003e-10
4.776929504e-10
4.565702527e-10
4.295661753e-10
3.984183125e-10
3.657706916e-10
3.328164579e-10
3.005567432e-10
2.698614554e-10
2.411390052e-10
2.1537265e-10
1.904049142e-10
1.674096446e-10
1.485176671e-10
1.322427481e-10
1.183433509e-10
1.055503302e-10
9.333101206e-11
8.231061299e-11
7.315965125e-11
6.542202052e-11
5.864806399e-11
5.306753157e-11
4.821513725e-11
4.385231033e-11
3.979728574e-11
3.5898913e-11
3.244563069e-11
2.958046603e-11
2.72671397e-11
2.528713967e-11
2.349950403e-11
2.17411207e-11
2.003964165e-11
1.858969777e-11
1.738194466e-11
1.626066477e-11
1.527004536e-11
1.443943923e-11
1.356233343e-11
1.274064121e-11
1.196890598e-11
1.11605852e-11
1.03849201e-11
9.723582561e-12
9.221697157e-12
8.83248887e-12
8.497576762e-12
8.077201127e-12
7.623989606e-12
7.184300833e-12
6.786170055e-12
6.51302252e-12
6.262176418e-12
5.945388663e-12
5.59212568e-12
5.277541178e-12
5.038205417e-12
4.811097404e-12
4.528569906e-12
4.167022516e-12
3.864371716e-12
3.612713104e-12
3.339815624e-12
3.061953379e-12
2.840887343e-12
2.612566321e-12
2.297688084e-12
2.045813959e-12
1.86237688e-12
1.616030545e-12
1.338512865e-12
1.156680022e-12
1.003705929e-12
1.006065599e-12
-2.439200633e-12
-8.003573362e-12
-2.025151652e-11
-3.520146689e-11
-4.022158192e-11
)


101
(
-2.706122858e-10
-5.130186349e-10
-8.766580394e-10
-1.02062251e-09
-1.013496545e-09
-9.286298928e-10
-8.05685093e-10
-6.673134473e-10
-5.27905828e-10
-3.938951696e-10
-2.65615564e-10
-1.435617285e-10
-3.127162016e-11
7.158292282e-11
1.657259762e-10
2.494232884e-10
3.209094099e-10
3.823546223e-10
4.288725758e-10
4.607742717e-10
4.825958202e-10
4.883416357e-10
4.816065598e-10
4.683017999e-10
4.480658984e-10
4.220842917e-10
3.932073178e-10
3.629033358e-10
3.323502746e-10
3.02521307e-10
2.738915465e-10
2.477745004e-10
2.217618338e-10
1.972405218e-10
1.76672742e-10
1.585834641e-10
1.432567604e-10
1.292813032e-10
1.15891661e-10
1.036224236e-10
9.306791131e-11
8.374893856e-11
7.538422789e-11
6.845464883e-11
6.242765645e-11
5.709828991e-11
5.221142605e-11
4.748905066e-11
4.32350106e-11
3.95966491e-11
3.656340102e-11
3.400223793e-11
3.182427961e-11
2.973233414e-11
2.76805289e-11
2.580396856e-11
2.426997095e-11
2.285873532e-11
2.151890953e-11
2.050713116e-11
1.945862869e-11
1.846024848e-11
1.754070443e-11
1.653539872e-11
1.553460653e-11
1.458716526e-11
1.385865119e-11
1.336089717e-11
1.296918e-11
1.251241307e-11
1.198906882e-11
1.14751219e-11
1.096357173e-11
1.056624789e-11
1.027276304e-11
9.98591332e-12
9.619621611e-12
9.165608429e-12
8.863344459e-12
8.702787448e-12
8.385946767e-12
7.9041417e-12
7.449978801e-12
7.152351733e-12
6.910143391e-12
6.436559172e-12
6.083649546e-12
5.834096321e-12
5.368410944e-12
4.982258116e-12
4.674447691e-12
4.22314493e-12
3.680741205e-12
3.34191008e-12
3.095760903e-12
3.199083163e-12
-8.801565567e-12
-2.694103625e-11
-5.847001409e-11
-1.002737675e-10
-1.173129779e-10
)


101
(
-2.65362401e-10
-5.044125501e-10
-8.652107121e-10
-1.01247894e-09
-1.011726787e-09
-9.34373831e-10
-8.194431487e-10
-6.892165337e-10
-5.575221308e-10
-4.309044797e-10
-3.093378263e-10
-1.923715118e-10
-8.383497737e-11
1.657574005e-11
1.100604643e-10
1.949446033e-10
2.694596821e-10
3.361432918e-10
3.895847141e-10
4.298476971e-10
4.614534344e-10
4.770134674e-10
4.794665023e-10
4.748757946e-10
4.624822953e-10
4.428653571e-10
4.189060379e-10
3.922894787e-10
3.643832292e-10
3.362846393e-10
3.085124864e-10
2.826364885e-10
2.5591203e-10
2.301883107e-10
2.082748666e-10
1.883683306e-10
1.713905716e-10
1.561087391e-10
1.416085462e-10
1.282661088e-10
1.165531626e-10
1.057134897e-10
9.559260905e-11
8.708057367e-11
7.957742283e-11
7.303881709e-11
6.721370266e-11
6.162703852e-11
5.64688863e-11
5.186708054e-11
4.790229368e-11
4.453837632e-11
4.180735999e-11
3.944676488e-11
3.706830363e-11
3.46124262e-11
3.264759736e-11
3.089386636e-11
2.914265006e-11
2.788482297e-11
2.671391147e-11
2.551742747e-11
2.44208783e-11
2.33161271e-11
2.219248983e-11
2.088769925e-11
1.974674131e-11
1.899527725e-11
1.851424004e-11
1.81276277e-11
1.76534396e-11
1.707591083e-11
1.641426656e-11
1.590328021e-11
1.56386395e-11
1.547475511e-11
1.513394585e-11
1.464427539e-11
1.433247454e-11
1.427641135e-11
1.404195117e-11
1.356641452e-11
1.300386401e-11
1.266942377e-11
1.270362927e-11
1.220810555e-11
1.165369216e-11
1.144542428e-11
1.086538463e-11
1.045779601e-11
1.014997806e-11
9.411097355e-12
8.539629259e-12
7.999892221e-12
7.795902155e-12
8.544153103e-12
-2.543279865e-11
-7.383994354e-11
-1.378237099e-10
-2.087127263e-10
-2.303881571e-10
)


101
(
-2.601476204e-10
-4.958616429e-10
-8.538597257e-10
-1.00451105e-09
-1.010308062e-09
-9.407462729e-10
-8.341773939e-10
-7.124534265e-10
-5.888959862e-10
-4.702237915e-10
-3.560134876e-10
-2.448088102e-10
-1.406848991e-10
-4.340498847e-11
4.869717974e-11
1.340505904e-10
2.108868781e-10
2.821356208e-10
3.419340652e-10
3.902023471e-10
4.315624341e-10
4.57297778e-10
4.696941747e-10
4.746911723e-10
4.711469235e-10
4.592041228e-10
4.415021086e-10
4.197501011e-10
3.955368162e-10
3.701514764e-10
3.441648198e-10
3.193373283e-10
2.92340354e-10
2.657381678e-10
2.429215244e-10
2.214194796e-10
2.027319898e-10
1.860029499e-10
1.703375769e-10
1.560010587e-10
1.433671627e-10
1.312189163e-10
1.193023461e-10
1.090023193e-10
9.976701006e-11
9.179861694e-11
8.492010414e-11
7.837927049e-11
7.218467018e-11
6.647224483e-11
6.141397828e-11
5.699365011e-11
5.347702024e-11
5.072148649e-11
4.781524853e-11
4.480273914e-11
4.247350451e-11
4.032471076e-11
3.803932678e-11
3.627962512e-11
3.494101531e-11
3.362762476e-11
3.242061556e-11
3.11564479e-11
2.987163041e-11
2.844205329e-11
2.686471325e-11
2.558000473e-11
2.486835019e-11
2.446037003e-11
2.410704789e-11
2.365281556e-11
2.29820063e-11
2.238805065e-11
2.212744734e-11
2.207186464e-11
2.179972436e-11
2.155001703e-11
2.143620434e-11
2.14381625e-11
2.14690664e-11
2.122369814e-11
2.066267093e-11
2.045461963e-11
2.10741622e-11
2.093758093e-11
2.015261327e-11
1.994660052e-11
1.971627256e-11
1.963961066e-11
1.93060558e-11
1.838848118e-11
1.733178458e-11
1.652169183e-11
1.649988132e-11
1.848851835e-11
-5.981372045e-11
-1.67080628e-10
-2.812387282e-10
-4.072429834e-10
-4.484037341e-10
)


101
(
-2.54967856e-10
-4.87364487e-10
-8.425988413e-10
-9.967034756e-10
-1.009211537e-09
-9.477035728e-10
-8.498343311e-10
-7.369656435e-10
-6.219602816e-10
-5.117736391e-10
-4.055832626e-10
-3.00864105e-10
-2.018734496e-10
-1.084960754e-10
-1.859940742e-11
6.639464558e-11
1.447231221e-10
2.197028025e-10
2.850776609e-10
3.408025375e-10
3.91682517e-10
4.277154946e-10
4.506963131e-10
4.661776279e-10
4.724482034e-10
4.693455519e-10
4.591910665e-10
4.43567198e-10
4.242353407e-10
4.027056095e-10
3.795669738e-10
3.56740021e-10
3.301353673e-10
3.031656698e-10
2.800146988e-10
2.573585258e-10
2.37150242e-10
2.189106576e-10
2.018150955e-10
1.863610668e-10
1.730476198e-10
1.59943594e-10
1.4641202e-10
1.34281755e-10
1.231079255e-10
1.133602432e-10
1.051120465e-10
9.748918341e-11
9.018781679e-11
8.326720192e-11
7.697565865e-11
7.123234612e-11
6.660464147e-11
6.310548749e-11
5.964880154e-11
5.607517128e-11
5.332192636e-11
5.075253585e-11
4.778756702e-11
4.532685724e-11
4.358374504e-11
4.207384015e-11
4.075371559e-11
3.949209958e-11
3.794996888e-11
3.629284437e-11
3.451917868e-11
3.263076504e-11
3.147343094e-11
3.087560613e-11
3.046872829e-11
3.034383819e-11
2.99909707e-11
2.942267154e-11
2.904306447e-11
2.902571573e-11
2.908650758e-11
2.912193584e-11
2.937842628e-11
2.993825472e-11
3.04314405e-11
3.057594571e-11
3.046042459e-11
3.045202252e-11
3.164100333e-11
3.276778758e-11
3.237851127e-11
3.212651942e-11
3.252263821e-11
3.326080872e-11
3.310975284e-11
3.214890628e-11
3.141056572e-11
3.048481022e-11
3.072874714e-11
3.459535611e-11
-1.232573398e-10
-3.304109151e-10
-5.046707297e-10
-6.823452515e-10
-7.347112913e-10
)


101
(
-2.498230563e-10
-4.789197276e-10
-8.314219434e-10
-9.890411452e-10
-1.008408774e-09
-9.552007378e-10
-8.66358585e-10
-7.627079724e-10
-6.566692262e-10
-5.554665372e-10
-4.579735568e-10
-3.605279154e-10
-2.674374094e-10
-1.788129685e-10
-9.205897353e-11
-8.401670713e-12
7.042616592e-11
1.481586157e-10
2.181659756e-10
2.806697054e-10
3.40700024e-10
3.869104648e-10
4.208142249e-10
4.474646629e-10
4.644510838e-10
4.712997618e-10
4.699343609e-10
4.617133078e-10
4.485465854e-10
4.321806281e-10
4.13106489e-10
3.933458929e-10
3.679634777e-10
3.413918134e-10
3.187281789e-10
2.955974596e-10
2.742621588e-10
2.545064099e-10
2.356343862e-10
2.187662633e-10
2.048818366e-10
1.912158888e-10
1.764615905e-10
1.627146168e-10
1.495377334e-10
1.376580134e-10
1.275750653e-10
1.185215302e-10
1.098883641e-10
1.017684589e-10
9.431051484e-11
8.688989905e-11
8.067366096e-11
7.614579582e-11
7.206640468e-11
6.762816073e-11
6.420602319e-11
6.120896437e-11
5.75191884e-11
5.414783639e-11
5.171973167e-11
4.999977271e-11
4.841136487e-11
4.684048718e-11
4.51488187e-11
4.352911675e-11
4.151620481e-11
3.924237791e-11
3.743363123e-11
3.616721269e-11
3.549488404e-11
3.5655937e-11
3.599569825e-11
3.59018043e-11
3.575640764e-11
3.566915997e-11
3.563349915e-11
3.630471434e-11
3.742603601e-11
3.882058351e-11
4.017131258e-11
4.116716951e-11
4.216329174e-11
4.264759714e-11
4.437099196e-11
4.748422402e-11
4.863279778e-11
4.871765595e-11
4.973293026e-11
5.195990376e-11
5.273447313e-11
5.214844364e-11
5.186101112e-11
5.108466665e-11
5.198530551e-11
5.778905795e-11
-2.235440711e-10
-5.787359603e-10
-8.145689797e-10
-1.048674191e-09
-1.11982904e-09
)


101
(
-2.447131979e-10
-4.705260614e-10
-8.203230403e-10
-9.815091181e-10
-1.007871829e-09
-9.631938487e-10
-8.836951429e-10
-7.896364961e-10
-6.929863443e-10
-6.012213937e-10
-5.131080831e-10
-4.237916308e-10
-3.374132009e-10
-2.544644436e-10
-1.71900392e-10
-9.070615758e-11
-1.25537657e-11
6.679868025e-11
1.402975198e-10
2.087590145e-10
2.774822716e-10
3.335365043e-10
3.783784764e-10
4.165503322e-10
4.449444379e-10
4.627852933e-10
4.715005953e-10
4.720638593e-10
4.66389032e-10
4.564700649e-10
4.427521493e-10
4.273670211e-10
4.042591913e-10
3.789860593e-10
3.577717031e-10
3.350245875e-10
3.131837277e-10
2.920794035e-10
2.711885129e-10
2.525357292e-10
2.379201598e-10
2.239108911e-10
2.084682858e-10
1.936603557e-10
1.786474776e-10
1.643961496e-10
1.520314492e-10
1.410364259e-10
1.307507466e-10
1.213254619e-10
1.125730153e-10
1.031568379e-10
9.492526407e-11
8.887747976e-11
8.363802128e-11
7.812937089e-11
7.381771242e-11
7.04544284e-11
6.619136314e-11
6.151665107e-11
5.792428662e-11
5.589265849e-11
5.392430132e-11
5.159885186e-11
4.982380484e-11
4.822108467e-11
4.624440708e-11
4.363218772e-11
4.092223776e-11
3.918837416e-11
3.798980791e-11
3.801452147e-11
3.895576309e-11
3.985564061e-11
4.082464855e-11
4.09523422e-11
4.087056455e-11
4.216230381e-11
4.416697616e-11
4.733062142e-11
5.055493775e-11
5.267185738e-11
5.515584298e-11
5.758706082e-11
6.042877051e-11
6.49879805e-11
6.91047904e-11
7.093214821e-11
7.226991512e-11
7.698546684e-11
7.934702929e-11
8.019022712e-11
8.116438124e-11
7.989728657e-11
8.153348967e-11
9.074603971e-11
-3.606186535e-10
-9.123423514e-10
-1.204498258e-09
-1.506298423e-09
-1.61370653e-09
)


101
(
-2.396383011e-10
-4.621822571e-10
-8.092962894e-10
-9.740925141e-10
-1.007572511e-09
-9.716398563e-10
-9.017895838e-10
-8.177086332e-10
-7.308831899e-10
-6.489796779e-10
-5.70899797e-10
-4.906245138e-10
-4.118539315e-10
-3.355773526e-10
-2.583497584e-10
-1.808450184e-10
-1.046751381e-10
-2.498332558e-11
5.079108321e-11
1.241600333e-10
2.007424509e-10
2.659323386e-10
3.214401669e-10
3.712982592e-10
4.115224891e-10
4.412352919e-10
4.613785883e-10
4.722404315e-10
4.75450577e-10
4.731699524e-10
4.660056517e-10
4.565206108e-10
4.370374829e-10
4.141347006e-10
3.954692007e-10
3.741026928e-10
3.52621325e-10
3.30594953e-10
3.0761627e-10
2.867381057e-10
2.710587412e-10
2.568009716e-10
2.410378802e-10
2.257184384e-10
2.093389663e-10
1.92878089e-10
1.778446271e-10
1.64337702e-10
1.520501839e-10
1.408224317e-10
1.303802666e-10
1.189539378e-10
1.083212337e-10
9.998324446e-11
9.297374836e-11
8.596572507e-11
8.035594685e-11
7.642228008e-11
7.174077361e-11
6.60948756e-11
6.086820647e-11
5.761094951e-11
5.477429019e-11
5.154043431e-11
4.973771369e-11
4.836300433e-11
4.637636926e-11
4.330805653e-11
4.016427987e-11
3.818393522e-11
3.629528693e-11
3.604095827e-11
3.720166956e-11
3.900537772e-11
4.234762e-11
4.439793376e-11
4.496319532e-11
4.617461781e-11
4.920825952e-11
5.509532643e-11
6.095338066e-11
6.587650782e-11
7.060711634e-11
7.508610992e-11
8.082449008e-11
8.809146476e-11
9.547899919e-11
1.008983047e-10
1.035173062e-10
1.111054689e-10
1.160648228e-10
1.184641061e-10
1.21566092e-10
1.199291804e-10
1.224671256e-10
1.370588017e-10
-5.32194965e-10
-1.325333639e-09
-1.662056358e-09
-1.95691006e-09
-2.030876649e-09
)


101
(
-2.345984258e-10
-4.538871566e-10
-7.983359372e-10
-9.667767245e-10
-1.007483256e-09
-9.804964833e-10
-9.20586931e-10
-8.468815604e-10
-7.703381861e-10
-6.9870019e-10
-6.312557622e-10
-5.609754276e-10
-4.908219479e-10
-4.222936936e-10
-3.516395895e-10
-2.791237244e-10
-2.063095724e-10
-1.276928535e-10
-5.09137882e-11
2.601892678e-11
1.091319084e-10
1.823185268e-10
2.478881219e-10
3.094344507e-10
3.61618013e-10
4.038492752e-10
4.367413351e-10
4.594260047e-10
4.729451492e-10
4.796305296e-10
4.803178234e-10
4.782110756e-10
4.637877637e-10
4.444980683e-10
4.29526444e-10
4.106100603e-10
3.906458503e-10
3.685761275e-10
3.437010696e-10
3.203865093e-10
3.032747053e-10
2.882999535e-10
2.72266214e-10
2.571679154e-10
2.401314896e-10
2.216590204e-10
2.036069467e-10
1.872447885e-10
1.725805158e-10
1.587808521e-10
1.460264507e-10
1.325591056e-10
1.192094516e-10
1.07898948e-10
9.879256355e-11
8.942424418e-11
8.143432251e-11
7.657702707e-11
7.173137193e-11
6.516184484e-11
5.79936861e-11
5.270848573e-11
4.816898459e-11
4.450578856e-11
4.206129193e-11
4.030041584e-11
3.936927277e-11
3.663616321e-11
3.343844622e-11
3.093078609e-11
2.860851346e-11
2.833540408e-11
2.950158299e-11
3.228532088e-11
3.834818598e-11
4.491743847e-11
4.776022086e-11
4.95391672e-11
5.420682732e-11
6.205463141e-11
7.197608553e-11
8.277861223e-11
9.127282699e-11
9.861736161e-11
1.083495494e-10
1.198620549e-10
1.316891851e-10
1.425798484e-10
1.485222178e-10
1.585382439e-10
1.676124182e-10
1.721929157e-10
1.775607947e-10
1.764563437e-10
1.789409721e-10
1.987808707e-10
-7.304266316e-10
-1.802441601e-09
-2.185278591e-09
-2.52569489e-09
-2.61391479e-09
)


101
(
-2.295936267e-10
-4.456408037e-10
-7.874362675e-10
-9.595460038e-10
-1.007577133e-09
-9.897224859e-10
-9.400318415e-10
-8.771025756e-10
-8.113251408e-10
-7.503662431e-10
-6.940990031e-10
-6.347781151e-10
-5.74364186e-10
-5.147430163e-10
-4.519918285e-10
-3.858503349e-10
-3.178453978e-10
-2.418760065e-10
-1.653778571e-10
-8.647640551e-11
1.318492633e-12
8.099452256e-11
1.55658454e-10
2.286996822e-10
2.927583269e-10
3.477197063e-10
3.943070641e-10
4.301733463e-10
4.554317665e-10
4.726750723e-10
4.828598984e-10
4.896082527e-10
4.815811705e-10
4.672385667e-10
4.571297135e-10
4.417050471e-10
4.246060854e-10
4.039636226e-10
3.781063035e-10
3.523361728e-10
3.331420419e-10
3.168073155e-10
3.002306971e-10
2.856212413e-10
2.685998448e-10
2.486936374e-10
2.277331308e-10
2.079868663e-10
1.901844406e-10
1.732432988e-10
1.575825366e-10
1.41597219e-10
1.253112253e-10
1.103734879e-10
9.840220025e-11
8.605271006e-11
7.500374842e-11
6.814172026e-11
6.245155474e-11
5.538015162e-11
4.663736368e-11
3.856619137e-11
3.147476713e-11
2.699945182e-11
2.363453566e-11
2.201303618e-11
2.242515349e-11
2.053016717e-11
1.73795221e-11
1.481785789e-11
1.376786896e-11
1.420554124e-11
1.578376226e-11
2.02265833e-11
2.898488507e-11
3.977814533e-11
4.881845129e-11
5.523309802e-11
6.154261473e-11
7.11801611e-11
8.70049667e-11
1.057269228e-10
1.204713578e-10
1.333291089e-10
1.4847692e-10
1.669098866e-10
1.844826384e-10
2.021710972e-10
2.139023224e-10
2.258844142e-10