/*--------------------------------*- C++ -*----------------------------------*\
| =========                 |                                                 |
| \\      /  F ield         | OpenFOAM: The Open Source CFD Toolbox           |
|  \\    /   O peration     | Version:  2.3.1                                 |
|   \\  /    A nd           | Web:      www.OpenFOAM.org                      |
|    \\/     M anipulation  |                                                 |
\*---------------------------------------------------------------------------*/
FoamFile
{
    version     2.0;
    format      ascii;
    class       dictionary;
    location    "constant";
    object      DPSI45;
}
// * * * * * * * * * * * * * * * * * * * * * * * * * * * * * * * * * * * * * //

DPSI45_table
101
(

101
(
6.51056436e-17
1.765145757e-13
1.255244822e-12
4.599657701e-12
1.169392028e-11
2.391240273e-11
4.278975148e-11
7.22114337e-11
1.148645143e-10
1.770367796e-10
2.667474125e-10
3.966808486e-10
5.787759841e-10
8.421435624e-10
1.194108842e-09
1.649187094e-09
2.220600551e-09
2.914627392e-09
3.64108383e-09
4.507831044e-09
5.328213922e-09
6.13112944e-09
6.948125284e-09
7.675908494e-09
8.313917658e-09
8.868686521e-09
9.338182515e-09
9.723889935e-09
1.003112823e-08
1.026121272e-08
1.041939474e-08
1.051300287e-08
1.056624679e-08
1.050054935e-08
1.040604313e-08
1.025529173e-08
1.005949781e-08
9.835762038e-09
9.539447776e-09
9.15609385e-09
8.723505004e-09
8.312242335e-09
7.809634153e-09
7.268477871e-09
6.729074008e-09
6.111881236e-09
5.486966294e-09
4.791756953e-09
4.084994461e-09
3.319447529e-09
2.550302616e-09
1.745268915e-09
9.143121927e-10
6.617628472e-11
-7.910862566e-10
-1.661231502e-09
-2.614285845e-09
-3.492588107e-09
-4.445279729e-09
-5.371223146e-09
-6.32962863e-09
-7.279135939e-09
-8.225226459e-09
-9.181912395e-09
-1.013269799e-08
-1.108582211e-08
-1.202473668e-08
-1.295320443e-08
-1.388991899e-08
-1.479818513e-08
-1.569870074e-08
-1.658684135e-08
-1.748170773e-08
-1.833743054e-08
-1.916550908e-08
-1.994051122e-08
-2.0717944e-08
-2.146976176e-08
-2.218324841e-08
-2.286241574e-08
-2.350712874e-08
-2.414364682e-08
-2.473294963e-08
-2.530072762e-08
-2.580826387e-08
-2.627670876e-08
-2.671340572e-08
-2.711749921e-08
-2.748951492e-08
-2.784027137e-08
-2.812219233e-08
-2.838069724e-08
-2.862128302e-08
-2.881931734e-08
-2.899710394e-08
-2.917907911e-08
-2.942438743e-08
-3.308832045e-08
-3.690242121e-08
-4.099859653e-08
-4.522124907e-08
)


101
(
6.510727552e-17
1.734243099e-13
1.239984837e-12
4.553779752e-12
1.158929218e-11
2.371099189e-11
4.243425717e-11
7.156983773e-11
1.137978152e-10
1.752441837e-10
2.638049987e-10
3.919266439e-10
5.716041563e-10
8.311467605e-10
1.179451644e-09
1.63105262e-09
2.199757196e-09
2.892994632e-09
3.629296777e-09
4.499494766e-09
5.344071509e-09
6.172135204e-09
7.012716529e-09
7.777550225e-09
8.455110239e-09
9.049186264e-09
9.558242805e-09
9.983074632e-09
1.032822034e-08
1.059512781e-08
1.078839275e-08
1.091464554e-08
1.099482622e-08
1.096844885e-08
1.089719644e-08
1.076988041e-08
1.059369139e-08
1.038401532e-08
1.010798908e-08
9.74760543e-09
9.328491409e-09
8.911400079e-09
8.419867047e-09
7.88053282e-09
7.329397254e-09
6.712151596e-09
6.072680939e-09
5.370553956e-09
4.643437222e-09
3.862048791e-09
3.063266396e-09
2.22955375e-09
1.365426122e-09
4.7827394e-10
-4.23860824e-10
-1.341685717e-09
-2.328476468e-09
-3.276506626e-09
-4.275990166e-09
-5.267637982e-09
-6.285166624e-09
-7.303464505e-09
-8.321851532e-09
-9.349856595e-09
-1.03770781e-08
-1.140748359e-08
-1.242915771e-08
-1.344216495e-08
-1.445996752e-08
-1.545809439e-08
-1.644643073e-08
-1.742238941e-08
-1.839981452e-08
-1.934877725e-08
-2.027239213e-08
-2.115082491e-08
-2.20181182e-08
-2.285975237e-08
-2.366473633e-08
-2.443472974e-08
-2.516879864e-08
-2.588465657e-08
-2.655824122e-08
-2.720455435e-08
-2.779746251e-08
-2.83446514e-08
-2.88511345e-08
-2.932021771e-08
-2.975214918e-08
-3.015644203e-08
-3.050144177e-08
-3.080934162e-08
-3.108867092e-08
-3.133014028e-08
-3.154125609e-08
-3.177155346e-08
-3.20741548e-08
-3.579300916e-08
-3.965280776e-08
-4.379421739e-08
-4.805411863e-08
)


101
(
6.510890758e-17
1.671535736e-13
1.207820717e-12
4.452463365e-12
1.13465013e-11
2.321998518e-11
4.152944319e-11
6.989713286e-11
1.109380761e-10
1.703748747e-10
2.557206921e-10
3.787316437e-10
5.512077682e-10
7.99373904e-10
1.134580417e-09
1.571018716e-09
2.122947985e-09
2.799381441e-09
3.536299611e-09
4.392505453e-09
5.258211324e-09
6.111434174e-09
6.972190348e-09
7.780663741e-09
8.509746242e-09
9.156527155e-09
9.719764171e-09
1.019941278e-08
1.059851995e-08
1.091900735e-08
1.116442753e-08
1.134026877e-08
1.146168459e-08
1.149787063e-08
1.146885662e-08
1.138287986e-08
1.124319521e-08
1.106176339e-08
1.082537602e-08
1.051484574e-08
1.013571878e-08
9.726685697e-09
9.267805457e-09
8.753868963e-09
8.206887921e-09
7.611915585e-09
6.977156707e-09
6.292646641e-09
5.566686197e-09
4.79433921e-09
3.986477855e-09
3.144733137e-09
2.268357944e-09
1.361386442e-09
4.305370097e-10
-5.20449039e-10
-1.514502849e-09
-2.521236306e-09
-3.549994408e-09
-4.594417966e-09
-5.65601037e-09
-6.730586192e-09
-7.811791875e-09
-8.901099992e-09
-9.99637901e-09
-1.109630309e-08
-1.219590836e-08
-1.329097225e-08
-1.438527769e-08
-1.547273464e-08
-1.655003057e-08
-1.761566112e-08
-1.867399861e-08
-1.971866889e-08
-2.074435156e-08
-2.174137782e-08
-2.271227527e-08
-2.365728762e-08
-2.45698131e-08
-2.54480302e-08
-2.629050229e-08
-2.710144327e-08
-2.787759301e-08
-2.861981864e-08
-2.932158702e-08
-2.997602889e-08
-3.058027896e-08
-3.113860461e-08
-3.165310869e-08
-3.21313636e-08
-3.25641357e-08
-3.295101717e-08
-3.329194436e-08
-3.359826968e-08
-3.386946978e-08
-3.417637244e-08
-3.45699331e-08
-3.833545716e-08
-4.223502081e-08
-4.641728552e-08
-5.071216962e-08
)


101
(
6.511053962e-17
1.609663259e-13
1.176018318e-12
4.352234652e-12
1.110655561e-11
2.273591748e-11
4.064092828e-11
6.826377741e-11
1.081538315e-10
1.656573226e-10
2.479074002e-10
3.659910058e-10
5.314446736e-10
7.685771411e-10
1.090589103e-09
1.511619451e-09
2.046234167e-09
2.704792293e-09
3.437928823e-09
4.281550967e-09
5.160030742e-09
6.036036096e-09
6.917391482e-09
7.763250207e-09
8.540889465e-09
9.239874787e-09
9.857164103e-09
1.039188083e-08
1.084576968e-08
1.122065146e-08
1.151942063e-08
1.174654816e-08
1.191315998e-08
1.200563728e-08
1.202623446e-08
1.198445641e-08
1.188553176e-08
1.173767199e-08
1.153820251e-08
1.127350455e-08
1.093906263e-08
1.055514508e-08
1.012427529e-08
9.639565791e-09
9.109613337e-09
8.533960356e-09
7.91320217e-09
7.244764295e-09
6.529458224e-09
5.767199156e-09
4.961860722e-09
4.117807203e-09
3.235935743e-09
2.318094115e-09
1.36886223e-09
3.930477207e-10
-6.169900802e-10
-1.655362642e-09
-2.717346904e-09
-3.80098106e-09
-4.904289168e-09
-6.025223354e-09
-7.159340933e-09
-8.304540145e-09
-9.459617983e-09
-1.062289974e-08
-1.179119634e-08
-1.296025216e-08
-1.412912511e-08
-1.529572383e-08
-1.645672797e-08
-1.760887053e-08
-1.875206938e-08
-1.988451714e-08
-2.100268566e-08
-2.21011757e-08
-2.317640991e-08
-2.422629154e-08
-2.524562185e-08
-2.623123862e-08
-2.718091587e-08
-2.809519054e-08
-2.897374746e-08
-2.98157127e-08
-3.061930592e-08
-3.138068047e-08
-3.209207087e-08
-3.27511715e-08
-3.335812966e-08
-3.392229092e-08
-3.443836883e-08
-3.49135848e-08
-3.533752757e-08
-3.571474033e-08
-3.606182385e-08
-3.645307073e-08
-3.694567213e-08
-4.075602595e-08
-4.469583593e-08
-4.892271102e-08
-5.325864733e-08
)


101
(
6.511217771e-17
1.548631039e-13
1.144577958e-12
4.253084648e-12
1.086939708e-11
2.225858425e-11
3.976813213e-11
6.666827797e-11
1.054423975e-10
1.610860373e-10
2.403580566e-10
3.536982563e-10
5.123227491e-10
7.387715446e-10
1.047583998e-09
1.453021875e-09
1.969867239e-09
2.609603645e-09
3.335125251e-09
4.166443579e-09
5.05118296e-09
5.94626621e-09
6.847760014e-09
7.726232518e-09
8.548628707e-09
9.298373978e-09
9.969255816e-09
1.055906626e-08
1.106830211e-08
1.149832292e-08
1.185144923e-08
1.213134289e-08
1.234622891e-08
1.249215607e-08
1.256528764e-08
1.257140596e-08
1.251687753e-08
1.240747645e-08
1.224557265e-08
1.202395344e-08
1.173508719e-08
1.138669942e-08
1.098707475e-08
1.05336997e-08
1.002893755e-08
9.475798388e-09
8.874392696e-09
8.224548284e-09
7.525262282e-09
6.776986779e-09
5.981146291e-09
5.141601117e-09
4.260484303e-09
3.339274185e-09
2.380826955e-09
1.389394218e-09
3.643199062e-10
-6.945702425e-10
-1.782532795e-09
-2.897278896e-09
-4.035891503e-09
-5.196250906e-09
-6.374931549e-09
-7.568874052e-09
-8.776366056e-09
-9.995843691e-09
-1.122502597e-08
-1.246021276e-08
-1.369852681e-08
-1.493776861e-08
-1.617549105e-08
-1.740837445e-08
-1.863445788e-08
-1.985208922e-08
-2.105848637e-08
-2.224973573e-08
-2.342199325e-08
-2.457295643e-08
-2.569715036e-08
-2.679015857e-08
-2.784774052e-08
-2.886796263e-08
-2.985157039e-08
-3.079709127e-08
-3.17034652e-08
-3.256951415e-08
-3.338922655e-08
-3.41572088e-08
-3.486785551e-08
-3.552768673e-08
-3.613544289e-08
-3.670158809e-08
-3.721954832e-08
-3.768389282e-08
-3.811364387e-08
-3.860258833e-08
-3.920301722e-08
-4.305785864e-08
-4.703864368e-08
-5.130697743e-08
-5.568159475e-08
)


101
(
6.511380381e-17
1.488445619e-13
1.113499576e-12
4.15500409e-12
1.063497146e-11
2.178778682e-11
3.891048265e-11
6.510916916e-11
1.028010921e-10
1.566555059e-10
2.330650628e-10
3.418453288e-10
4.938460035e-10
7.099680021e-10
1.005656511e-09
1.395385498e-09
1.894092373e-09
2.514185544e-09
3.228768537e-09
4.047251588e-09
4.933013139e-09
5.842795701e-09
6.763016264e-09
7.670216084e-09
8.533298532e-09
9.331519608e-09
1.00550179e-08
1.069965111e-08
1.126453387e-08
1.175030993e-08
1.215867666e-08
1.249258732e-08
1.275816119e-08
1.295661525e-08
1.308330876e-08
1.314076857e-08
1.313362726e-08
1.306701288e-08
1.294513825e-08
1.276569243e-08
1.252201081e-08
1.221475015e-08
1.18513336e-08
1.143233995e-08
1.095830292e-08
1.043239702e-08
9.855124163e-09
9.227584015e-09
8.548690019e-09
7.818791766e-09
7.03801033e-09
6.209196811e-09
5.334829901e-09
4.416636014e-09
3.456624168e-09
2.458132598e-09
1.423302194e-09
3.511132913e-10
-7.54840493e-10
-1.892724279e-09
-3.059316781e-09
-4.252206079e-09
-5.468229315e-09
-6.703953717e-09
-7.95698561e-09
-9.225598086e-09
-1.050822384e-08
-1.180201697e-08
-1.310353639e-08
-1.440979633e-08
-1.571814196e-08
-1.702561533e-08
-1.832973094e-08
-1.962875431e-08
-2.09200767e-08
-2.219991455e-08
-2.346395325e-08
-2.471065347e-08
-2.593549233e-08
-2.713358266e-08
-2.829929387e-08
-2.942761981e-08
-3.051856639e-08
-3.157087015e-08
-3.258324272e-08
-3.355551537e-08
-3.448387791e-08
-3.536359103e-08
-3.618712531e-08
-3.695316612e-08
-3.766227109e-08
-3.832733113e-08
-3.894392894e-08
-3.950981347e-08
-4.003285451e-08
-4.063075005e-08
-4.13518543e-08
-4.524725041e-08
-4.926607324e-08
-5.357378539e-08
-5.798632514e-08
)


101
(
6.511543567e-17
1.429110547e-13
1.082783967e-12
4.057987039e-12
1.040323347e-11
2.132334439e-11
3.806743849e-11
6.358504332e-11
1.00227336e-10
1.523603602e-10
2.260205373e-10
3.304233276e-10
4.760150909e-10
6.821740694e-10
9.648864795e-10
1.338861809e-09
1.819152157e-09
2.418907217e-09
3.119699262e-09
3.924259093e-09
4.806685716e-09
5.726544076e-09
6.663214653e-09
7.59569574e-09
8.495385892e-09
9.33916319e-09
1.011370576e-08
1.081249526e-08
1.143301578e-08
1.197496449e-08
1.243932759e-08
1.282831665e-08
1.314651098e-08
1.339759732e-08
1.35781029e-08
1.368869921e-08
1.37320828e-08
1.371211767e-08
1.363346145e-08
1.349699266e-08
1.329829934e-08
1.303499498e-08
1.271205047e-08
1.233102213e-08
1.18921597e-08
1.139817225e-08
1.084966995e-08
1.02485304e-08
9.594163034e-09
8.887003773e-09
8.126401544e-09
7.314092104e-09
6.452245769e-09
5.542855018e-09
4.587706724e-09
3.589408756e-09
2.551134495e-09
1.47225096e-09
3.556416593e-10
-7.975835311e-10
-1.984468243e-09
-3.202618819e-09
-4.448967658e-09
-5.719805552e-09
-7.012031507e-09
-8.323305423e-09
-9.652358397e-09
-1.099731516e-08
-1.235518511e-08
-1.372263674e-08
-1.509618144e-08
-1.647277371e-08
-1.784965049e-08
-1.922517976e-08
-2.059713136e-08
-2.196199689e-08
-2.331465622e-08
-2.465314005e-08
-2.597404954e-08
-2.727356848e-08
-2.854551483e-08
-2.978316269e-08
-3.098383441e-08
-3.214608455e-08
-3.3268219e-08
-3.435020518e-08
-3.538896656e-08
-3.638281437e-08
-3.732310818e-08
-3.820591009e-08
-3.902521315e-08
-3.979908593e-08
-4.052284002e-08
-4.119944797e-08
-4.182851835e-08
-4.254406406e-08
-4.339721595e-08
-4.732960703e-08
-5.138348883e-08
-5.572515682e-08
-6.017177125e-08
)


101
(
6.511706766e-17
1.370632057e-13
1.052431941e-12
3.96202712e-12
1.017413778e-11
2.086507742e-11
3.723845794e-11
6.209448218e-11
9.771853761e-11
1.481951448e-10
2.192160257e-10
3.194215415e-10
4.588267007e-10
6.553917075e-10
9.253401606e-10
1.283589817e-09
1.745275462e-09
2.324125431e-09
3.008698998e-09
3.797910535e-09
4.673246905e-09
5.598541322e-09
6.548695597e-09
7.503129168e-09
8.435416394e-09
9.321380817e-09
1.014480588e-08
1.089661006e-08
1.157239137e-08
1.217066492e-08
1.269156819e-08
1.31365494e-08
1.35089483e-08
1.381333147e-08
1.404783828e-08
1.421255979e-08
1.430872041e-08
1.433871751e-08
1.430668416e-08
1.421515802e-08
1.406200099e-08
1.384423195e-08
1.35648492e-08
1.322515052e-08
1.282533946e-08
1.236762996e-08
1.185238845e-08
1.128182406e-08
1.065590925e-08
9.975481019e-09
9.239761924e-09
8.449471339e-09
7.605900155e-09
6.710958248e-09
5.766492449e-09
4.774699621e-09
3.739031054e-09
2.659525594e-09
1.538837043e-09
3.775260903e-10
-8.220350278e-10
-2.057920049e-09
-3.327305644e-09
-4.626523623e-09
-5.951812223e-09
-7.299927987e-09
-8.669134741e-09
-1.005822443e-08
-1.146526651e-08
-1.288747232e-08
-1.432080382e-08
-1.576152102e-08
-1.720630229e-08
-1.865338155e-08
-2.010105962e-08
-2.154655862e-08
-2.29846076e-08
-2.441202499e-08
-2.582566487e-08
-2.722309998e-08
-2.859875043e-08
-2.994481826e-08
-3.125653875e-08
-3.253107704e-08
-3.376654588e-08
-3.496264309e-08
-3.611491012e-08
-3.722608247e-08
-3.828611092e-08
-3.929334199e-08
-4.02316271e-08
-4.112317098e-08
-4.196459219e-08
-4.275968887e-08
-4.350812189e-08
-4.435048371e-08
-4.534579504e-08
-4.931227044e-08
-5.33973332e-08
-5.77528283e-08
-6.221243178e-08
)


101
(
6.511871177e-17
1.313018415e-13
1.022444551e-12
3.867119985e-12
9.947645286e-12
2.041282629e-11
3.642305132e-11
6.063617063e-11
9.527221893e-11
1.441545373e-10
2.126429744e-10
3.088283133e-10
4.422745989e-10
6.296180032e-10
8.8707006e-10
1.229695065e-09
1.67267618e-09
2.230180835e-09
2.896492893e-09
3.668749169e-09
4.533676962e-09
5.459895247e-09
6.420037597e-09
7.392999576e-09
8.353921362e-09
9.2783865e-09
1.014799425e-08
1.095116346e-08
1.168141473e-08
1.233585761e-08
1.291361938e-08
1.341532079e-08
1.384322824e-08
1.420184824e-08
1.449073816e-08
1.471014788e-08
1.486052219e-08
1.494302818e-08
1.496077446e-08
1.491676293e-08
1.481051514e-08
1.46396054e-08
1.440601724e-08
1.411045297e-08
1.375296279e-08
1.333537728e-08
1.285763692e-08
1.232183421e-08
1.172829705e-08
1.107829938e-08
1.037139894e-08
9.607930137e-09
8.788292361e-09
7.913587196e-09
6.985512513e-09
6.006173257e-09
4.978917636e-09
3.904303318e-09
2.785316985e-09
1.622336371e-09
4.171580871e-10
-8.289625661e-10
-2.113782221e-09
-3.434170976e-09
-4.786170892e-09
-6.165616519e-09
-7.569584181e-09
-8.996713113e-09
-1.044593946e-08
-1.19158631e-08
-1.340290127e-08
-1.490263803e-08
-1.641082175e-08
-1.792498067e-08
-1.944357817e-08
-2.096476831e-08
-2.248417912e-08
-2.399778414e-08
-2.55014652e-08
-2.699350738e-08
-2.847024006e-08
-2.992334029e-08
-3.134611346e-08
-3.273378827e-08
-3.408482534e-08
-3.539912094e-08
-3.66694737e-08
-3.790121434e-08
-3.908561406e-08
-4.022135071e-08
-4.128820919e-08
-4.230507013e-08
-4.327393462e-08
-4.419599579e-08
-4.507537326e-08
-4.605586045e-08
-4.720135741e-08
-5.119088734e-08
-5.529473893e-08
-5.963313917e-08
-6.40660997e-08
)


101
(
6.512034374e-17
1.256273917e-13
9.928227891e-13
3.77326063e-12
9.723715091e-12
1.996643047e-11
3.562074852e-11
5.920886326e-11
9.288592122e-11
1.402331937e-10
2.062924795e-10
2.986309838e-10
4.263496507e-10
6.048461553e-10
8.501165247e-10
1.17728835e-09
1.601553335e-09
2.13739591e-09
2.783760909e-09
3.537396365e-09
4.388928399e-09
5.311761389e-09
6.27801881e-09
7.26589319e-09
8.251480585e-09
9.210529998e-09
1.012314579e-08
1.097551113e-08
1.175899084e-08
1.2469085e-08
1.310374448e-08
1.366268482e-08
1.41471715e-08
1.456105604e-08
1.490492826e-08
1.517945294e-08
1.538487682e-08
1.552162336e-08
1.559177026e-08
1.559798142e-08
1.554061614e-08
1.541808608e-08
1.523210911e-08
1.498294872e-08
1.467047527e-08
1.429625078e-08
1.385981205e-08
1.336278563e-08
1.280558149e-08
1.218974312e-08
1.151520758e-08
1.078245745e-08
9.991539229e-09
9.142697797e-09
8.236868383e-09
7.27582876e-09
6.262740772e-09
5.198467049e-09
4.086507704e-09
2.92745037e-09
1.722882991e-09
4.734923209e-10
-8.192437107e-10
-2.153110783e-09
-3.524707634e-09
-4.929560273e-09
-6.363283531e-09
-7.823346412e-09
-9.308689944e-09
-1.081925314e-08
-1.235299168e-08
-1.390587569e-08
-1.547270282e-08
-1.704977971e-08
-1.863499102e-08
-2.022714866e-08
-2.182303892e-08
-2.341910866e-08
-2.501031239e-08
-2.659391051e-08
-2.816806733e-08
-2.97262789e-08
-3.125970814e-08
-3.276099507e-08
-3.422792869e-08
-3.56630688e-08
-3.705641709e-08
-3.841101228e-08
-3.972428988e-08
-4.09924881e-08
-4.219637263e-08
-4.334581004e-08
-4.444956517e-08
-4.550841723e-08
-4.652806672e-08
-4.765673843e-08
-4.896137381e-08
-5.295003066e-08
-5.7047758e-08
-6.132501244e-08
-6.571387008e-08
)


101
(
6.512191836e-17
1.200405838e-13
9.635680419e-13
3.680445668e-12
9.502311576e-12
1.952574131e-11
3.483110609e-11
5.781137738e-11
9.055727795e-11
1.364258836e-10
2.001554934e-10
2.888160563e-10
4.110397125e-10
5.810653668e-10
8.145087237e-10
1.126464551e-09
1.532088437e-09
2.046075339e-09
2.671124127e-09
3.404525458e-09
4.23994683e-09
5.155322475e-09
6.123595439e-09
7.122536666e-09
8.128754002e-09
9.118312165e-09
1.007037347e-08
1.096925885e-08
1.180422991e-08
1.256903511e-08
1.326027964e-08
1.387668215e-08
1.441854535e-08
1.488867021e-08
1.528825968e-08
1.561837333e-08
1.587940387e-08
1.607151271e-08
1.619602847e-08
1.625490511e-08
1.624864748e-08
1.617628635e-08
1.603959978e-08
1.58387772e-08
1.557355513e-08
1.524532896e-08
1.485345788e-08
1.439899091e-08
1.388192382e-08
1.330392566e-08
1.266526379e-08
1.196676268e-08
1.120845512e-08
1.039024145e-08
9.512251954e-09
8.575334481e-09
7.582374697e-09
6.534020373e-09
5.434358352e-09
4.284403743e-09
3.085919244e-09
1.839404409e-09
5.457079056e-10
-7.939148884e-10
-2.177214099e-09
-3.600376355e-09
-5.058298001e-09
-6.546609306e-09
-8.063129242e-09
-9.608158837e-09
-1.118129964e-08
-1.278023817e-08
-1.439987601e-08
-1.603533995e-08
-1.768318684e-08
-1.934197042e-08
-2.100910005e-08
-2.26823605e-08
-2.435760165e-08
-2.603012418e-08
-2.769751666e-08
-2.935701997e-08
-3.099985546e-08
-3.261513878e-08
-3.419771555e-08
-3.575321147e-08
-3.727317091e-08
-3.875348967e-08
-4.019641305e-08
-4.160204205e-08
-4.294814487e-08
-4.423695626e-08
-4.548180078e-08
-4.668655614e-08
-4.78540598e-08
-4.913923868e-08
-5.060985796e-08
-5.456233114e-08
-5.861371857e-08
-6.27534228e-08
-6.700029747e-08
)


101
(
6.512343341e-17
1.145424276e-13
9.346828347e-13
3.588676222e-12
9.283412287e-12
1.909064071e-11
3.405373948e-11
5.644263157e-11
8.828411886e-11
1.327277565e-10
1.9422328e-10
2.793697383e-10
3.963303611e-10
5.582600439e-10
7.802642054e-10
1.077302556e-09
1.464443861e-09
1.95649727e-09
2.559155863e-09
3.270815139e-09
4.087666539e-09
4.991810782e-09
5.957918968e-09
6.963874072e-09
7.986598388e-09
9.002480958e-09
9.990110761e-09
1.09323521e-08
1.181654164e-08
1.263463723e-08
1.338174579e-08
1.405545356e-08
1.465511436e-08
1.518228146e-08
1.563837752e-08
1.602466507e-08
1.634179896e-08
1.658999932e-08
1.677019637e-08
1.688367504e-08
1.693068079e-08
1.691046064e-08
1.682482397e-08
1.667413925e-08
1.645815303e-08
1.617813219e-08
1.583343155e-08
1.542474237e-08
1.495150763e-08
1.441503461e-08
1.38157455e-08
1.315482695e-08
1.243259338e-08
1.164892353e-08
1.080345844e-08
9.896266662e-09
8.929380429e-09
7.902893306e-09
6.821008202e-09
5.685297743e-09
4.498011491e-09
3.259812479e-09
1.971318597e-09
6.331043284e-10
-7.538495112e-10
-2.187113528e-09
-3.662171448e-09
-5.173377382e-09
-6.716561074e-09
-8.290888852e-09
-9.89675125e-09
-1.153395866e-08
-1.319915127e-08
-1.488717678e-08
-1.659314246e-08
-1.831415291e-08
-2.004765262e-08
-2.179217349e-08
-2.354546828e-08
-2.530293689e-08
-2.705984723e-08
-2.881490242e-08
-3.056311609e-08
-3.229173664e-08
-3.399010974e-08
-3.566259248e-08
-3.730902314e-08
-3.891846065e-08
-4.049046211e-08
-4.203485785e-08
-4.352615943e-08
-4.495919975e-08
-4.634983763e-08
-4.770672753e-08
-4.902862513e-08
-5.047588567e-08
-5.211425576e-08
-5.597237393e-08
-5.99145859e-08
-6.382352605e-08
-6.783193002e-08
)


101
(
6.512498179e-17
1.091335357e-13
9.061689677e-13
3.497950126e-12
9.066986994e-12
1.866099664e-11
3.328824904e-11
5.510153624e-11
8.60642227e-11
1.291339101e-10
1.884869718e-10
2.702773644e-10
3.822047346e-10
5.364097681e-10
7.473884719e-10
1.029864618e-09
1.398759646e-09
1.868908675e-09
2.448370695e-09
3.136939975e-09
3.933009137e-09
4.822453403e-09
5.782273784e-09
6.791035349e-09
7.826012424e-09
8.863905762e-09
9.88297137e-09
1.086497358e-08
1.179558112e-08
1.266502882e-08
1.346683163e-08
1.419729528e-08
1.485477492e-08
1.543949429e-08
1.595281564e-08
1.639594204e-08
1.676971247e-08
1.707452938e-08
1.731122912e-08
1.748066431e-08
1.758274451e-08
1.761663337e-08
1.758394126e-08
1.748516214e-08
1.732027026e-08
1.70904438e-08
1.679506189e-08
1.643472817e-08
1.600851452e-08
1.551711041e-08
1.496083751e-08
1.434091513e-08
1.365795346e-08
1.291221377e-08
1.210323642e-08
1.123062158e-08
1.029532714e-08
9.296814407e-09
8.238550472e-09
7.122539058e-09
5.951624724e-09
4.726827141e-09
3.448974726e-09
2.118459575e-09
7.354557487e-10
-6.993276037e-10
-2.182934374e-09
-3.709888965e-09
-5.274296383e-09
-6.873096207e-09
-8.505945743e-09
-1.017385354e-08
-1.187595856e-08
-1.360857928e-08
-1.536644544e-08
-1.714485547e-08
-1.893980832e-08
-2.074949515e-08
-2.257343229e-08
-2.440910039e-08
-2.625076781e-08
-2.809485219e-08
-2.994082608e-08
-3.177854011e-08
-3.359163908e-08
-3.537755455e-08
-3.714512061e-08
-3.888389625e-08
-4.05859714e-08
-4.226394752e-08
-4.390130187e-08
-4.54808516e-08
-4.702058405e-08
-4.853076798e-08
-5.001125423e-08
-5.162205679e-08
-5.342681159e-08
-5.711045309e-08
-6.085761437e-08
-6.444379544e-08
-6.810750575e-08
)


101
(
6.512663811e-17
1.038148518e-13
8.780289987e-13
3.408268706e-12
8.853015419e-12
1.823669891e-11
3.253427673e-11
5.378709087e-11
8.389554972e-11
1.256397108e-10
1.829379541e-10
2.615242623e-10
3.686442464e-10
5.154909106e-10
7.158778783e-10
9.841974042e-10
1.335155974e-09
1.783536158e-09
2.339229021e-09
3.003554251e-09
3.776877954e-09
4.648462965e-09
5.598006306e-09
6.605273653e-09
7.648092436e-09
8.703523482e-09
9.749674856e-09
1.076749622e-08
1.174126406e-08
1.265962263e-08
1.351447247e-08
1.430073662e-08
1.5015694e-08
1.565814716e-08
1.622921149e-08
1.672980203e-08
1.716077465e-08
1.752266898e-08
1.781635361e-08
1.804259727e-08
1.820111114e-08
1.829083806e-08
1.831295377e-08
1.826786402e-08
1.815580889e-08
1.797802313e-08
1.773390608e-08
1.742408172e-08
1.7047524e-08
1.660436875e-08
1.609455175e-08
1.551916952e-08
1.487884918e-08
1.417419923e-08
1.34051983e-08
1.257117885e-08
1.167240731e-08
1.070749033e-08
9.678987202e-09
8.58861096e-09
7.439574042e-09
6.233451705e-09
4.971448158e-09
3.65421951e-09
2.281834743e-09
8.537403148e-10
-6.29095967e-10
-2.162751798e-09
-3.740889784e-09
-5.358370319e-09
-7.012611194e-09
-8.704285157e-09
-1.043416907e-08
-1.220123495e-08
-1.4001904e-08
-1.583090212e-08
-1.768145868e-08
-1.954998893e-08
-2.143631316e-08
-2.334071321e-08
-2.525952832e-08
-2.718590083e-08
-2.911950616e-08
-3.105625671e-08
-3.297971784e-08
-3.487581446e-08
-3.675494043e-08
-3.861727595e-08
-4.044781206e-08
-4.225197072e-08
-4.403107452e-08
-4.575467192e-08
-4.744451241e-08
-4.910645948e-08
-5.074481286e-08
-5.251483777e-08
-5.448471949e-08
-5.791159978e-08
-6.137239723e-08
-6.455257051e-08
-6.764555914e-08
)


101
(
6.512829412e-17
9.858739318e-14
8.502650532e-13
3.319631675e-12
8.641473771e-12
1.781763265e-11
3.179145397e-11
5.249829149e-11
8.177612529e-11
1.222406978e-10
1.775674981e-10
2.530954647e-10
3.556285179e-10
4.95475677e-10
6.857185555e-10
9.403288494e-10
1.273732364e-09
1.700579992e-09
2.232157065e-09
2.871295935e-09
3.620162596e-09
4.471039287e-09
5.406482096e-09
6.407938556e-09
7.454080955e-09
8.522426025e-09
9.59110468e-09
1.064049817e-08
1.165375563e-08
1.261809666e-08
1.352384291e-08
1.43644968e-08
1.513620732e-08
1.583622362e-08
1.646526995e-08
1.702378436e-08
1.751248274e-08
1.793192158e-08
1.828296273e-08
1.856652116e-08
1.878230967e-08
1.89292129e-08
1.900781864e-08
1.901821687e-08
1.896066473e-08
1.883659395e-08
1.864558998e-08
1.838815457e-08
1.806343667e-08
1.767131606e-08
1.721110814e-08
1.668355684e-08
1.608936485e-08
1.542914293e-08
1.470324703e-08
1.39114382e-08
1.30535626e-08
1.212736548e-08
1.113456641e-08
1.007598598e-08
8.9548087e-09
7.773151916e-09
6.532588451e-09
5.234179686e-09
3.878347863e-09
2.46425935e-09
9.913116091e-10
-5.387925056e-10
-2.120849163e-09
-3.748997185e-09
-5.417987608e-09
-7.126574891e-09
-8.875515123e-09
-1.066562219e-08
-1.249661284e-08
-1.436541329e-08
-1.626366614e-08
-1.818400714e-08
-2.012326697e-08
-2.208488243e-08
-2.406906695e-08
-2.606845263e-08
-2.807927792e-08
-3.010045544e-08
-3.212236456e-08
-3.412352538e-08
-3.610423946e-08
-3.80778731e-08
-4.003054214e-08
-4.195364123e-08
-4.386519101e-08
-4.572679729e-08
-4.755764651e-08
-4.936820448e-08
-5.115865536e-08
-5.30804844e-08
-5.52074174e-08
-5.828878085e-08
-6.137286561e-08
-6.411356589e-08
-6.692172098e-08
)


101
(
6.512987748e-17
9.345194828e-14
8.228789115e-13
3.232037229e-12
8.432335179e-12
1.740367852e-11
3.105940883e-11
5.123414248e-11
7.970400132e-11
1.18932539e-10
1.723669217e-10
2.449758761e-10
3.431359787e-10
4.763330557e-10
6.56887124e-10
8.98270257e-10
1.21456502e-09
1.620213275e-09
2.12752728e-09
2.74077454e-09
3.463729789e-09
4.291360365e-09
5.20910531e-09
6.200485536e-09
7.245369354e-09
8.321884211e-09
9.408352011e-09
1.048479808e-08
1.153346268e-08
1.254035823e-08
1.349435362e-08
1.438752396e-08
1.521482688e-08
1.597184458e-08
1.665877315e-08
1.727541307e-08
1.782222157e-08
1.829966191e-08
1.870846038e-08
1.904963723e-08
1.932318665e-08
1.952815965e-08
1.966458851e-08
1.973214037e-08
1.97307988e-08
1.966203418e-08
1.952579211e-08
1.932249908e-08
1.905148635e-08
1.871261303e-08
1.830479475e-08
1.782825572e-08
1.728352999e-08
1.667112517e-08
1.599163851e-08
1.524536169e-08
1.443229698e-08
1.354967311e-08
1.259814499e-08
1.157758836e-08
1.049065795e-08
9.339757573e-09
8.1268459e-09
6.853390817e-09
5.520217923e-09
4.126958755e-09
2.672373667e-09
1.156201682e-09
-4.184606281e-10
-2.046531404e-09
-3.72120006e-09
-5.438796131e-09
-7.198207503e-09
-9.000179323e-09
-1.084699884e-08
-1.274012279e-08
-1.467384556e-08
-1.663591234e-08
-1.861897866e-08
-2.062480299e-08
-2.265773736e-08
-2.471596791e-08
-2.679266601e-08
-2.888232935e-08
-3.098496803e-08
-3.307958348e-08
-3.515267012e-08
-3.72205043e-08
-3.928426524e-08
-4.131807881e-08
-4.334516639e-08
-4.534006384e-08
-4.729490379e-08
-4.924513113e-08
-5.118003036e-08
-5.323820324e-08
-5.549187755e-08
-5.816833124e-08
-6.081606866e-08
-6.311466651e-08
-6.550761778e-08
)


101
(
6.513150934e-17
8.840966257e-14
7.958816043e-13
3.145493775e-12
8.225600306e-12
1.699477513e-11
3.033787741e-11
4.999384416e-11
7.767758949e-11
1.157115065e-10
1.673284385e-10
2.371512638e-10
3.311452284e-10
4.580313157e-10
6.293550082e-10
8.580236248e-10
1.157710719e-09
1.542582652e-09
2.025660072e-09
2.612528532e-09
3.308379031e-09
4.110573665e-09
5.007322131e-09
5.984506004e-09
7.023542619e-09
8.103411314e-09
9.202783528e-09
1.030151177e-08
1.138112143e-08
1.24266491e-08
1.342574029e-08
1.436908441e-08
1.525035364e-08
1.606341507e-08
1.68077598e-08
1.748241272e-08
1.808747538e-08
1.862326014e-08
1.909025437e-08
1.948937928e-08
1.982098501e-08
2.008444405e-08
2.027959092e-08
2.040569016e-08
2.046224599e-08
2.045039346e-08
2.037038816e-08
2.022288835e-08
2.000729918e-08
1.972350312e-08
1.93703918e-08
1.894773577e-08
1.845564995e-08
1.78944362e-08
1.726478129e-08
1.656738003e-08
1.580264352e-08
1.496796002e-08
1.406308005e-08
1.308685331e-08
1.204094951e-08
1.092760831e-08
9.749267699e-09
8.507719482e-09
7.204188292e-09
5.838969146e-09
4.410883077e-09
2.918774646e-09
1.363442745e-09
-2.51528911e-10
-1.919772721e-09
-3.636108602e-09
-5.396434634e-09
-7.199816822e-09
-9.048505731e-09
-1.094752274e-08
-1.289726956e-08
-1.488700005e-08
-1.690308858e-08
-1.894005754e-08
-2.100367908e-08
-2.310235638e-08
-2.522801474e-08
-2.737065201e-08
-2.953400558e-08
-3.170441619e-08
-3.385988773e-08
-3.60045715e-08
-3.816213994e-08
-4.029624854e-08
-4.241774628e-08
-4.453713822e-08
-4.660456768e-08
-4.867662325e-08
-5.074894448e-08
-5.292241069e-08
-5.527243119e-08
-5.752776432e-08
-5.97291068e-08
-6.161956437e-08
-6.336426405e-08
)


101
(
6.513318972e-17
8.34615966e-14
7.692696094e-13
3.060004519e-12
8.021257068e-12
1.659083704e-11
2.962655506e-11
4.877653751e-11
7.56952776e-11
1.125739965e-10
1.62444307e-10
2.296070635e-10
3.196337384e-10
4.405363195e-10
6.030867762e-10
8.195773408e-10
1.103208027e-09
1.467803747e-09
1.926827821e-09
2.487014948e-09
3.154819197e-09
3.929722762e-09
4.802549563e-09
5.761640667e-09
6.790304358e-09
7.868661587e-09
8.975936894e-09
1.009198157e-08
1.119777919e-08
1.227758796e-08
1.331808407e-08
1.430871979e-08
1.524183234e-08
1.610954571e-08
1.69104833e-08
1.764273324e-08
1.830592877e-08
1.890019661e-08
1.942573141e-08
1.988316281e-08
2.027301754e-08
2.05951587e-08
2.084949122e-08
2.103508468e-08
2.115093484e-08
2.119758576e-08
2.117535561e-08
2.108517597e-08
2.09265566e-08
2.069949952e-08
2.040308885e-08
2.003682942e-08
1.960035061e-08
1.909365435e-08
1.851723935e-08
1.787206342e-08
1.715915363e-08
1.637645921e-08
1.552325471e-08
1.459749099e-08
1.359971377e-08
1.253145718e-08
1.139537586e-08
1.019366295e-08