/*--------------------------------*- C++ -*----------------------------------*\
| =========                 |                                                 |
| \\      /  F ield         | OpenFOAM: The Open Source CFD Toolbox           |
|  \\    /   O peration     | Version:  2.3.1                                 |
|   \\  /    A nd           | Web:      www.OpenFOAM.org                      |
|    \\/     M anipulation  |                                                 |
\*---------------------------------------------------------------------------*/
FoamFile
{
    version     2.0;
    format      ascii;
    class       dictionary;
    location    "constant";
    object      DPSI2;
}
// * * * * * * * * * * * * * * * * * * * * * * * * * * * * * * * * * * * * * //

DPSI2_table
101
(

101
(
-7.314017193e-07
-6.469381711e-07
-5.176963991e-07
-4.533899047e-07
-4.228348959e-07
-4.102730388e-07
-4.060685547e-07
-4.053701896e-07
-4.055151871e-07
-4.048522641e-07
-4.025351718e-07
-3.982341612e-07
-3.915904185e-07
-3.826173859e-07
-3.717053768e-07
-3.588539176e-07
-3.439677162e-07
-3.283979248e-07
-3.112648355e-07
-2.931878732e-07
-2.759945756e-07
-2.57561257e-07
-2.386078203e-07
-2.205512617e-07
-2.028587046e-07
-1.854066641e-07
-1.683738888e-07
-1.515702347e-07
-1.350729232e-07
-1.190586037e-07
-1.035796984e-07
-8.944552865e-08
-7.396861435e-08
-5.836584488e-08
-4.478269037e-08
-3.135789973e-08
-1.878169557e-08
-6.371686258e-09
6.73399332e-09
1.971739716e-08
3.107549824e-08
4.204495692e-08
5.335398812e-08
6.360380546e-08
7.367668499e-08
8.360306141e-08
9.322242724e-08
1.02653546e-07
1.117618769e-07
1.205673347e-07
1.289238091e-07
1.371253468e-07
1.449951559e-07
1.525049266e-07
1.597036544e-07
1.670880475e-07
1.739432652e-07
1.804309514e-07
1.86913043e-07
1.930272873e-07
1.990014739e-07
2.046140801e-07
2.10077937e-07
2.15354348e-07
2.204213337e-07
2.25272771e-07
2.298779343e-07
2.343833775e-07
2.386763049e-07
2.427305169e-07
2.466563324e-07
2.504805113e-07
2.540566903e-07
2.572827894e-07
2.603059945e-07
2.633606204e-07
2.663563562e-07
2.690275907e-07
2.714776058e-07
2.73771948e-07
2.760257151e-07
2.781200088e-07
2.800037715e-07
2.81795798e-07
2.834347856e-07
2.849283925e-07
2.862977739e-07
2.875553707e-07
2.886993626e-07
2.897465698e-07
2.906878555e-07
2.915155218e-07
2.922634483e-07
2.929205684e-07
2.935023751e-07
2.939030796e-07
1.470963783e-07
-1.336214104e-15
7.999116541e-25
6.31394693e-26
-1.775879854e-24
)


101
(
-7.25343445e-07
-6.426228507e-07
-5.151105719e-07
-4.510353683e-07
-4.202953119e-07
-4.075089037e-07
-4.031706126e-07
-4.024778975e-07
-4.028025217e-07
-4.024713612e-07
-4.006270823e-07
-3.969302974e-07
-3.909771063e-07
-3.827863456e-07
-3.7272439e-07
-3.607342868e-07
-3.467383811e-07
-3.319724487e-07
-3.156861654e-07
-2.983729936e-07
-2.817067297e-07
-2.639930186e-07
-2.456652326e-07
-2.279627281e-07
-2.106190655e-07
-1.934943322e-07
-1.76705507e-07
-1.601351469e-07
-1.438075643e-07
-1.278673915e-07
-1.123877173e-07
-9.795287773e-08
-8.294851518e-08
-6.753759696e-08
-5.333379646e-08
-3.968779487e-08
-2.668999522e-08
-1.405115816e-08
-1.101613153e-09
1.197958603e-08
2.418793518e-08
3.567992412e-08
4.712608054e-08
5.80927626e-08
6.864135108e-08
7.898586002e-08
8.909067447e-08
9.89896294e-08
1.08636236e-07
1.180129745e-07
1.270420843e-07
1.358009403e-07
1.443089703e-07
1.52517468e-07
1.604153547e-07
1.681914521e-07
1.75800109e-07
1.830584743e-07
1.901026398e-07
1.969366361e-07
2.035490741e-07
2.099226973e-07
2.160557871e-07
2.219982792e-07
2.277492049e-07
2.333015725e-07
2.386367864e-07
2.437793654e-07
2.487620463e-07
2.535417994e-07
2.581195452e-07
2.625338928e-07
2.667795408e-07
2.707927417e-07
2.745764567e-07
2.782187072e-07
2.81771011e-07
2.851617461e-07
2.883160331e-07
2.912671673e-07
2.940733688e-07
2.967538345e-07
2.992676142e-07
3.016392308e-07
3.038830242e-07
3.059676877e-07
3.078852834e-07
3.096588479e-07
3.112868323e-07
3.128243868e-07
3.142490893e-07
3.155089455e-07
3.166539832e-07
3.17688972e-07
3.183225516e-07
3.182918962e-07
1.515639914e-07
-1.617178582e-08
-1.73995039e-08
-1.858791836e-08
-1.943616516e-08
)


101
(
-7.192733939e-07
-6.382837828e-07
-5.125039703e-07
-4.486733158e-07
-4.177535795e-07
-4.047388851e-07
-4.002566551e-07
-3.995527584e-07
-4.000345908e-07
-4.000092617e-07
-3.986089584e-07
-3.954849296e-07
-3.901940084e-07
-3.827544273e-07
-3.735146343e-07
-3.623667857e-07
-3.492410483e-07
-3.35282299e-07
-3.1982336e-07
-3.032839028e-07
-2.871919723e-07
-2.701531468e-07
-2.524696396e-07
-2.351969147e-07
-2.182192666e-07
-2.014375918e-07
-1.849299454e-07
-1.686141917e-07
-1.52495482e-07
-1.366827891e-07
-1.212527291e-07
-1.066491493e-07
-9.187264461e-08
-7.674166227e-08
-6.227642822e-08
-4.836516377e-08
-3.50401367e-08
-2.21330401e-08
-9.186746501e-09
3.894955038e-09
1.656342489e-08
2.859031589e-08
4.031826191e-08
5.174233377e-08
6.277661632e-08
7.354065976e-08
8.407332582e-08
9.440135879e-08
1.045119688e-07
1.143886516e-07
1.239851186e-07
1.33292574e-07
1.423615147e-07
1.511804658e-07
1.597198297e-07
1.680066043e-07
1.761868496e-07
1.841157655e-07
1.917723803e-07
1.992332216e-07
2.064677332e-07
2.135014168e-07
2.202911174e-07
2.268710243e-07
2.332612156e-07
2.394654865e-07
2.4547322e-07
2.512634282e-07
2.568902813e-07
2.623397736e-07
2.675787769e-07
2.726147289e-07
2.774763474e-07
2.82154108e-07
2.866347084e-07
2.909351892e-07
2.950973285e-07
2.991365659e-07
3.029694755e-07
3.065840413e-07
3.100098492e-07
3.132850065e-07
3.164008318e-07
3.193685421e-07
3.222029071e-07
3.249002131e-07
3.274282549e-07
3.297701541e-07
3.319135571e-07
3.339649766e-07
3.358788183e-07
3.376168893e-07
3.392263152e-07
3.406403506e-07
3.412680224e-07
3.406361211e-07
1.537345216e-07
-3.468796709e-08
-3.711295554e-08
-3.945280272e-08
-4.107419967e-08
)


101
(
-7.131914434e-07
-6.339207362e-07
-5.098761865e-07
-4.463034511e-07
-4.152097409e-07
-4.019634968e-07
-3.973276418e-07
-3.96596351e-07
-3.972135568e-07
-3.974686659e-07
-3.964839631e-07
-3.939016493e-07
-3.892444138e-07
-3.82525311e-07
-3.740790632e-07
-3.637527453e-07
-3.514766999e-07
-3.383236944e-07
-3.236765024e-07
-3.079137268e-07
-2.924351833e-07
-2.7604569e-07
-2.590099434e-07
-2.422260574e-07
-2.256441244e-07
-2.092222461e-07
-1.930253773e-07
-1.769878539e-07
-1.611107396e-07
-1.45473472e-07
-1.301432655e-07
-1.154735654e-07
-1.008069512e-07
-8.593629072e-08
-7.144461968e-08
-5.735340537e-08
-4.37757904e-08
-3.061267969e-08
-1.757296101e-08
-4.488612541e-09
8.406966418e-09
2.084382051e-08
3.290411851e-08
4.468405271e-08
5.613249951e-08
6.72986706e-08
7.822369348e-08
8.8942065e-08
9.946023326e-08
1.097730578e-07
1.198535591e-07
1.296618195e-07
1.392373795e-07
1.485910036e-07
1.577003252e-07
1.665166342e-07
1.752150146e-07
1.83715463e-07
1.919538614e-07
1.999974989e-07
2.078159071e-07
2.154495552e-07
2.228498429e-07
2.300340294e-07
2.370249612e-07
2.4383654e-07
2.504664379e-07
2.568786188e-07
2.631216935e-07
2.691949471e-07
2.750651687e-07
2.807219279e-07
2.861885638e-07
2.914796289e-07
2.965950569e-07
3.015346536e-07
3.063167409e-07
3.109826567e-07
3.154687842e-07
3.19745158e-07
3.238151715e-07
3.277053125e-07
3.314234794e-07
3.349933189e-07
3.384192494e-07
3.41714532e-07
3.448708171e-07
3.47843994e-07
3.505494239e-07
3.531425386e-07
3.555680035e-07
3.577853991e-07
3.598971878e-07
3.617245404e-07
3.622633249e-07
3.608503738e-07
1.536668897e-07
-5.536823574e-08
-5.896202119e-08
-6.242074087e-08
-6.474843371e-08
)


101
(
-7.070974649e-07
-6.295334756e-07
-5.07226805e-07
-4.439254598e-07
-4.126638233e-07
-3.991832399e-07
-3.943845195e-07
-3.93610233e-07
-3.943415737e-07
-3.948522746e-07
-3.9425528e-07
-3.921840876e-07
-3.881317533e-07
-3.821027498e-07
-3.744209036e-07
-3.648939134e-07
-3.534465702e-07
-3.410938413e-07
-3.27245033e-07
-3.122572176e-07
-2.974229593e-07
-2.816706591e-07
-2.652789041e-07
-2.490270487e-07
-2.32875559e-07
-2.168336228e-07
-2.009724756e-07
-1.852363995e-07
-1.696291894e-07
-1.542093184e-07
-1.390277012e-07
-1.243760246e-07
-1.097754813e-07
-9.511637718e-08
-8.073049089e-08
-6.657548911e-08
-5.283071866e-08
-3.945883815e-08
-2.628355924e-08
-1.316404583e-08
-1.585564596e-10
1.254900918e-08
2.491093567e-08
3.699273471e-08
4.878320286e-08
6.030831681e-08
7.159132319e-08
8.266463953e-08
9.35439114e-08
1.042367653e-07
1.147320813e-07
1.24983127e-07
1.350138598e-07
1.448397719e-07
1.544495411e-07
1.637658168e-07
1.729501935e-07
1.81955473e-07
1.907198303e-07
1.992999088e-07
2.076605732e-07
2.158466548e-07
2.238110033e-07
2.315603249e-07
2.39113741e-07
2.464904325e-07
2.536958238e-07
2.60692303e-07
2.675213539e-07
2.741819765e-07
2.806462944e-07
2.868997581e-07
2.929541552e-07
2.988309562e-07
3.04543314e-07
3.100922708e-07
3.154772928e-07
3.207476539e-07
3.258573794e-07
3.307803152e-07
3.355061973e-07
3.400292125e-07
3.443587766e-07
3.485352272e-07
3.525586768e-07
3.564539651e-07
3.602214404e-07
3.638454481e-07
3.671752324e-07
3.703495294e-07
3.733056891e-07
3.760056733e-07
3.786412401e-07
3.809151489e-07
3.812751667e-07
3.788909677e-07
1.514298694e-07
-7.804984431e-08
-8.278538388e-08
-8.733344272e-08
-9.030978521e-08
)


101
(
-7.009913295e-07
-6.251217601e-07
-5.045553992e-07
-4.415390126e-07
-4.101158372e-07
-3.96398598e-07
-3.914282206e-07
-3.905959397e-07
-3.914207835e-07
-3.921627855e-07
-3.919261077e-07
-3.903359061e-07
-3.868595784e-07
-3.814905695e-07
-3.745436221e-07
-3.657924375e-07
-3.551521751e-07
-3.435908346e-07
-3.305280914e-07
-3.163103094e-07
-3.021436161e-07
-2.870252353e-07
-2.712712993e-07
-2.555812158e-07
-2.398946142e-07
-2.24256049e-07
-2.087534512e-07
-1.933406947e-07
-1.780281673e-07
-1.628618307e-07
-1.478744592e-07
-1.333123879e-07
-1.187776541e-07
-1.04286203e-07
-9.006298286e-08
-7.594967901e-08
-6.213605089e-08
-4.862226469e-08
-3.531317543e-08
-2.213222485e-08
-9.066853014e-09
3.804569936e-09
1.640041948e-08
2.873141304e-08
4.080097536e-08
5.263113727e-08
6.423038441e-08
7.562229562e-08
8.682227612e-08
9.784615736e-08
1.086961279e-07
1.193307586e-07
1.297642588e-07
1.400081963e-07
1.500573227e-07
1.598264806e-07
1.694592909e-07
1.789191709e-07
1.881537129e-07
1.972179281e-07
2.060742036e-07
2.147670874e-07
2.232509721e-07
2.315258213e-07
2.396046503e-07
2.47506468e-07
2.552424363e-07
2.627802973e-07
2.701599423e-07
2.773746093e-07
2.843979266e-07
2.912161739e-07
2.978317477e-07
3.042670897e-07
3.105465763e-07
3.166799741e-07
3.226482816e-07
3.28499057e-07
3.342006947e-07
3.39739404e-07
3.451146285e-07
3.502853861e-07
3.552398572e-07
3.600305865e-07
3.646540767e-07
3.691522611e-07
3.735306437e-07
3.77791831e-07
3.817732092e-07
3.855878236e-07
3.891000529e-07
3.922955919e-07
3.954516968e-07
3.981845377e-07
3.982959377e-07
3.947522446e-07
1.470973584e-07
-1.02586408e-07
-1.084415899e-07
-1.140559865e-07
-1.176334897e-07
)


101
(
-6.948729082e-07
-6.206853471e-07
-5.01861536e-07
-4.391437678e-07
-4.075657784e-07
-3.936100386e-07
-3.884596658e-07
-3.875549876e-07
-3.884533177e-07
-3.89402896e-07
-3.894996628e-07
-3.883608053e-07
-3.854315639e-07
-3.806926872e-07
-3.74450907e-07
-3.664508529e-07
-3.565953426e-07
-3.458135707e-07
-3.335247292e-07
-3.200697814e-07
-3.065871696e-07
-2.92104691e-07
-2.769826335e-07
-2.61873651e-07
-2.466828684e-07
-2.314730463e-07
-2.163513582e-07
-2.012825222e-07
-1.862864291e-07
-1.714040815e-07
-1.566522661e-07
-1.422427069e-07
-1.277985758e-07
-1.134489019e-07
-9.940526108e-08
-8.540609815e-08
-7.161525447e-08
-5.803971746e-08
-4.463242068e-08
-3.138549398e-08
-1.828093176e-08
-5.315943963e-09
7.442855782e-09
1.996507561e-08
3.225453953e-08
4.433293538e-08
5.620063211e-08
6.787160445e-08
7.935418584e-08
9.066537075e-08
1.018165366e-07
1.127775969e-07
1.235599352e-07
1.34170102e-07
1.446041602e-07
1.547770368e-07
1.648160089e-07
1.746852293e-07
1.843393595e-07
1.938345612e-07
2.031356633e-07
2.122867804e-07
2.212445646e-07
2.300045671e-07
2.385731905e-07
2.46964042e-07
2.551889707e-07
2.632237755e-07
2.711127685e-07
2.78845855e-07
2.863951336e-07
2.937463826e-07
3.00892855e-07
3.078562261e-07
3.146717111e-07
3.213630863e-07
3.278954404e-07
3.343075203e-07
3.405749111e-07
3.466948797e-07
3.526911033e-07
3.585065953e-07
3.640995461e-07
3.695171098e-07
3.747485156e-07
3.798515201e-07
3.848380075e-07
3.897247204e-07
3.943609789e-07
3.988555411e-07
4.029622437e-07
4.06669797e-07
4.103407279e-07
4.135400769e-07
4.133328296e-07
4.084398913e-07
1.407420409e-07
-1.288409253e-07
-1.358072401e-07
-1.424783836e-07
-1.466182621e-07
)


101
(
-6.887420573e-07
-6.162239833e-07
-4.991447713e-07
-4.367393655e-07
-4.05013622e-07
-3.908180067e-07
-3.854797562e-07
-3.844888675e-07
-3.854412899e-07
-3.865752955e-07
-3.869791718e-07
-3.862625145e-07
-3.838514922e-07
-3.797131115e-07
-3.741466469e-07
-3.668720683e-07
-3.577782413e-07
-3.477617091e-07
-3.362341458e-07
-3.235330676e-07
-3.107452082e-07
-2.969032695e-07
-2.824086025e-07
-2.678925021e-07
-2.532233099e-07
-2.384677124e-07
-2.237494548e-07
-2.090446083e-07
-1.943844622e-07
-1.798114088e-07
-1.653307077e-07
-1.511282522e-07
-1.368138002e-07
-1.226013981e-07
-1.087378937e-07
-9.489391847e-08
-8.119884512e-08
-6.764216574e-08
-5.419343167e-08
-4.090051984e-08
-2.777291406e-08
-1.475915051e-08
-1.897320201e-09
1.07586769e-08
2.321116457e-08
3.54803611e-08
4.756405206e-08
5.947035718e-08
7.11978623e-08
8.275786738e-08
9.416338979e-08
1.053961036e-07
1.164720975e-07
1.273963091e-07
1.381632078e-07
1.486903699e-07
1.590932786e-07
1.693307635e-07
1.793583475e-07
1.892341949e-07
1.989280955e-07
2.084855805e-07
2.178677683e-07
2.270691534e-07
2.360913328e-07
2.449388845e-07
2.536169663e-07
2.621063588e-07
2.704601484e-07
2.786713391e-07
2.86711416e-07
2.945637901e-07
3.022114189e-07
3.096721785e-07
3.169904745e-07
3.242089268e-07
3.312827185e-07
3.382385006e-07
3.450501901e-07
3.517222219e-07
3.583055919e-07
3.647427293e-07
3.709726075e-07
3.770266961e-07
3.828759162e-07
3.88595241e-07
3.941915968e-07
3.996955341e-07
4.049678709e-07
4.101632208e-07
4.149080226e-07
4.191416729e-07
4.233249579e-07
4.26989895e-07
4.263985675e-07
4.199652175e-07
1.324217035e-07
-1.567042662e-07
-1.647761991e-07
-1.724969577e-07
-1.771682366e-07
)


101
(
-6.825986427e-07
-6.11737417e-07
-4.964046537e-07
-4.343254338e-07
-4.024593288e-07
-3.880229322e-07
-3.824893807e-07
-3.813990523e-07
-3.823868027e-07
-3.836826713e-07
-3.843678737e-07
-3.840447927e-07
-3.821232453e-07
-3.785559459e-07
-3.736349149e-07
-3.670593395e-07
-3.587033879e-07
-3.494355912e-07
-3.386558274e-07
-3.2669818e-07
-3.146106492e-07
-3.014146804e-07
-2.875447088e-07
-2.736281088e-07
-2.595007e-07
-2.452233445e-07
-2.309310582e-07
-2.166101329e-07
-2.023040573e-07
-1.880614559e-07
-1.738816583e-07
-1.599328143e-07
-1.457924858e-07
-1.317314502e-07
-1.180487862e-07
-1.043797961e-07
-9.08301145e-08
-7.736141449e-08
-6.393660368e-08
-5.06387038e-08
-3.751280087e-08
-2.448395505e-08
-1.156632856e-08
1.172434309e-09
1.373580376e-08
2.614088064e-08
3.838591315e-08
5.047837135e-08
6.240893872e-08
7.418148497e-08
8.580308543e-08
9.725989953e-08
1.085747601e-07
1.1975856e-07
1.308061159e-07
1.416376592e-07
1.523594733e-07
1.629251202e-07
1.732863052e-07
1.834984749e-07
1.935358132e-07
2.034471207e-07
2.132006501e-07
2.227937575e-07
2.322281974e-07
2.415001526e-07
2.5060173e-07
2.595102026e-07
2.682847499e-07
2.769280053e-07
2.854190697e-07
2.93739979e-07
3.01859886e-07
3.097889139e-07
3.175775146e-07
3.252883357e-07
3.328743519e-07
3.403530084e-07
3.476894598e-07
3.548872216e-07
3.620264027e-07
3.69056528e-07
3.75908761e-07
3.825992805e-07
3.890692285e-07
3.954155678e-07
4.016269537e-07
4.077450243e-07
4.136363995e-07
4.195314586e-07
4.249489301e-07
4.29725408e-07
4.344228825e-07
4.385456306e-07
4.374855764e-07
4.293539027e-07
1.222136742e-07
-1.860890555e-07
-1.952671233e-07
-2.040388293e-07
-2.092204599e-07
)


101
(
-6.764425135e-07
-6.07225382e-07
-4.936407171e-07
-4.319015808e-07
-3.999028369e-07
-3.852252201e-07
-3.794894065e-07
-3.78286987e-07
-3.792919356e-07
-3.807276975e-07
-3.816690103e-07
-3.817114216e-07
-3.80250797e-07
-3.772253903e-07
-3.729199492e-07
-3.670162423e-07
-3.593736496e-07
-3.508362106e-07
-3.407896333e-07
-3.29563643e-07
-3.181777249e-07
-3.056325962e-07
-2.923861306e-07
-2.790724385e-07
-2.655017818e-07
-2.517239617e-07
-2.378796281e-07
-2.239626439e-07
-2.100281093e-07
-1.961340289e-07
-1.822792715e-07
-1.68622447e-07
-1.547009345e-07
-1.408185464e-07
-1.273253559e-07
-1.138418455e-07
-1.004671938e-07
-8.713871255e-08
-7.379973271e-08
-6.054906961e-08
-4.746207554e-08
-3.445145752e-08
-2.151746877e-08
-8.740725249e-09
3.886920506e-09
1.637820363e-08
2.873186369e-08
4.095913775e-08
5.304647782e-08
6.49913165e-08
7.679288292e-08
8.843598742e-08
9.994308418e-08
1.113321918e-07
1.226059031e-07
1.336896918e-07
1.446820709e-07
1.555340908e-07
1.661913831e-07
1.767011666e-07
1.870389984e-07
1.972558969e-07
2.073274032e-07
2.172570704e-07
2.270538552e-07
2.367120285e-07
2.462087364e-07
2.55508929e-07
2.646687336e-07
2.736983833e-07
2.825933022e-07
2.913429155e-07
2.999042497e-07
3.082750269e-07
3.165048932e-07
3.246728851e-07
3.327348988e-07
3.407097728e-07
3.485529771e-07
3.562528663e-07
3.639145831e-07
3.715060176e-07
3.789611957e-07
3.862803159e-07
3.933638678e-07
4.003378334e-07
4.071759044e-07
4.139058735e-07
4.204025026e-07
4.269856814e-07
4.33092679e-07
4.384365373e-07
4.436490267e-07
4.482135261e-07
4.466051445e-07
4.366209907e-07
1.101663006e-07
-2.169170987e-07
-2.272078354e-07
-2.370361309e-07
-2.427123429e-07
)


101
(
-6.702735278e-07
-6.026876188e-07
-4.90852494e-07
-4.294674045e-07
-3.973440726e-07
-3.824252637e-07
-3.764806929e-07
-3.751541012e-07
-3.761587539e-07
-3.77713045e-07
-3.78885838e-07
-3.792662134e-07
-3.782382096e-07
-3.757257474e-07
-3.720061519e-07
-3.667466567e-07
-3.597922429e-07
-3.519651651e-07
-3.426359045e-07
-3.321284945e-07
-3.214417107e-07
-3.09550868e-07
-2.96927806e-07
-2.842185523e-07
-2.712150973e-07
-2.579546261e-07
-2.445788294e-07
-2.310857735e-07
-2.175402459e-07
-2.040108738e-07
-1.905007087e-07
-1.771664155e-07
-1.635044184e-07
-1.498353394e-07
-1.365505216e-07
-1.232635541e-07
-1.100812452e-07
-9.692687888e-08
-8.372394714e-08
-7.057498807e-08
-5.757407066e-08
-4.462070807e-08
-3.170779869e-08
-1.893266689e-08
-6.281525259e-09
6.252116697e-09
1.866501669e-08
3.097532084e-08
4.31709598e-08
5.524511215e-08
6.718833047e-08
7.898176018e-08
9.064321268e-08
1.021918539e-07
1.136381985e-07
1.249198118e-07
1.361308953e-07
1.472231968e-07
1.581374191e-07
1.689089003e-07
1.795100213e-07
1.899906473e-07
2.003319272e-07
2.105431591e-07
2.206448994e-07
2.306399193e-07
2.404975537e-07
2.50165142e-07
2.596836154e-07
2.690616865e-07
2.783124428e-07
2.874438716e-07
2.964089747e-07
3.051923573e-07
3.138363824e-07
3.224308203e-07
3.309323738e-07
3.393660322e-07
3.476911353e-07
3.558766395e-07
3.640308677e-07
3.721445418e-07
3.801749535e-07
3.881146914e-07
3.95802045e-07
4.033873678e-07
4.108606485e-07
4.18208043e-07
4.252941724e-07
4.325407097e-07
4.393475681e-07
4.452883956e-07
4.510120716e-07
4.55996696e-07
4.537650101e-07
4.417765091e-07
9.632023444e-08
-2.491224079e-07
-2.605378868e-07
-2.714376329e-07
-2.776031497e-07
)


101
(
-6.64091529e-07
-5.981238514e-07
-4.880394983e-07
-4.270224808e-07
-3.947829369e-07
-3.796234295e-07
-3.734640756e-07
-3.720017952e-07
-3.729892942e-07
-3.746413658e-07
-3.760216081e-07
-3.767129965e-07
-3.76089616e-07
-3.740614105e-07
-3.708980728e-07
-3.662547408e-07
-3.599627302e-07
-3.52824611e-07
-3.441954938e-07
-3.343923318e-07
-3.24398941e-07
-3.131638057e-07
-3.011644657e-07
-2.890601719e-07
-2.76630864e-07
-2.639018698e-07
-2.510129671e-07
-2.379632498e-07
-2.248244335e-07
-2.116751925e-07
-1.985257371e-07
-1.855377459e-07
-1.721698393e-07
-1.587504855e-07
-1.45701356e-07
-1.326275696e-07
-1.196507898e-07
-1.066913573e-07
-9.366024384e-08
-8.066016151e-08
-6.779490892e-08
-5.494512588e-08
-4.209425505e-08
-2.935910636e-08
-1.672260436e-08
-4.184417687e-09
8.24639414e-09
2.059083213e-08
3.284348325e-08
4.500022398e-08
5.704465422e-08
6.895284911e-08
8.073349557e-08
9.240345209e-08
1.039767292e-07
1.154036201e-07
1.267783904e-07
1.380594537e-07
1.491873698e-07
1.601833213e-07
1.710134218e-07
1.817221123e-07
1.922922241e-07
2.027359603e-07
2.130851548e-07
2.233572934e-07
2.335274482e-07
2.435319838e-07
2.533877817e-07
2.630881857e-07
2.726544882e-07
2.821168781e-07
2.914378881e-07
3.005974021e-07
3.09627876e-07
3.186225988e-07
3.275322902e-07
3.363842077e-07
3.451530184e-07
3.538039918e-07
3.624300659e-07
3.710243928e-07
3.795889147e-07
3.881330924e-07
3.964230312e-07
4.045989201e-07
4.126947456e-07
4.206749348e-07
4.283368276e-07
4.362182081e-07
4.437222012e-07
4.502750566e-07
4.565116403e-07
4.618929604e-07
4.589660687e-07
4.448282694e-07
8.071081534e-08
-2.826529275e-07
-2.952086252e-07
-3.071914927e-07
-3.138387742e-07
)


101
(
-6.578963595e-07
-5.935338006e-07
-4.852012359e-07
-4.245663707e-07
-3.922193134e-07
-3.768200653e-07
-3.704403743e-07
-3.688314478e-07
-3.697855729e-07
-3.715153004e-07
-3.730795732e-07
-3.740556156e-07
-3.738092186e-07
-3.722368658e-07
-3.696003987e-07
-3.655449064e-07
-3.59888999e-07
-3.534172377e-07
-3.454697909e-07
-3.3635529e-07
-3.270467598e-07
-3.164664095e-07
-3.050908723e-07
-2.935914612e-07
-2.817405772e-07
-2.695536709e-07
-2.571672202e-07
-2.445789773e-07
-2.318646821e-07
-2.191111069e-07
-2.063365127e-07
-1.937128039e-07
-1.806667503e-07
-1.675313556e-07
-1.547497614e-07
-1.419130715e-07
-1.291578342e-07
-1.164074279e-07
-1.035696252e-07
-9.075377071e-08
-7.807052185e-08
-6.537388656e-08
-5.263078069e-08
-3.997544254e-08
-2.739042083e-08
-1.4883721e-08
-2.472021826e-09
9.865775854e-09
2.212822944e-08
3.431774873e-08
4.641760005e-08
5.840169863e-08
7.026816166e-08
8.202548022e-08
9.368700425e-08
1.052134465e-07
1.166989855e-07
1.281139528e-07
1.394055109e-07
1.505846688e-07
1.616087159e-07
1.725123334e-07
1.832770212e-07
1.939125234e-07
2.044578988e-07
2.149461038e-07
2.253678027e-07
2.356631918e-07
2.458295428e-07
2.558328755e-07
2.656865454e-07
2.754357462e-07
2.850596568e-07
2.945476878e-07
3.039297512e-07
3.132973948e-07
3.225881414e-07
3.318246716e-07
3.409943667e-07
3.500757628e-07
3.591553979e-07
3.681993559e-07
3.772447212e-07
3.863560688e-07
3.9525161e-07
4.040094712e-07
4.126946608e-07
4.21308926e-07
4.295487195e-07
4.380326776e-07
4.462174128e-07
4.53393948e-07
4.601443082e-07
4.658962771e-07
4.621976776e-07
4.457779467e-07
6.336824447e-08
-3.17467365e-07
-3.311794943e-07
-3.44263014e-07
-3.513954965e-07
)


101
(
-6.516878541e-07
-5.889171806e-07
-4.823372024e-07
-4.220986178e-07
-3.896530651e-07
-3.740154979e-07
-3.67410391e-07
-3.656444129e-07
-3.665495798e-07
-3.683374741e-07
-3.700629842e-07
-3.712979265e-07
-3.714012802e-07
-3.702566935e-07
-3.681179467e-07
-3.646217955e-07
-3.595752379e-07
-3.53746204e-07
-3.464607436e-07
-3.380181182e-07
-3.293834137e-07
-3.194544435e-07
-3.087020034e-07
-2.978068677e-07
-2.865367155e-07
-2.748994363e-07
-2.63028014e-07
-2.509174231e-07
-2.38645e-07
-2.263029696e-07
-2.139168568e-07
-2.016718828e-07
-1.88968723e-07
-1.761461125e-07
-1.63664315e-07
-1.510942032e-07
-1.385823059e-07
-1.260550648e-07
-1.134243195e-07
-1.008153113e-07
-8.834929754e-08
-7.585205181e-08
-6.326706495e-08
-5.073702444e-08
-3.824190226e-08
-2.580104823e-08
-1.344113321e-08
-1.14628592e-09
1.108320784e-08
2.32591627e-08
3.536769637e-08
4.738381802e-08
5.929840261e-08
7.111113977e-08
8.282755856e-08
9.441401101e-08
1.0596399e-07
1.174593208e-07
1.288600106e-07
1.401748351e-07
1.513528962e-07
1.624167145e-07
1.733444711e-07
1.841396905e-07
1.948402354e-07
2.054889494e-07
2.160968829e-07
2.266224055e-07
2.370573451e-07
2.473400483e-07
2.574617543e-07
2.67466545e-07
2.773449396e-07
2.871052993e-07
2.967896684e-07
3.064959834e-07
3.161432576e-07
3.257369615e-07
3.352673722e-07
3.447341322e-07
3.542400299e-07
3.637126012e-07
3.731909704e-07
3.828108315e-07
3.922959333e-07
4.016429629e-07
4.108887337e-07
4.201066505e-07
4.289337799e-07
4.380038122e-07
4.468303275e-07
4.546284029e-07
4.618956696e-07
4.679952723e-07
4.634492722e-07
4.446174935e-07
4.431124709e-08
-3.535273887e-07
-3.684146099e-07
-3.826139944e-07
-3.902341747e-07
)


101
(
-6.4546584e-07
-5.842736953e-07
-4.794468789e-07
-4.196187457e-07
-3.870840324e-07
-3.712100297e-07
-3.643749061e-07
-3.624420187e-07
-3.632832778e-07
-3.651104903e-07
-3.669750809e-07
-3.684437918e-07
-3.688701127e-07
-3.681255514e-07
-3.664556558e-07
-3.63490272e-07
-3.590259375e-07
-3.538151237e-07
-3.471708225e-07
-3.393821397e-07
-3.314080759e-07
-3.221245525e-07
-3.119931933e-07
-3.017011221e-07
-2.91012591e-07
-2.799299033e-07
-2.685830402e-07
-2.569637739e-07
-2.451494995e-07
-2.332352022e-07
-2.212513813e-07
-2.093973729e-07
-1.970532427e-07
-1.845663674e-07
-1.724131343e-07
-1.601409191e-07
-1.479001217e-07
-1.356157957e-07
-1.232037178e-07
-1.10813417e-07
-9.858788228e-08
-8.632796081e-08
-7.39499298e-08
-6.159497989e-08
-4.923185619e-08
-3.689296526e-08
-2.461801904e-08
-1.239674817e-08
-2.35654099e-10
1.188224012e-08
2.395290547e-08
3.595715032e-08
4.78786072e-08
5.971136388e-08
7.145173815e-08
8.306430936e-08
9.463732503e-08
1.061642272e-07
1.176205548e-07
1.290184241e-07
1.403050198e-07
1.514900461e-07
1.625468287e-07
1.73471508e-07
1.842953105e-07
1.950615999e-07
2.05796189e-07
2.164835221e-07
2.271275108e-07
2.376520959e-07
2.480211565e-07
2.582611694e-07
2.683591712e-07
2.783377888e-07
2.882630763e-07
2.982570425e-07
3.082291843e-07
3.181588256e-07
3.280191824e-07
3.378220094e-07
3.477096701e-07
3.575904366e-07
3.674713846e-07
3.775350739e-07
3.87562909e-07
3.975044556e-07
4.073007213e-07
4.170770446e-07
4.264826091e-07
4.361296704e-07
4.455590489e-07
4.53965988e-07
4.61746914e-07
4.681692891e-07
4.627031459e-07
4.413332225e-07
2.355200746e-08
-3.908019833e-07
-4.068820282e-07
-4.222129394e-07
-4.303288251e-07
)


101
(
-6.392301471e-07
-5.79603048e-07
-4.76529739e-07
-4.171262637e-07
-3.845120378e-07
-3.684039442e-07
-3.613346841e-07
-3.592255743e-07
-3.599886076e-07
-3.618369333e-07
-3.638190987e-07
-3.654970833e-07
-3.662200699e-07
-3.658481707e-07
-3.646185786e-07
-3.621554091e-07
-3.582458928e-07
-3.536280615e-07
-3.476030801e-07
-3.40449296e-07
-3.331207113e-07
-3.244741921e-07
-3.149602333e-07
-3.052692505e-07
-2.951621475e-07
-2.846369534e-07
-2.738214161e-07
-2.627043551e-07
-2.51362653e-07
-2.398920222e-07
-2.283251496e-07
-2.168740121e-07
-2.04901298e-07
-1.927672539e-07
-1.809661658e-07
-1.690213935e-07
-1.570826214e-07
-1.450670562e-07
-1.328895398e-07
-1.207268731e-07
-1.087530025e-07
-9.67546996e-08
-8.462522193e-08
-7.249712179e-08
-6.031527126e-08
-4.81165964e-08
-3.595862466e-08
-2.384234558e-08
-1.178057657e-08
2.437130942e-10
1.223156678e-08
2.417716249e-08
3.606334675e-08
4.787730952e-08
5.960936762e-08
7.121868891e-08
8.277911762e-08
9.429371231e-08
1.057537725e-07
1.171795476e-07
1.285249503e-07
1.397885485e-07
1.509360978e-07
1.619565109e-07
1.728737462e-07
1.837247931e-07
1.945393581e-07
2.053250354e-07
2.161082478e-07
2.268179076e-07
2.374009121e-07
2.478569422e-07
2.581529358e-07
2.683104165e-07
2.784147595e-07
2.88627358e-07
2.988736501e-07
3.09115459e-07
3.192862688e-07
3.293832202e-07
3.395950012e-07
3.498465557e-07
3.601110065e-07
3.705689521e-07
3.810688013e-07
3.915864246e-07
4.019384469e-07
4.122306362e-07
4.221826714e-07
4.323983144e-07
4.423940546e-07
4.513925479e-07
4.596799866e-07
4.66392414e-07
4.599382419e-07
4.359111619e-07
1.099165873e-09
-4.292648056e-07
-4.465535278e-07
-4.63053692e-07
-4.717036985e-07
)


101
(
-6.329806027e-07
-5.749049379e-07
-4.735852473e-07
-4.146206638e-07
-3.819368835e-07
-3.655975032e-07
-3.582904711e-07
-3.559963668e-07
-3.566674859e-07
-3.585193654e-07
-3.60598261e-07
-3.624616777e-07
-3.634555408e-07
-3.634293496e-07
-3.626118732e-07
-3.606224712e-07
-3.572401852e-07
-3.531894966e-07
-3.477610966e-07
-3.412221362e-07
-3.345221156e-07
-3.265017649e-07
-3.175995501e-07
-3.085065909e-07
-2.989798297e-07
-2.890134924e-07
-2.787336872e-07
-2.681268332e-07
-2.572695794e-07
-2.462574674e-07
-2.351227146e-07
-2.240871519e-07
-2.124969792e-07
-2.007282077e-07
-1.892966759e-07
-1.777043443e-07
-1.660984824e-07
-1.54382489e-07
-1.42462184e-07
-1.305379045e-07
-1.188209243e-07
-1.070964749e-07
-9.52442996e-08
-8.338848e-08
-7.143992684e-08
-5.942775218e-08
-4.742272354e-08
-3.544088089e-08
-2.35071629e-08
-1.160836119e-08
2.590993566e-10
1.210146647e-08
2.39064456e-08
3.566084554e-08
4.734848253e-08
5.892519323e-08
7.044490829e-08
8.190927241e-08
9.332475202e-08
1.047239165e-07
1.160739968e-07
1.273680227e-07
1.385643876e-07
1.496428453e-07
1.606207127e-07
1.715270706e-07
1.823856619e-07
1.932170307e-07
2.04072121e-07
2.148979688e-07
2.256416923e-07
2.362829167e-07
2.467592121e-07
2.570735598e-07
2.673103334e-07
2.776677668e-07
2.881139378e-07
2.986226677e-07
3.090884122e-07
3.194571068e-07
3.299360035e-07
3.404975162e-07
3.511176496e-07
3.61937746e-07
3.728366281e-07
3.838814986e-07
3.947940639e-07
4.055745834e-07
4.160224358e-07
4.26794559e-07
4.3732005e-07
4.468840725e-07
4.556735879e-07
4.626365106e-07
4.551196837e-07
4.283299358e-07
-2.30345533e-08
-4.68888249e-07
-4.874020943e-07
-5.050672335e-07
-5.142461414e-07
)


101
(
-6.26717001e-07
-5.701790251e-07
-4.706128419e-07
-4.121014179e-07
-3.79358337e-07
-3.627909315e-07
-3.552429775e-07
-3.527556456e-07
-3.533217877e-07
-3.551603064e-07
-3.573157566e-07
-3.593414348e-07
-3.605809324e-07
-3.608739376e-07
-3.604407802e-07
-3.588968861e-07
-3.560141476e-07
-3.525042693e-07
-3.476489295e-07
-3.417037742e-07
-3.356138989e-07
-3.28206678e-07
-3.199084104e-07
-3.114089787e-07
-3.024604672e-07
-2.930531657e-07
-2.833116377e-07
-2.732203944e-07
-2.628565964e-07
-2.523158708e-07
-2.416282794e-07
-2.310220861e-07
-2.198259715e-07
-2.084324269e-07
-1.973825029e-07
-1.861617424e-07
-1.749154637e-07
-1.63530481e-07
-1.518971293e-07
-1.402297533e-07
-1.287756991e-07
-1.173280234e-07
-1.057664791e-07
-9.421678618e-08
-8.25522447e-08
-7.077863911e-08
-5.896767456e-08
-4.715243729e-08
-3.537454531e-08
-2.362827165e-08
-1.191472959e-08
-2.166719159e-10
1.146258793e-08
2.311334821e-08
3.471839804e-08