/*--------------------------------*- C++ -*----------------------------------*\
| =========                 |                                                 |
| \\      /  F ield         | OpenFOAM: The Open Source CFD Toolbox           |
|  \\    /   O peration     | Version:  2.3.1                                 |
|   \\  /    A nd           | Web:      www.OpenFOAM.org                      |
|    \\/     M anipulation  |                                                 |
\*---------------------------------------------------------------------------*/
FoamFile
{
    version     2.0;
    format      ascii;
    class       dictionary;
    location    "constant";
    object      DPSI5;
}
// * * * * * * * * * * * * * * * * * * * * * * * * * * * * * * * * * * * * * //

DPSI5_table
101
(

101
(
-1.534494028e-06
-1.60469771e-06
-1.686580129e-06
-1.685425031e-06
-1.636912134e-06
-1.565409435e-06
-1.480814234e-06
-1.390245779e-06
-1.300482302e-06
-1.212482231e-06
-1.12723729e-06
-1.0458946e-06
-9.667581627e-07
-8.899420522e-07
-8.175507719e-07
-7.476179755e-07
-6.788018238e-07
-6.151711508e-07
-5.525546595e-07
-4.918181781e-07
-4.382205869e-07
-3.844278102e-07
-3.321907824e-07
-2.849917105e-07
-2.408565294e-07
-1.991295507e-07
-1.599659926e-07
-1.227336657e-07
-8.742238348e-08
-5.425863426e-08
-2.316105501e-08
4.536375744e-09
3.394123424e-08
6.280223883e-08
8.727216723e-08
1.109621201e-07
1.327371599e-07
1.538472408e-07
1.756914838e-07
1.968912335e-07
2.151445932e-07
2.324984663e-07
2.501330559e-07
2.659126608e-07
2.812194625e-07
2.961313107e-07
3.10409111e-07
3.242580151e-07
3.374913355e-07
3.501658896e-07
3.620907356e-07
3.73696824e-07
3.847501384e-07
3.952277863e-07
4.052083363e-07
4.153661991e-07
4.247559477e-07
4.33597853e-07
4.423871102e-07
4.506464675e-07
4.586822524e-07
4.662099321e-07
4.735143597e-07
4.805481591e-07
4.872859617e-07
4.937250068e-07
4.99828762e-07
5.057873344e-07
5.114622667e-07
5.168227656e-07
5.220108077e-07
5.270621576e-07
5.317934745e-07
5.360757608e-07
5.401043154e-07
5.441779375e-07
5.481728851e-07
5.517564122e-07
5.550646412e-07
5.581786131e-07
5.612431524e-07
5.641094593e-07
5.667097483e-07
5.692021465e-07
5.71507975e-07
5.736254575e-07
5.755869058e-07
5.774100428e-07
5.790865779e-07
5.806482054e-07
5.820792413e-07
5.833535043e-07
5.845249634e-07
5.85582266e-07
5.865557143e-07
5.872544528e-07
2.939057146e-07
-4.508814219e-15
1.581453317e-24
1.075579887e-25
-3.510976584e-24
)


101
(
-1.519225387e-06
-1.589934138e-06
-1.672483282e-06
-1.672990264e-06
-1.626633484e-06
-1.557456093e-06
-1.475278057e-06
-1.387080919e-06
-1.299552542e-06
-1.213706077e-06
-1.130502006e-06
-1.051037348e-06
-9.73782087e-07
-8.987289692e-07
-8.278120483e-07
-7.593595145e-07
-6.920441933e-07
-6.292686318e-07
-5.678689434e-07
-5.080537135e-07
-4.543982453e-07
-4.015107734e-07
-3.498511754e-07
-3.023608909e-07
-2.580569254e-07
-2.161893217e-07
-1.767213665e-07
-1.39209468e-07
-1.035060334e-07
-6.976294649e-08
-3.797262118e-08
-9.011424792e-09
1.998508148e-08
4.904095897e-08
7.533473873e-08
9.993539388e-08
1.229540792e-07
1.448974747e-07
1.668581068e-07
1.886512156e-07
2.088073896e-07
2.274246966e-07
2.456175892e-07
2.629318714e-07
2.793319069e-07
2.952165612e-07
3.10564351e-07
3.254354007e-07
3.397899009e-07
3.536193478e-07
3.668406243e-07
3.795429603e-07
3.918042068e-07
4.035680199e-07
4.148199263e-07
4.257656342e-07
4.364870946e-07
4.466714902e-07
4.5647797e-07
4.659819697e-07
4.751327636e-07
4.839502124e-07
4.923992537e-07
5.005658233e-07
5.084565891e-07
5.160683217e-07
5.233807372e-07
5.304055737e-07
5.372192636e-07
5.437637804e-07
5.500247054e-07
5.560573517e-07
5.618827447e-07
5.674249402e-07
5.726720993e-07
5.777128341e-07
5.826277561e-07
5.873649538e-07
5.918046101e-07
5.959801566e-07
5.99955547e-07
6.037831862e-07
6.074094115e-07
6.10859069e-07
6.141565214e-07
6.172470181e-07
6.20118219e-07
6.228049963e-07
6.252940101e-07
6.276873668e-07
6.299324641e-07
6.319350525e-07
6.337917067e-07
6.354785954e-07
6.358854258e-07
6.343301154e-07
3.036541786e-07
-2.788910768e-08
-2.932095901e-08
-3.069381554e-08
-3.209450674e-08
)


101
(
-1.503954371e-06
-1.575143296e-06
-1.658327745e-06
-1.660460446e-06
-1.616222442e-06
-1.549334502e-06
-1.469533973e-06
-1.383674136e-06
-1.29835264e-06
-1.214629705e-06
-1.133440719e-06
-1.055837801e-06
-9.804318771e-07
-9.071327083e-07
-8.377089749e-07
-7.707218157e-07
-7.048933545e-07
-6.430914094e-07
-5.828397934e-07
-5.240214562e-07
-4.705362692e-07
-4.183651757e-07
-3.673681166e-07
-3.198496394e-07
-2.754116537e-07
-2.334339242e-07
-1.937526564e-07
-1.560081929e-07
-1.200017703e-07
-8.579866063e-08
-5.341650833e-08
-2.345244168e-08
5.662801306e-09
3.472150135e-08
6.211491942e-08
8.775452687e-08
1.118643365e-07
1.347377946e-07
1.57100405e-07
1.793015742e-07
2.006752175e-07
2.206030033e-07
2.396236943e-07
2.580407389e-07
2.755654108e-07
2.924374546e-07
3.087673074e-07
3.246042876e-07
3.39965651e-07
3.548427044e-07
3.692015073e-07
3.829935374e-07
3.963478577e-07
4.092667123e-07
4.217065881e-07
4.336245017e-07
4.454016637e-07
4.56780803e-07
4.676810596e-07
4.782910355e-07
4.885311378e-07
4.984871711e-07
5.080611701e-07
5.173158058e-07
5.262908653e-07
5.350001549e-07
5.434343592e-07
5.51537889e-07
5.594202456e-07
5.670643547e-07
5.74407113e-07
5.814613489e-07
5.88297008e-07
5.949169543e-07
6.012860068e-07
6.073918297e-07
6.13297756e-07
6.190813384e-07
6.246114429e-07
6.298535362e-07
6.348320871e-07
6.396271321e-07
6.442338017e-07
6.486598374e-07
6.52924851e-07
6.570191245e-07
6.60892406e-07
6.645197876e-07
6.67864358e-07
6.71122162e-07
6.741906708e-07
6.769878504e-07
6.796293515e-07
6.819550702e-07
6.816095897e-07
6.772783727e-07
3.090669999e-07
-5.982141996e-08
-6.25414631e-08
-6.514752681e-08
-6.782490128e-08
)


101
(
-1.488680995e-06
-1.560325209e-06
-1.644113573e-06
-1.647835716e-06
-1.605679236e-06
-1.541045004e-06
-1.463582632e-06
-1.380025808e-06
-1.296882848e-06
-1.215253494e-06
-1.13605346e-06
-1.060294837e-06
-9.867078778e-07
-9.151496538e-07
-8.472337463e-07
-7.817006594e-07
-7.173433906e-07
-6.5660829e-07
-5.974706764e-07
-5.396923052e-07
-4.865742609e-07
-4.350189248e-07
-3.847071055e-07
-3.373711728e-07
-2.928865059e-07
-2.508357162e-07
-2.110126698e-07
-1.730906019e-07
-1.368563008e-07
-1.023018539e-07
-6.943350203e-08
-3.86717959e-08
-9.177378063e-09
1.992478597e-08
4.794037925e-08
7.446954528e-08
9.955383626e-08
1.233573037e-07
1.463120219e-07
1.689252276e-07
1.911040997e-07
2.121355227e-07
2.320887936e-07
2.514497666e-07
2.699904418e-07
2.878329563e-07
3.050956985e-07
3.218428807e-07
3.381260235e-07
3.53954417e-07
3.693250202e-07
3.841380105e-07
3.98506723e-07
4.124686336e-07
4.259913557e-07
4.389139824e-07
4.516679657e-07
4.640944243e-07
4.760441554e-07
4.876953297e-07
4.989676993e-07
5.09972179e-07
5.206019924e-07
5.308942453e-07
5.408947262e-07
5.506335447e-07
5.601132078e-07
5.692554988e-07
5.781631922e-07
5.868372885e-07
5.952151458e-07
6.032862134e-07
6.111116945e-07
6.18730375e-07
6.261269413e-07
6.332662826e-07
6.40173486e-07
6.469675834e-07
6.535480364e-07
6.59851049e-07
6.65864971e-07
6.716524237e-07
6.772353034e-07
6.826420834e-07
6.878715267e-07
6.929453676e-07
6.978466131e-07
7.025087656e-07
7.067780239e-07
7.109398227e-07
7.148621984e-07
7.184545198e-07
7.219369126e-07
7.249525258e-07
7.2363629e-07
7.160219917e-07
3.102893773e-07
-9.548592395e-08
-9.936088563e-08
-1.030739299e-07
-1.069175917e-07
)


101
(
-1.473405279e-06
-1.545479906e-06
-1.629840822e-06
-1.635116208e-06
-1.595004097e-06
-1.53258794e-06
-1.457424683e-06
-1.376136349e-06
-1.295143433e-06
-1.215577846e-06
-1.138340338e-06
-1.064407513e-06
-9.926103639e-07
-9.227768927e-07
-8.56379166e-07
-7.922914763e-07
-7.293889885e-07
-6.697926337e-07
-6.117582378e-07
-5.550442673e-07
-5.024576925e-07
-4.514807012e-07
-4.018486472e-07
-3.548531841e-07
-3.104340894e-07
-2.683634024e-07
-2.284598445e-07
-1.904157927e-07
-1.540197149e-07
-1.19210278e-07
-8.596168537e-08
-5.457406684e-08
-2.459799981e-08
4.653187855e-09
3.302222108e-08
6.02191466e-08
8.613224514e-08
1.107964027e-07
1.344358974e-07
1.575269214e-07
1.80305667e-07
2.022025157e-07
2.230468277e-07
2.432730438e-07
2.627198427e-07
2.814719448e-07
2.996208966e-07
3.172289543e-07
3.343656849e-07
3.51061474e-07
3.673397086e-07
3.830881088e-07
3.983966733e-07
4.133104552e-07
4.278140022e-07
4.417003448e-07
4.553855548e-07
4.687611596e-07
4.816787504e-07
4.943036184e-07
5.065473519e-07
5.1852992e-07
5.30146418e-07
5.414177563e-07
5.523861002e-07
5.630908445e-07
5.735456658e-07
5.836698068e-07
5.935569731e-07
6.032063064e-07
6.125635324e-07
6.216145457e-07
6.304021434e-07
6.389762205e-07
6.473419057e-07
6.5546875e-07
6.633495596e-07
6.711186759e-07
6.787038654e-07
6.860435812e-07
6.93108208e-07
6.999118957e-07
7.064812321e-07
7.128722429e-07
7.190711546e-07
7.251242811e-07
7.310267767e-07
7.367525852e-07
7.420401327e-07
7.471674488e-07
7.519705828e-07
7.563586886e-07
7.607144273e-07
7.64464874e-07
7.619557627e-07
7.505602838e-07
3.074812353e-07
-1.346017035e-07
-1.395072206e-07
-1.442116371e-07
-1.4912639e-07
)


101
(
-1.458127235e-06
-1.530607411e-06
-1.615509546e-06
-1.622302056e-06
-1.58419725e-06
-1.523963651e-06
-1.451060774e-06
-1.372006207e-06
-1.293134685e-06
-1.215603181e-06
-1.140301526e-06
-1.068175068e-06
-9.981395929e-07
-9.300121313e-07
-8.651387334e-07
-8.024895066e-07
-7.410253081e-07
-6.826217693e-07
-6.256945474e-07
-5.7005964e-07
-5.181382688e-07
-4.677451555e-07
-4.187802716e-07
-3.722377429e-07
-3.280012947e-07
-2.859799952e-07
-2.460551174e-07
-2.079431935e-07
-1.714446243e-07
-1.364644912e-07
-1.029374399e-07
-7.107360004e-08
-4.060808047e-08
-1.111107605e-08
1.749765147e-08
4.515596479e-08
7.171812916e-08
9.713227671e-08
1.21467764e-07
1.450943865e-07
1.6838983e-07
1.909694394e-07
2.125951337e-07
2.336069666e-07
2.538645201e-07
2.734466038e-07
2.924225949e-07
3.108410471e-07
3.28773723e-07
3.462649044e-07
3.633608998e-07
3.799568907e-07
3.961288547e-07
4.119158302e-07
4.273113629e-07
4.420941823e-07
4.566573714e-07
4.709093899e-07
4.847138678e-07
4.982366458e-07
5.11384426e-07
5.242788265e-07
5.368170623e-07
5.490093999e-07
5.608909047e-07
5.725023101e-07
5.838655354e-07
5.949078049e-07
6.057219264e-07
6.162971151e-07
6.265820729e-07
6.365663386e-07
6.462767048e-07
6.557652338e-07
6.65054955e-07
6.741316956e-07
6.829561567e-07
6.916637242e-07
7.002061637e-07
7.085366788e-07
7.166422269e-07
7.244837055e-07
7.320587605e-07
7.394442164e-07
7.466143375e-07
7.536491134e-07
7.605507693e-07
7.673193944e-07
7.736651238e-07
7.798495573e-07
7.855754256e-07
7.907756279e-07
7.95997288e-07
8.00500071e-07
7.966089836e-07
7.809504161e-07
3.008117067e-07
-1.769161997e-07
-1.827419821e-07
-1.883377746e-07
-1.942452219e-07
)


101
(
-1.442846892e-06
-1.515707761e-06
-1.60111981e-06
-1.609393404e-06
-1.573258932e-06
-1.515172486e-06
-1.444491562e-06
-1.367635872e-06
-1.290856919e-06
-1.215329944e-06
-1.141937262e-06
-1.071596894e-06
-1.003295791e-06
-9.36853571e-07
-8.735065944e-07
-8.122899016e-07
-7.522478343e-07
-6.950764196e-07
-6.392686387e-07
-5.847230088e-07
-5.335739512e-07
-4.837970896e-07
-4.354911257e-07
-3.894792636e-07
-3.45534794e-07
-3.036435236e-07
-2.637596701e-07
-2.25633173e-07
-1.890858858e-07
-1.54007613e-07
-1.202963567e-07
-8.809141336e-08
-5.718458098e-08
-2.738294575e-08
1.433937174e-09
2.941156151e-08
5.645016244e-08
8.247234357e-08
1.074494527e-07
1.316302792e-07
1.554131924e-07
1.785578184e-07
2.008480382e-07
2.225540073e-07
2.435313239e-07
2.638577577e-07
2.835908917e-07
3.027638667e-07
3.214388693e-07
3.396624506e-07
3.574973333e-07
3.748563538e-07
3.918126241e-07
4.083976984e-07
4.246067408e-07
4.402162036e-07
4.555976862e-07
4.70661527e-07
4.852803038e-07
4.996244858e-07
5.136035817e-07
5.273402902e-07
5.407349751e-07
5.537904575e-07
5.665339149e-07
5.789997433e-07
5.912106444e-07
6.031061465e-07
6.147871029e-07
6.262363585e-07
6.374014207e-07
6.482737042e-07
6.588637775e-07
6.692229376e-07
6.793916108e-07
6.893801198e-07
6.991204986e-07
7.087387788e-07
7.182006695e-07
7.274720107e-07
7.365779798e-07
7.454540895e-07
7.540563939e-07
7.624564118e-07
7.706094899e-07
7.78628579e-07
7.865252358e-07
7.943194349e-07
8.017272317e-07
8.090282683e-07
8.157408118e-07
8.217808019e-07
8.278566238e-07
8.331215039e-07
8.276633478e-07
8.072705585e-07
2.904466126e-07
-2.221935599e-07
-2.288573354e-07
-2.352704271e-07
-2.421064983e-07
)


101
(
-1.427564255e-06
-1.500780973e-06
-1.586671662e-06
-1.596390381e-06
-1.562189363e-06
-1.506214781e-06
-1.437717693e-06
-1.363025859e-06
-1.288310473e-06
-1.214758595e-06
-1.143247843e-06
-1.074672532e-06
-1.008079189e-06
-9.432998814e-07
-8.814775853e-07
-8.21687833e-07
-7.630523097e-07
-7.071403783e-07
-6.524680083e-07
-5.990200324e-07
-5.487282721e-07
-4.99615234e-07
-4.519694639e-07
-4.065418162e-07
-3.629843566e-07
-3.213084758e-07
-2.81533004e-07
-2.434469034e-07
-2.069012798e-07
-1.717869493e-07
-1.379745794e-07
-1.055488603e-07
-7.428234106e-08
-4.41635195e-08
-1.513678366e-08
1.308049612e-08
4.045622002e-08
6.693877203e-08
9.245994369e-08
1.171670582e-07
1.414161022e-07
1.650534608e-07
1.879104005e-07
2.102184167e-07
2.318266111e-07
2.528092551e-07
2.732208678e-07
2.930850693e-07
3.124494266e-07
3.313511684e-07
3.498570009e-07
3.678984564e-07
3.855579704e-07
4.028652677e-07
4.198128158e-07
4.361789599e-07
4.52319918e-07
4.681382287e-07
4.835061486e-07
4.986000295e-07
5.133364219e-07
5.278417972e-07
5.420230177e-07
5.558801143e-07
5.694348844e-07
5.827099308e-07
5.957177047e-07
6.084057987e-07
6.208896991e-07
6.331553813e-07
6.451507878e-07
6.568667381e-07
6.682955207e-07
6.79482964e-07
6.904844791e-07
7.013421661e-07
7.119676213e-07
7.224726777e-07
7.328247453e-07
7.429964963e-07
7.530558726e-07
7.629351698e-07
7.725652741e-07
7.819980757e-07
7.911518902e-07
8.001740266e-07
8.090697876e-07
8.178787962e-07
8.263213096e-07
8.347693797e-07
8.425358235e-07
8.494454412e-07
8.563745456e-07
8.623934381e-07
8.551992885e-07
8.296088444e-07
2.76520871e-07
-2.702448953e-07
-2.776737553e-07
-2.848379774e-07
-2.92551451e-07
)


101
(
-1.412279356e-06
-1.485827088e-06
-1.57216517e-06
-1.583293132e-06
-1.550988781e-06
-1.497090885e-06
-1.430739822e-06
-1.358176721e-06
-1.285495716e-06
-1.213889617e-06
-1.144233618e-06
-1.077401661e-06
-1.012490024e-06
-9.493501188e-07
-8.890472128e-07
-8.306785613e-07
-7.734346608e-07
-7.187998731e-07
-6.65279564e-07
-6.129370354e-07
-5.635691395e-07
-5.151745383e-07
-4.682011936e-07
-4.233960479e-07
-3.803044635e-07
-3.389281853e-07
-2.993326652e-07
-2.61344921e-07
-2.248503271e-07
-1.89754031e-07
-1.559122231e-07
-1.233709824e-07
-9.184059213e-08
-6.143320891e-08
-3.219656014e-08
-3.777027151e-09
2.384092006e-08
5.065510369e-08
7.660316123e-08
1.017672528e-07
1.264438165e-07
1.505206578e-07
1.738686335e-07
1.966972406e-07
2.188543959e-07
2.404079957e-07
2.614144863e-07
2.818966802e-07
3.018900967e-07
3.214193742e-07
3.405423428e-07
3.591974733e-07
3.774798803e-07
3.954298703e-07
4.130406061e-07
4.300927109e-07
4.469304058e-07
4.634481449e-07
4.795105708e-07
4.952923351e-07
5.107165898e-07
5.259165377e-07
5.408098506e-07
5.553993859e-07
5.697087303e-07
5.837494256e-07
5.975139221e-07
6.10945438e-07
6.241702993e-07
6.371874332e-07
6.499576579e-07
6.624728578e-07
6.747015987e-07
6.866783774e-07
6.984692039e-07
7.101498927e-07
7.216220109e-07
7.329869713e-07
7.442042097e-07
7.55241797e-07
7.662132039e-07
7.770577158e-07
7.876978173e-07
7.981680451e-07
8.083327308e-07
8.183786921e-07
8.282845396e-07
8.381068551e-07
8.475608965e-07
8.571553915e-07
8.660255252e-07
8.738381288e-07
8.816324157e-07
8.883871228e-07
8.792599367e-07
8.480734608e-07
2.592031007e-07
-3.209191178e-07
-3.29053401e-07
-3.369187242e-07
-3.454746958e-07
)


101
(
-1.396992194e-06
-1.47084612e-06
-1.557600378e-06
-1.570101781e-06
-1.539657402e-06
-1.487801132e-06
-1.423558592e-06
-1.353089034e-06
-1.282413042e-06
-1.21272351e-06
-1.144894986e-06
-1.079784088e-06
-1.016528549e-06
-9.550036554e-07
-8.962116481e-07
-8.392575639e-07
-7.833909799e-07
-7.300433537e-07
-6.776902133e-07
-6.264606379e-07
-5.780687312e-07
-5.304482929e-07
-4.84169263e-07
-4.400170028e-07
-3.974551192e-07
-3.564567914e-07
-3.171146382e-07
-2.792867633e-07
-2.428935707e-07
-2.078640601e-07
-1.740532334e-07
-1.414860685e-07
-1.097906755e-07
-7.915343404e-08
-4.97251244e-08
-2.11231001e-08
6.680697694e-09
3.37285523e-08
5.999040196e-08
8.551884671e-08
1.105591393e-07
1.350210271e-07
1.587971999e-07
1.820752624e-07
2.047084211e-07
2.267558114e-07
2.482757636e-07
2.692980896e-07
2.898522068e-07
3.099514671e-07
3.296412508e-07
3.488573242e-07
3.676956197e-07
3.862090573e-07
4.044038489e-07
4.220675497e-07
4.395341703e-07
4.566942095e-07
4.734009935e-07
4.898183246e-07
5.058715006e-07
5.216990029e-07
5.372300418e-07
5.524753651e-07
5.674707988e-07
5.822262827e-07
5.967109489e-07
6.108503837e-07
6.247681784e-07
6.384734167e-07
6.519531783e-07
6.652135707e-07
6.78201575e-07
6.909334684e-07
7.034762039e-07
7.159345047e-07
7.282066573e-07
7.403982187e-07
7.524594035e-07
7.643334694e-07
7.761743847e-07
7.879439199e-07
7.995706918e-07
8.110717803e-07
8.222434095e-07
8.333222989e-07
8.442616719e-07
8.550985808e-07
8.655475305e-07
8.762740811e-07
8.862717563e-07
8.950256618e-07
9.036993383e-07
9.111667324e-07
8.999180467e-07
8.627495294e-07
2.386094924e-07
-3.740804143e-07
-3.828735981e-07
-3.913990671e-07
-4.007707727e-07
)


101
(
-1.381702814e-06
-1.45583812e-06
-1.542977369e-06
-1.556816486e-06
-1.528195472e-06
-1.478345877e-06
-1.416174662e-06
-1.347763416e-06
-1.279062886e-06
-1.211260797e-06
-1.145232388e-06
-1.081819737e-06
-1.020195051e-06
-9.602601423e-07
-9.029676458e-07
-8.474205489e-07
-7.929174718e-07
-7.408610456e-07
-6.896875166e-07
-6.395777609e-07
-5.92202081e-07
-5.454092101e-07
-4.998542265e-07
-4.563821271e-07
-4.144012156e-07
-3.738505032e-07
-3.348338811e-07
-2.97230367e-07
-2.609916844e-07
-2.260753872e-07
-1.923471382e-07
-1.598279411e-07
-1.280598749e-07
-9.726941236e-08
-6.769134161e-08
-3.892961651e-08
-1.097301311e-08
1.624521944e-08
4.272857703e-08
6.852256446e-08
9.384206693e-08
1.186217286e-07
1.427649808e-07
1.664295212e-07
1.89475351e-07
2.119488208e-07
2.339055592e-07
2.553883286e-07
2.764303321e-07
2.970370163e-07
3.172393837e-07
3.369665901e-07
3.563081173e-07
3.753196256e-07
3.940208618e-07
4.122180106e-07
4.302401259e-07
4.479787958e-07
4.65277756e-07
4.822835155e-07
4.989163254e-07
5.153147215e-07
5.314174113e-07
5.472426049e-07
5.628451486e-07
5.782489609e-07
5.93410099e-07
6.082282047e-07
6.228056682e-07
6.371482479e-07
6.512719487e-07
6.652141045e-07
6.789117025e-07
6.923615092e-07
7.056222894e-07
7.188202306e-07
7.318469441e-07
7.44818157e-07
7.576940971e-07
7.703869321e-07
7.830605535e-07
7.957059212e-07
8.082863597e-07
8.208126731e-07
8.329827745e-07
8.450799951e-07
8.570752803e-07
8.689417953e-07
8.803676862e-07
8.921945294e-07
9.03335882e-07
9.130711853e-07
9.226323489e-07
9.307890563e-07
9.172362261e-07
8.737074961e-07
2.148410879e-07
-4.296133769e-07
-4.390313386e-07
-4.481952022e-07
-4.583746615e-07
)


101
(
-1.366411222e-06
-1.440803108e-06
-1.528296193e-06
-1.543437378e-06
-1.516603213e-06
-1.468725455e-06
-1.408588673e-06
-1.342200504e-06
-1.275445709e-06
-1.209502019e-06
-1.14524631e-06
-1.083508637e-06
-1.02348987e-06
-9.651195018e-07
-9.093125378e-07
-8.551635434e-07
-8.020105411e-07
-7.512446081e-07
-7.012599201e-07
-6.522759737e-07
-6.059470411e-07
-5.600303914e-07
-5.152342694e-07
-4.724696482e-07
-4.311120587e-07
-3.910690505e-07
-3.524458167e-07
-3.151322525e-07
-2.791044869e-07
-2.443483303e-07
-2.107481311e-07
-1.783374414e-07
-1.465774438e-07
-1.157160601e-07
-8.605006424e-08
-5.716514581e-08
-2.908227656e-08
-1.732524482e-09
2.490682584e-08
5.088024983e-08
7.638827837e-08
1.01402492e-07
1.258427456e-07
1.498311856e-07
1.732300539e-07
1.960720532e-07
2.184023672e-07
2.402698128e-07
2.617209771e-07
2.827655465e-07
3.034224356e-07
3.236115185e-07
3.43407986e-07
3.628644937e-07
3.820072225e-07
4.006625188e-07
4.191614785e-07
4.374065119e-07
4.552394345e-07
4.727851479e-07
4.899536588e-07
5.068765835e-07
5.234964387e-07
5.398349614e-07
5.559658922e-07
5.719366121e-07
5.87710368e-07
6.031704087e-07
6.183838789e-07
6.333321918e-07
6.480467217e-07
6.626021902e-07
6.769456371e-07
6.910664134e-07
7.050113008e-07
7.189181242e-07
7.326620444e-07
7.463629117e-07
7.600070915e-07
7.734976141e-07
7.869817284e-07
8.004509274e-07
8.139345752e-07
8.274710716e-07
8.406440017e-07
8.537371628e-07
8.667818187e-07
8.797108783e-07
8.921002641e-07
9.049918706e-07
9.172759108e-07
9.280107226e-07
9.384721009e-07
9.47294552e-07
9.312627107e-07
8.810114403e-07
1.879875705e-07
-4.874272096e-07
-4.974440728e-07
-5.072187926e-07
-5.181915794e-07
)


101
(
-1.35111744e-06
-1.425741117e-06
-1.513556912e-06
-1.529964596e-06
-1.504880854e-06
-1.458940206e-06
-1.40080127e-06
-1.336400961e-06
-1.27156201e-06
-1.20744774e-06
-1.144937278e-06
-1.084850915e-06
-1.026413374e-06
-9.695818595e-07
-9.152442036e-07
-8.624829493e-07
-8.106666776e-07
-7.611870175e-07
-7.123969128e-07
-6.645432689e-07
-6.192839769e-07
-5.742860844e-07
-5.302859671e-07
-4.882575399e-07
-4.475596734e-07
-4.080756641e-07
-3.699074743e-07
-3.329481832e-07
-2.971904468e-07
-2.626439917e-07
-2.292146956e-07
-1.969615914e-07
-1.652769853e-07
-1.344239323e-07
-1.047434064e-07
-7.578931378e-08
-4.76148122e-08
-2.016071679e-08
6.596023782e-09
3.268464099e-08
5.829550469e-08
8.345314087e-08
1.081089614e-07
1.323536293e-07
1.560465957e-07
1.792019069e-07
2.018497032e-07
2.240395655e-07
2.458271209e-07
2.672336689e-07
2.882773816e-07
3.088733865e-07
3.290794692e-07
3.489348858e-07
3.684654498e-07
3.875144738e-07
4.064147446e-07
4.250883403e-07
4.433862663e-07
4.614175549e-07
4.790775056e-07
4.964833886e-07
5.135768958e-07
5.30375251e-07
5.469655396e-07
5.63420103e-07
5.797242578e-07
5.957671816e-07
6.115866194e-07
6.271208083e-07
6.423924289e-07
6.575035498e-07
6.724222626e-07
6.87151619e-07
7.017371651e-07
7.163209851e-07
7.307513812e-07
7.451426761e-07
7.595033822e-07
7.73750896e-07
7.880284352e-07
8.022854336e-07
8.166050114e-07
8.311086166e-07
8.452972175e-07
8.593805781e-07
8.734372627e-07
8.874446467e-07
9.008101258e-07
9.147268426e-07
9.281344369e-07
9.398840844e-07
9.512496007e-07
9.607121069e-07
9.42026065e-07
8.847112456e-07
1.58127656e-07
-5.474494434e-07
-5.580449891e-07
-5.684180749e-07
-5.801895425e-07
)


101
(
-1.335821487e-06
-1.410652179e-06
-1.498759592e-06
-1.516398282e-06
-1.493028625e-06
-1.448990472e-06
-1.392813092e-06
-1.330365477e-06
-1.267412321e-06
-1.205098549e-06
-1.144305853e-06
-1.085846794e-06
-1.028965975e-06
-9.736475016e-07
-9.207610303e-07
-8.693755808e-07
-8.188825652e-07
-7.706821661e-07
-7.230891759e-07
-6.763685938e-07
-6.321950017e-07
-5.881518197e-07
-5.449851814e-07
-5.037232752e-07
-4.637180327e-07
-4.248369708e-07
-3.871785552e-07
-3.506343001e-07
-3.152065881e-07
-2.809224748e-07
-2.477078163e-07
-2.156551878e-07
-1.840997156e-07
-1.533236473e-07
-1.2370453e-07
-9.474923562e-08
-6.65322272e-08
-3.900334856e-08
-1.215408801e-08
1.400941851e-08
3.965823244e-08
6.487332262e-08
8.965230753e-08
1.140722259e-07
1.379951604e-07
1.614103053e-07
1.843268056e-07
2.067842412e-07
2.288422303e-07
2.505396545e-07
2.718998954e-07
2.928389153e-07
3.134019608e-07
3.336135629e-07
3.534870318e-07
3.72875263e-07
3.921116732e-07
4.111377381e-07
4.298243047e-07
4.48276981e-07
4.66376979e-07
4.842226085e-07
5.017513989e-07
5.189701293e-07
5.359666056e-07
5.528302877e-07
5.695763063e-07
5.861215565e-07
6.024954213e-07
6.185913003e-07
6.344011678e-07
6.500306622e-07
6.654615536e-07
6.807251244e-07
6.95887496e-07
7.111072007e-07
7.261977144e-07
7.412494326e-07
7.562794509e-07
7.712304618e-07
7.862734209e-07
8.01297983e-07
8.163942777e-07
8.31792069e-07
8.469846795e-07
8.620766902e-07
8.771121285e-07
8.921682918e-07
9.065371191e-07
9.214638143e-07
9.359445015e-07
9.487069346e-07
9.609761929e-07
9.710590189e-07
9.495562021e-07
8.848379721e-07
1.253136647e-07
-6.096150414e-07
-6.207788584e-07
-6.3173855e-07
-6.443117831e-07
)


101
(
-1.320523373e-06
-1.395536315e-06
-1.483904285e-06
-1.502738569e-06
-1.481046748e-06
-1.438876584e-06
-1.384624773e-06
-1.32409476e-06
-1.262997208e-06
-1.202455057e-06
-1.14335264e-06
-1.086496572e-06
-1.031148127e-06
-9.773168955e-07
-9.258618743e-07
-8.758386648e-07
-8.26655112e-07
-7.797247767e-07
-7.333283638e-07
-6.877417947e-07
-6.446644909e-07
-6.016050192e-07
-5.593074222e-07
-5.188436378e-07
-4.795624176e-07
-4.41322609e-07
-4.042214239e-07
-3.681475323e-07
-3.331088302e-07
-2.991426301e-07
-2.661889485e-07
-2.343763776e-07
-2.029943675e-07
-1.723522691e-07
-1.428640723e-07
-1.139812378e-07
-8.578579614e-08
-5.822596209e-08
-3.130680344e-08
-5.088507395e-09
2.055602232e-08
4.575789473e-08
7.056907382e-08
9.507262058e-08
1.191517483e-07
1.427679047e-07
1.659023947e-07
1.885825071e-07
2.10857408e-07
2.327765642e-07
2.543820345e-07
2.755993072e-07
2.964603594e-07
3.169796466e-07
3.371552032e-07
3.568372773e-07
3.763523598e-07
3.956619472e-07
4.146618499e-07
4.334633695e-07
4.519434843e-07
4.701796244e-07
4.88102276e-07
5.057055533e-07
5.230695034e-07
5.402870201e-07
5.573949383e-07
5.743505793e-07
5.912014874e-07
6.07815274e-07
6.241444317e-07
6.402728431e-07
6.56173961e-07
6.719011073e-07
6.875592179e-07
7.033498066e-07
7.190642387e-07
7.347558661e-07
7.504219449e-07
7.660174656e-07
7.81774666e-07
7.975496483e-07
8.133895772e-07
8.295996691e-07
8.4574201e-07
8.618619429e-07
8.778690789e-07
8.939206616e-07
9.092967211e-07
9.252321752e-07
9.40736975e-07
9.544964824e-07
9.67656081e-07
9.783356416e-07
9.53864537e-07
8.814100044e-07
8.958296905e-08
-6.738768957e-07
-6.856013436e-07
-6.971425509e-07
-7.105324902e-07
)


101
(
-1.305223131e-06
-1.380393571e-06
-1.468991068e-06
-1.488985611e-06
-1.468935463e-06
-1.428598888e-06
-1.376236951e-06
-1.317589546e-06
-1.258317279e-06
-1.199517911e-06
-1.142078273e-06
-1.08680063e-06
-1.032960336e-06
-9.805906382e-07
-9.305459927e-07
-8.818698708e-07
-8.339814136e-07
-7.88310237e-07
-7.431071311e-07
-6.986535664e-07
-6.566784924e-07
-6.146249907e-07
-5.732286158e-07
-5.335948719e-07
-4.950686589e-07
-4.575045397e-07
-4.210016633e-07
-3.854470175e-07
-3.508528376e-07
-3.172613527e-07
-2.846192527e-07
-2.530876034e-07
-2.219163259e-07
-1.914532862e-07
-1.621552167e-07
-1.334160284e-07
-1.053150435e-07
-7.778344256e-08
-5.082841761e-08
-2.457144144e-08
1.049597781e-09
2.61938146e-08
5.095925327e-08
7.544906993e-08
9.959417511e-08
1.233458423e-07
1.466481458e-07
1.695040197e-07
1.919501891e-07
2.140370668e-07
2.358177726e-07
2.5724206e-07
2.783399199e-07
2.991125595e-07
3.195472835e-07
3.394854585e-07
3.592310675e-07
3.787627698e-07
3.980025184e-07
4.17075482e-07
4.358687736e-07
4.544409267e-07
4.7271026e-07
4.906577445e-07
5.083544315e-07
5.258863047e-07
5.432958932e-07
5.605772133e-07
5.778120943e-07
5.948716696e-07
6.116837035e-07
6.282951634e-07
6.446457761e-07
6.60788542e-07
6.768610681e-07
6.931313674e-07
7.094061632e-07
7.257142144e-07
7.419996756e-07
7.581915739e-07
7.745938946e-07
7.910793965e-07
8.076481751e-07
8.246110061e-07
8.416143202e-07
8.587499354e-07
8.757461237e-07
8.927406893e-07
9.090946011e-07
9.260427073e-07
9.425279421e-07
9.572635845e-07
9.712956847e-07
9.825328622e-07
9.549519904e-07
8.7444062e-07
5.096161035e-08
-7.401997617e-07
-7.524806936e-07
-7.646325739e-07
-7.788965094e-07
)


101
(
-1.289920806e-06
-1.365224003e-06
-1.454020032e-06
-1.475139573e-06
-1.45669502e-06
-1.418157739e-06
-1.367650267e-06
-1.310850594e-06
-1.253373184e-06
-1.196287791e-06
-1.140483428e-06
-1.086759416e-06
-1.034403148e-06
-9.834694424e-07
-9.348130198e-07
-8.874673032e-07
-8.408588719e-07
-7.964343856e-07
-7.524189541e-07
-7.09095688e-07
-6.682248653e-07
-6.271932611e-07
-5.867255742e-07
-5.479526665e-07
-5.102126288e-07
-4.733565945e-07
-4.374880756e-07
-4.024948271e-07
-3.683950075e-07
-3.352336884e-07
-3.029569525e-07
-2.717512632e-07
-2.408270763e-07
-2.105788893e-07
-1.815172596e-07
-1.529839444e-07
-1.250518733e-07
-9.762060068e-08
-7.068046028e-08
-4.44069167e-08
-1.881810215e-08
6.247119885e-09
3.091354735e-08
5.530331954e-08
7.941653648e-08
1.032198988e-07
1.266298229e-07
1.496169715e-07
1.721926547e-07
1.943996083e-07
2.162974929e-07
2.378596249e-07
2.591250557e-07
2.800927529e-07
3.007372471e-07
3.208940926e-07
3.408347696e-07
3.605367044e-07
3.799478631e-07
3.992149212e-07
4.18246567e-07
4.370912589e-07
4.556548008e-07
4.739007064e-07
4.918919099e-07
5.097047048e-07
5.273721073e-07
5.449104886e-07
5.624397708e-07
5.798549686e-07
5.970845344e-07
6.141475519e-07
6.309346703e-07
6.474721889e-07
6.639012582e-07
6.805533275e-07
6.972907253e-07
7.141605725e-07
7.310547878e-07
7.478238322e-07
7.648031528e-07
7.819264207e-07
7.991988591e-07
8.168812761e-07
8.346532909e-07
8.527500075e-07
8.707555229e-07
8.886612346e-07
9.059338327e-07
9.238968931e-07
9.413213807e-07
9.570009013e-07
9.718962833e-07
9.836362861e-07
9.527862014e-07
8.639248548e-07
9.481698081e-09
-8.085517349e-07
-8.213916818e-07
-8.341313724e-07
-8.492678203e-07
)


101
(
-1.274616373e-06
-1.350027604e-06
-1.438991202e-06
-1.46120056e-06
-1.444325617e-06
-1.40755344e-06
-1.358865321e-06
-1.303878649e-06
-1.248165581e-06
-1.192765396e-06
-1.138568813e-06
-1.086373446e-06
-1.03547716e-06
-9.859541206e-07
-9.386629933e-07
-8.926295511e-07
-8.472851883e-07
-8.040936932e-07
-7.612581141e-07
-7.190607172e-07
-6.792932693e-07
-6.392936575e-07
-5.997765911e-07
-5.618927782e-07
-5.24969573e-07
-4.888533788e-07
-4.536521813e-07
-4.192566949e-07
-3.85694295e-07
-3.530143743e-07
-3.211579257e-07
-2.903280141e-07
-2.596904748e-07
-2.296888363e-07
-2.008987567e-07
-1.726212497e-07
-1.449243691e-07
-1.176687148e-07
-9.081193359e-08
-6.456279192e-08
-3.901859334e-08
-1.403609625e-08
1.05081726e-08
3.473361459e-08
5.871791708e-08
8.247523547e-08
1.05919646e-07
1.289862573e-07
1.516507782e-07
1.739391031e-07
1.959029655e-07
2.175384496e-07
2.389027367e-07
2.600001424e-07
2.808010965e-07
3.011342117e-07
3.212342491e-07
3.410694997e-07
3.6059755e-07
3.799839987e-07
3.991721789e-07
4.182171739e-07
4.37015195e-07