/*--------------------------------*- C++ -*----------------------------------*\
| =========                 |                                                 |
| \\      /  F ield         | OpenFOAM: The Open Source CFD Toolbox           |
|  \\    /   O peration     | Version:  2.3.1                                 |
|   \\  /    A nd           | Web:      www.OpenFOAM.org                      |
|    \\/     M anipulation  |                                                 |
\*---------------------------------------------------------------------------*/
FoamFile
{
    version     2.0;
    format      ascii;
    class       dictionary;
    location    "constant";
    object      DPSI14;
}
// * * * * * * * * * * * * * * * * * * * * * * * * * * * * * * * * * * * * * //

DPSI14_table
101
(

101
(
-3.049150119e-17
-8.672018039e-16
-6.456561573e-15
-2.1558807e-14
-4.589193161e-14
-7.485839461e-14
-1.055559388e-13
-1.346728495e-13
-1.588169893e-13
-1.764481307e-13
-1.860569928e-13
-1.868388852e-13
-1.777466943e-13
-1.584712399e-13
-1.298346413e-13
-9.283978405e-14
-4.870839522e-14
-3.535009069e-15
4.180898128e-14
8.318805565e-14
1.144855845e-13
1.380790316e-13
1.520114555e-13
1.558567738e-13
1.520701104e-13
1.426292637e-13
1.295584754e-13
1.144977049e-13
9.893379742e-14
8.401672471e-14
7.041868521e-14
5.89501754e-14
4.787001251e-14
3.815048242e-14
3.105113824e-14
2.249388679e-14
1.354896825e-14
1.341792782e-14
1.512100661e-14
1.176479626e-14
9.35486936e-15
7.444420648e-15
5.80120053e-15
4.58265167e-15
3.596169258e-15
2.792088854e-15
2.163638877e-15
1.66048568e-15
1.27280783e-15
9.677479496e-16
7.363357784e-16
5.539872422e-16
4.144531385e-16
3.084494495e-16
2.285026321e-16
1.649076619e-16
1.183858869e-16
8.55030052e-17
5.988826183e-17
4.183480631e-17
2.869300748e-17
1.97905332e-17
1.325671223e-17
8.616851929e-18
5.547138922e-18
3.560041179e-18
2.200009613e-18
1.31508943e-18
7.740692554e-19
4.475292205e-19
2.476958743e-19
1.337450352e-19
6.91486018e-20
3.338630662e-20
1.548354942e-20
9.624634612e-21
5.564956531e-21
2.320033769e-21
9.571186019e-22
3.833587428e-22
1.432761969e-22
4.90222211e-23
1.709216249e-23
5.437301252e-24
2.927332002e-24
1.400127125e-24
4.686862389e-25
1.542256013e-25
4.518793468e-26
1.433686578e-26
8.925413664e-27
2.651673874e-27
6.18165349e-28
1.571086857e-28
4.834234878e-29
1.347439511e-29
1.519480322e-30
-2.329208935e-36
2.637044541e-46
3.536544619e-46
-5.854489718e-46
)


101
(
-1.737555321e-17
-8.039498003e-16
-6.169880597e-15
-2.077463767e-14
-4.441223976e-14
-7.26884938e-14
-1.027419805e-13
-1.314394178e-13
-1.555086497e-13
-1.734056624e-13
-1.836767985e-13
-1.855278444e-13
-1.779667242e-13
-1.60625776e-13
-1.341202726e-13
-9.929754534e-14
-5.728406965e-14
-1.310194676e-14
3.154717067e-14
7.33339871e-14
1.067437814e-13
1.322855683e-13
1.488001496e-13
1.556782365e-13
1.544990891e-13
1.471581454e-13
1.355762764e-13
1.21416598e-13
1.061949872e-13
9.115191335e-14
7.711305747e-14
6.491626428e-14
5.364591909e-14
4.351394631e-14
3.54235849e-14
2.717979291e-14
1.860134385e-14
1.498627443e-14
1.49415455e-14
1.322973976e-14
1.084217264e-14
8.691640286e-15
6.848567115e-15
5.392448374e-15
4.243210314e-15
3.32216454e-15
2.594299055e-15
2.015138364e-15
1.55848816e-15
1.198481759e-15
9.181435666e-16
6.993710549e-16
5.304281066e-16
4.005136589e-16
3.00029806e-16
2.21617375e-16
1.618739977e-16
1.178060066e-16
8.487886557e-17
6.055463517e-17
4.274210267e-17
2.996738751e-17
2.077721702e-17
1.415476619e-17
9.461328301e-18
6.23018815e-18
4.04497982e-18
2.572153469e-18
1.605178444e-18
9.791821533e-19
5.792211499e-19
3.322033911e-19
1.864652112e-19
1.019987238e-19
5.263612639e-20
2.668033063e-20
1.339489541e-20
6.246312453e-21
2.767883648e-21
1.182850509e-21
4.788956084e-22
1.78578891e-22
5.985236485e-23
1.976031545e-23
5.991969532e-24
1.918439023e-24
9.328412039e-25
5.678029088e-25
2.768596797e-25
9.007689247e-26
3.459060992e-26
1.432301308e-26
5.480747063e-27
1.889687933e-27
6.026564186e-28
2.234384446e-28
5.549482257e-29
-1.247513415e-29
-6.352315086e-29
-2.980833408e-28
-5.038094793e-28
)


101
(
-5.10042532e-18
-7.433325625e-16
-5.891896957e-15
-2.001116892e-14
-4.297086763e-14
-7.057940488e-14
-1.00024134e-13
-1.283426312e-13
-1.523884424e-13
-1.706188321e-13
-1.81629927e-13
-1.846344078e-13
-1.786895199e-13
-1.633750667e-13
-1.391141544e-13
-1.065857258e-13
-6.680334749e-14
-2.388020217e-14
2.000396529e-14
6.200803782e-14
9.727479775e-14
1.249431875e-13
1.441205861e-13
1.541711946e-13
1.559622549e-13
1.511336782e-13
1.414792788e-13
1.286211278e-13
1.140958837e-13
9.921148209e-14
8.491341393e-14
7.212853975e-14
6.044776699e-14
4.995677717e-14
4.118094558e-14
3.260219667e-14
2.407812771e-14
1.861898235e-14
1.651425214e-14
1.488699336e-14
1.279355411e-14
1.055961143e-14
8.486432874e-15
6.765721636e-15
5.378066855e-15
4.263105778e-15
3.379243129e-15
2.674466645e-15
2.110628438e-15
1.659368665e-15
1.299438913e-15
1.012659958e-15
7.864823619e-16
6.100869794e-16
4.717432943e-16
3.621147595e-16
2.755149961e-16
2.080865254e-16
1.563585155e-16
1.166927759e-16
8.644392795e-17
6.380119811e-17
4.671963166e-17
3.382863544e-17
2.42569151e-17
1.72213124e-17
1.208814479e-17
8.34467275e-18
5.692474278e-18
3.845234134e-18
2.541146466e-18
1.632214417e-18
1.023870876e-18
6.376613247e-19
3.855540985e-19
2.249701142e-19
1.269246536e-19
6.874209908e-20
3.599650062e-20
1.841369232e-20
9.165592896e-21
4.351376651e-21
1.923228236e-21
8.248905968e-22
3.280301213e-22
1.164639742e-22
3.752793313e-23
1.358561503e-23
6.803203977e-24
2.697704177e-24
9.291559744e-25
3.629561598e-25
1.566328822e-25
6.899339992e-26
2.732048306e-26
1.268443842e-26
2.723601897e-27
-6.402125709e-27
-3.807953884e-26
5.89198867e-24
1.234032437e-23
)


101
(
6.356213651e-18
-6.852979867e-16
-5.622453647e-15
-1.926797725e-14
-4.15668152e-14
-6.852899129e-14
-9.73982186e-14
-1.253762204e-13
-1.494470541e-13
-1.68075468e-13
-1.79902727e-13
-1.841455303e-13
-1.799060492e-13
-1.667176955e-13
-1.448268728e-13
-1.14738114e-13
-7.733300879e-14
-3.594475409e-14
7.02258515e-15
4.903675323e-14
8.587901122e-14
1.15726676e-13
1.376504462e-13
1.510124365e-13
1.561004647e-13
1.542057816e-13
1.469573909e-13
1.358707005e-13
1.224691614e-13
1.081137659e-13
9.382427071e-14
8.064333608e-14
6.847514386e-14
5.756605755e-14
4.848555729e-14
3.933586169e-14
3.036169069e-14
2.386879708e-14
1.995444388e-14
1.752478988e-14
1.540306992e-14
1.313381265e-14
1.087213879e-14
8.874124968e-15
7.183567507e-15
5.793240875e-15
4.678009675e-15
3.783766549e-15
3.061941967e-15
2.474202074e-15
1.995068184e-15
1.600927337e-15
1.280907326e-15
1.024927807e-15
8.192046317e-16
6.533529274e-16
5.191192105e-16
4.093615968e-16
3.216966012e-16
2.515006367e-16
1.951186537e-16
1.510765862e-16
1.16414673e-16
8.908240577e-17
6.789957526e-17
5.134927793e-17
3.843852564e-17
2.836931521e-17
2.064661311e-17
1.49983658e-17
1.077926187e-17
7.567958517e-18
5.199663002e-18
3.539225254e-18
2.371073184e-18
1.552028872e-18
9.882929139e-19
6.083490773e-19
3.630826925e-19
2.108287465e-19
1.207302607e-19
6.743504601e-20
3.573811258e-20
1.834319148e-20
9.066732505e-21
4.208601826e-21
1.790708235e-21
7.087082728e-22
3.061096514e-22
1.336078129e-22
5.064323423e-23
1.729797979e-23
6.643311955e-24
2.696574753e-24
1.11410567e-24
5.310063461e-25
-3.339016447e-27
-9.162617904e-25
-7.389184508e-24
-3.659422656e-23
-6.160127756e-23
)


101
(
1.701663177e-17
-6.297940173e-16
-5.361390613e-15
-1.854460446e-14
-4.019893623e-14
-6.653475404e-14
-9.485922241e-14
-1.22532199e-13
-1.466722153e-13
-1.657587512e-13
-1.784745034e-13
-1.840387383e-13
-1.815946127e-13
-1.706356661e-13
-1.512497652e-13
-1.23763557e-13
-8.891135275e-14
-4.935382544e-14
-7.528044029e-15
3.42563361e-14
7.235907409e-14
1.043121877e-13
1.290191322e-13
1.458066311e-13
1.544778933e-13
1.559403779e-13
1.515968145e-13
1.428002369e-13
1.31021447e-13
1.176619772e-13
1.037597401e-13
9.046840527e-14
7.786836017e-14
6.644686247e-14
5.678278113e-14
4.752097106e-14
3.840526564e-14
3.074668532e-14
2.529887308e-14
2.171901265e-14
1.909353484e-14
1.663701039e-14
1.417942085e-14
1.190895944e-14
9.88287572e-15
8.146240416e-15
6.715334069e-15
5.550735798e-15
4.60060242e-15
3.816880546e-15
3.168621104e-15
2.620187236e-15
2.158225583e-15
1.777242763e-15
1.466923797e-15
1.208737027e-15
9.929827138e-16
8.130690783e-16
6.647621192e-16
5.417781263e-16
4.371036403e-16
3.519341652e-16
2.824522445e-16
2.25314448e-16
1.800308932e-16
1.433859647e-16
1.128576104e-16
8.780591712e-17
6.745955995e-17
5.181060017e-17
3.967685263e-17
2.977887421e-17
2.195703528e-17
1.59904834e-17
1.154071718e-17
8.225127846e-18
5.744811113e-18
3.899306531e-18
2.586265696e-18
1.667906958e-18
1.059201937e-18
6.636467518e-19
4.008574642e-19
2.343525117e-19
1.34077207e-19
7.382177783e-20
3.820955693e-20
1.835305054e-20
8.702334375e-21
4.233866178e-21
1.953008971e-21
7.924752522e-22
3.173458443e-22
1.249115425e-22
4.998114064e-23
2.292646408e-23
-9.618551406e-24
-8.271705954e-23
-6.392153647e-22
-2.012415623e-21
-2.936798119e-21
)


101
(
2.690309432e-17
-5.767689074e-16
-5.108549614e-15
-1.784059361e-14
-3.886607797e-14
-6.459418259e-14
-9.24021494e-14
-1.198025832e-13
-1.440517295e-13
-1.636519966e-13
-1.773252236e-13
-1.842920182e-13
-1.837344807e-13
-1.751126846e-13
-1.583738335e-13
-1.336704703e-13
-1.015755573e-13
-6.416219038e-14
-2.376728559e-14
1.749719619e-14
5.650736861e-14
9.038204041e-14
1.178320633e-13
1.381168733e-13
1.506047122e-13
1.558149788e-13
1.548832474e-13
1.489374185e-13
1.393423598e-13
1.274867427e-13
1.144802515e-13
1.015240418e-13
8.868372647e-14
7.681152259e-14
6.66733969e-14
5.71636967e-14
4.790174612e-14
3.94583445e-14
3.265439924e-14
2.775912256e-14
2.429108824e-14
2.139590343e-14
1.864842407e-14
1.609324087e-14
1.372369541e-14
1.159352901e-14
9.758559942e-15
8.221581277e-15
6.958323667e-15
5.912472432e-15
5.039574861e-15
4.285390355e-15
3.626129184e-15
3.06057168e-15
2.592040942e-15
2.198383089e-15
1.860121894e-15
1.567434066e-15
1.321115768e-15
1.115601329e-15
9.315132034e-16
7.748392916e-16
6.440255896e-16
5.309278898e-16
4.386893737e-16
3.633175257e-16
2.987805747e-16
2.43762549e-16
1.957119343e-16
1.563768356e-16
1.256882873e-16
9.979626281e-17
7.80930448e-17
6.023959101e-17
4.606142003e-17
3.482736318e-17
2.60317037e-17
1.921959572e-17
1.388333919e-17
9.734692837e-18
6.68753915e-18
4.556021608e-18
3.061933082e-18
1.986161957e-18
1.265768041e-18
7.892721919e-19
4.729492353e-19
2.655103369e-19
1.437690201e-19
7.775571319e-20
4.167973399e-20
2.027546173e-20
9.42353035e-21
4.326695608e-21
1.912015627e-21
9.278357152e-22
-5.151630247e-22
-3.930077047e-21
-3.255348886e-20
-9.533660611e-20
-1.340641186e-19
)


101
(
3.60378161e-17
-5.261713769e-16
-4.863776047e-15
-1.715550124e-14
-3.756712251e-14
-6.270484208e-14
-9.002213068e-14
-1.171795209e-13
-1.415734688e-13
-1.617382863e-13
-1.764341432e-13
-1.848817326e-13
-1.863019263e-13
-1.801277428e-13
-1.661826463e-13
-1.444563053e-13
-1.153487297e-13
-8.041158327e-14
-4.179376841e-14
-1.398004324e-15
3.812001799e-14
7.362657267e-14
1.036769376e-13
1.274640627e-13
1.43936859e-13
1.532244685e-13
1.561892551e-13
1.536827884e-13
1.468925071e-13
1.371437853e-13
1.255808664e-13
1.134823415e-13
1.007914294e-13
8.864927904e-14
7.81678385e-14
6.841226448e-14
5.902374359e-14
5.005812262e-14
4.21381506e-14
3.591183472e-14
3.138076183e-14
2.779438643e-14
2.458914089e-14
2.169185378e-14
1.897123877e-14
1.642985902e-14
1.412572271e-14
1.211085912e-14
1.043247287e-14
9.037114835e-15
7.872547023e-15
6.862353857e-15
5.952430728e-15
5.135961158e-15
4.44189597e-15
3.859457491e-15
3.349867666e-15
2.897005814e-15
2.505484706e-15
2.168853887e-15
1.861654272e-15
1.594134653e-15
1.36610409e-15
1.162125086e-15
9.865326843e-16
8.410881457e-16
7.159077621e-16
6.062967652e-16
5.078619006e-16
4.211242708e-16
3.491131461e-16
2.886773412e-16
2.370238008e-16
1.925737329e-16
1.54892931e-16
1.229509652e-16
9.68137734e-17
7.60059372e-17
5.872610488e-17
4.43315637e-17
3.266244261e-17
2.379217954e-17
1.728023311e-17
1.221109154e-17
8.466450561e-18
5.80980185e-18
3.884423094e-18
2.473406939e-18
1.50061319e-18
9.081511373e-19
5.5020204e-19
3.096338527e-19
1.640621302e-19
8.703056277e-20
4.545164066e-20
2.523869727e-20
-2.333644362e-20
-1.39905423e-19
-8.919931529e-19
-2.188938014e-18
-2.846158959e-18
)


101
(
4.444296732e-17
-4.779504694e-16
-4.626918903e-15
-1.648890257e-14
-3.630102073e-14
-6.086449087e-14
-8.771468851e-14
-1.146554631e-13
-1.392254879e-13
-1.600010402e-13
-1.757805316e-13
-1.857840136e-13
-1.89271837e-13
-1.856574478e-13
-1.746560649e-13
-1.561085849e-13
-1.302388742e-13
-9.813025055e-14
-6.168620135e-14
-2.257052237e-14
1.700169644e-14
5.375956036e-14
8.615859542e-14
1.133605012e-13
1.339061418e-13
1.475122852e-13
1.547839563e-13
1.562838757e-13
1.529542818e-13
1.459821437e-13
1.364906833e-13
1.25857168e-13
1.138428815e-13
1.017734894e-13
9.115353833e-14
8.124524608e-14
7.182353128e-14
6.256587689e-14
5.381049866e-14
4.63819838e-14
4.070220656e-14
3.621430013e-14
3.234610947e-14
2.900052529e-14
2.589359425e-14
2.294094064e-14
2.015794426e-14
1.759561941e-14
1.539074354e-14
1.353883504e-14
1.200309308e-14
1.067338586e-14
9.452689813e-15
8.329764831e-15
7.343308677e-15
6.496072118e-15
5.757274061e-15
5.096080956e-15
4.510714194e-15
3.997542088e-15
3.513750761e-15
3.079630115e-15
2.700146433e-15
2.35585856e-15
2.051054287e-15
1.791691346e-15
1.565350739e-15
1.364037937e-15
1.182479019e-15
1.013834658e-15
8.672859676e-16
7.414875968e-16
6.311055633e-16
5.339063608e-16
4.481300606e-16
3.715914511e-16
3.049770936e-16
2.499046733e-16
2.034676826e-16
1.636764668e-16
1.288389887e-16
9.930410983e-17
7.635905529e-17
5.798244496e-17
4.302742301e-17
3.177000353e-17
2.314808068e-17
1.624716267e-17
1.090568977e-17
7.255948365e-18
4.837673314e-18
3.080868535e-18
1.829933355e-18
1.098372872e-18
6.57146131e-19
4.176913303e-19
-4.953749568e-19
-2.639952841e-18
-1.401309337e-17
-3.309388557e-17
-4.262854028e-17
)


101
(
5.214071063e-17
-4.320556684e-16
-4.397831386e-15
-1.584039123e-14
-3.50667835e-14
-5.907106762e-14
-8.547577436e-14
-1.12223238e-13
-1.369961475e-13
-1.584240444e-13
-1.753443679e-13
-1.86975598e-13
-1.926191114e-13
-1.916768367e-13
-1.837705587e-13
-1.686085398e-13
-1.462415956e-13
-1.17330756e-13
-8.350132379e-14
-4.614279045e-14
-7.033794858e-15
3.051156279e-14
6.488998738e-14
9.529319175e-14
1.198988812e-13
1.379634357e-13
1.498444722e-13
1.558478437e-13
1.566331517e-13
1.531589179e-13
1.464379943e-13
1.379445314e-13
1.272466601e-13
1.157702788e-13
1.05376392e-13
9.553590799e-14
8.624759801e-14
7.691935362e-14
6.763143522e-14
5.924331213e-14
5.244118666e-14
4.694087496e-14
4.227406772e-14
3.83623472e-14
3.479570173e-14
3.140972952e-14
2.815252067e-14
2.501042291e-14
2.220347016e-14
1.982304316e-14
1.782974753e-14
1.608839954e-14
1.451805972e-14
1.304250707e-14
1.167294394e-14
1.049042681e-14
9.471262523e-15
8.537410937e-15
7.696613612e-15
6.958251981e-15
6.248393453e-15
5.603097665e-15
5.0190166e-15
4.466476366e-15
3.964947468e-15
3.525374661e-15
3.148676536e-15
2.816911872e-15
2.517895459e-15
2.22720529e-15
1.955771672e-15
1.711139301e-15
1.491663336e-15
1.306451244e-15
1.139295245e-15
9.81141221e-16
8.362849634e-16
7.100185926e-16
6.021237369e-16
5.06917536e-16
4.200903135e-16
3.411349328e-16
2.753204292e-16
2.213668496e-16
1.749589498e-16
1.366398712e-16
1.058065883e-16
8.063278965e-17
5.875301929e-17
4.250367425e-17
3.07538662e-17
2.135533505e-17
1.403227286e-17
9.359122771e-18
6.243291112e-18
4.501107473e-18
-6.266255159e-18
-3.02963709e-17
-1.338147984e-16
-3.320369367e-16
-4.463051885e-16
)


101
(
5.915320167e-17
-3.884367006e-16
-4.176370462e-15
-1.520957751e-14
-3.386346004e-14
-5.73225827e-14
-8.330152784e-14
-1.098759699e-13
-1.348740354e-13
-1.569910515e-13
-1.751053009e-13
-1.884324341e-13
-1.963170492e-13
-1.981583048e-13
-1.934987039e-13
-1.819312548e-13
-1.633425935e-13
-1.380130116e-13
-1.072765267e-13
-7.221702833e-14
-3.416338554e-14
3.625102967e-15
3.949298076e-14
7.272132709e-14
1.012310326e-13
1.237833414e-13
1.404787217e-13
1.513974259e-13
1.569138898e-13
1.576886912e-13
1.545076811e-13
1.48879266e-13
1.401904274e-13
1.299886048e-13
1.203656166e-13
1.108972496e-13
1.019511131e-13
9.280718702e-14
8.334730123e-14
7.440062226e-14
6.673794488e-14
6.023183508e-14
5.463174449e-14
5.003308913e-14
4.591815317e-14
4.207157273e-14
3.835106044e-14
3.465938802e-14
3.125830157e-14
2.827476254e-14
2.570690327e-14
2.347024358e-14
2.150414508e-14
1.965333846e-14
1.789798405e-14
1.63059349e-14
1.493922557e-14
1.368573399e-14
1.250296379e-14
1.149575623e-14
1.051790856e-14
9.60569306e-15
8.773319331e-15
7.961701173e-15
7.206423962e-15
6.513340931e-15
5.914070047e-15
5.396452727e-15
4.922958553e-15
4.4613272e-15
4.016984944e-15
3.608212679e-15
3.227310421e-15
2.887589545e-15
2.583730713e-15
2.301165261e-15
2.031153599e-15
1.773278651e-15
1.551336327e-15
1.361118351e-15
1.174061655e-15
9.937778401e-16
8.353285016e-16
7.026835255e-16
5.885016048e-16
4.800326126e-16
3.902134898e-16
3.170327533e-16
2.477255272e-16
1.920272946e-16
1.482863077e-16
1.10691814e-16
7.944626523e-17
5.758277549e-17
4.240266742e-17
3.335697074e-17
-5.366288081e-17
-2.325556718e-16
-8.39073683e-16
-2.166999175e-15
-3.024223327e-15
)


101
(
6.550254915e-17
-3.470436299e-16
-3.962397681e-15
-1.459609537e-14
-3.269015932e-14
-5.561712411e-14
-8.118816788e-14
-1.076073076e-13
-1.328488739e-13
-1.556864232e-13
-1.750422886e-13
-1.901287044e-13
-2.003361958e-13
-2.050702552e-13
-2.038076468e-13
-1.960433554e-13
-1.815144882e-13
-1.601597612e-13
-1.330226266e-13
-1.008631863e-13
-6.45470073e-14
-2.718111859e-14
9.569648559e-15
4.509585187e-14
7.71735384e-14
1.041111923e-13
1.257203097e-13
1.418624821e-13
1.526389075e-13
1.583900156e-13
1.595937281e-13
1.576620928e-13
1.51691757e-13
1.43471169e-13
1.353100119e-13
1.266681226e-13
1.183556623e-13
1.097459368e-13
1.005664417e-13
9.15263331e-14
8.340877442e-14
7.606986157e-14
6.949599837e-14
6.412703683e-14
5.937037726e-14
5.504739298e-14
5.095127922e-14
4.682217013e-14
4.28652136e-14
3.922823606e-14
3.599981362e-14
3.316909024e-14
3.07442495e-14
2.85748158e-14
2.645186012e-14
2.435617658e-14
2.257950432e-14
2.097254148e-14
1.940626246e-14
1.809110853e-14
1.684423084e-14
1.562518671e-14
1.449519326e-14
1.341304933e-14
1.238267271e-14
1.135063135e-14
1.041810729e-14
9.633674889e-15
8.937259791e-15
8.285734574e-15
7.637598729e-15
7.001693379e-15
6.383120333e-15
5.826836573e-15
5.339687286e-15
4.888209756e-15
4.427716396e-15
3.972088851e-15
3.568419786e-15
3.220404838e-15
2.87318553e-15
2.523505099e-15
2.19595096e-15
1.911739132e-15
1.677355614e-15
1.431965177e-15
1.206874826e-15
1.025537057e-15
8.452529008e-16
6.936310152e-16
5.687489494e-16
4.489176427e-16
3.452529902e-16
2.671505734e-16
2.131326572e-16
1.837237162e-16
-3.280666143e-16
-1.298058389e-15
-3.805433192e-15
-7.592276325e-15
-9.428897639e-15
)


101
(
7.12108968e-17
-3.07826617e-16
-3.755777073e-15
-1.399959206e-14
-3.154602856e-14
-5.395285633e-14
-7.913206001e-14
-1.054111751e-13
-1.3091098e-13
-1.544949088e-13
-1.751341918e-13
-1.92037875e-13
-2.046453871e-13
-2.123786861e-13
-2.146613809e-13
-2.109055003e-13
-2.007185906e-13
-1.837404448e-13
-1.607345718e-13
-1.321259059e-13
-9.831217275e-14
-6.216791254e-14
-2.526444618e-14
1.187577629e-14
4.698100784e-14
7.805929629e-14
1.045652083e-13
1.260910166e-13
1.425076252e-13
1.538665395e-13
1.602954865e-13
1.629819136e-13
1.605011104e-13
1.549805144e-13
1.490702897e-13
1.419020892e-13
1.346852398e-13
1.270220052e-13
1.18587032e-13
1.099600532e-13
1.019059076e-13
9.411656061e-14
8.668739711e-14
8.052460099e-14
7.508847652e-14
7.031861934e-14
6.59788975e-14
6.156265739e-14
5.714744798e-14
5.290674979e-14
4.902117644e-14
4.551950165e-14
4.257042801e-14
4.008705704e-14
3.753935448e-14
3.497852624e-14
3.285621237e-14
3.08918896e-14
2.890366683e-14
2.718606748e-14
2.567598375e-14
2.419216159e-14
2.278929304e-14
2.140246492e-14
2.005802078e-14
1.872665793e-14
1.740137901e-14
1.621669568e-14
1.523298351e-14
1.434739941e-14
1.348433529e-14
1.261737555e-14
1.172617493e-14
1.089102227e-14
1.015990437e-14
9.487073997e-15
8.776983544e-15
8.087300384e-15
7.446012119e-15
6.846461859e-15
6.278980101e-15
5.691810205e-15
5.094892609e-15
4.571586454e-15
4.15810329e-15
3.695580922e-15
3.207257602e-15
2.806831393e-15
2.43441618e-15
2.098769131e-15
1.787927585e-15
1.482921842e-15
1.209045438e-15
9.81606377e-16
8.276891166e-16
7.589189131e-16
-1.465890525e-15
-5.397185482e-15
-1.359739024e-14
-2.566855437e-14
-3.154562124e-14
)


101
(
7.630038257e-17
-2.707359568e-16
-3.556375737e-15
-1.341972964e-14
-3.043025259e-14
-5.232800113e-14
-7.712969164e-14
-1.032819007e-13
-1.290511924e-13
-1.534013703e-13
-1.75359908e-13
-1.941333153e-13
-2.092123724e-13
-2.200473536e-13
-2.260205602e-13
-2.264754197e-13
-2.209103948e-13
-2.087140295e-13
-1.903915474e-13
-1.66013277e-13
-1.355217119e-13
-1.015049024e-13
-6.529941055e-14
-2.734465694e-14
1.006578039e-14
4.476995672e-14
7.589386092e-14
1.027470292e-13
1.249988858e-13
1.424554142e-13
1.548578662e-13
1.630723334e-13
1.649569844e-13
1.629676061e-13
1.601823538e-13
1.553005942e-13
1.498506521e-13
1.436666887e-13
1.363806947e-13
1.28638726e-13
1.212945674e-13
1.136580138e-13
1.057416499e-13
9.893769755e-14
9.285858297e-14
8.761783953e-14
8.307922234e-14
7.857158833e-14
7.39236796e-14
6.925865924e-14
6.483079929e-14
6.064924943e-14
5.711305059e-14
5.424341444e-14
5.137894661e-14
4.845084618e-14
4.603355223e-14
4.37774833e-14
4.135921767e-14
3.921808981e-14
3.741692549e-14
3.570705895e-14
3.40910715e-14
3.251984067e-14
3.085046043e-14
2.918882752e-14
2.755398304e-14
2.591920944e-14
2.45711425e-14
2.341427965e-14
2.229763741e-14
2.126350232e-14
2.015977881e-14
1.901276193e-14
1.795397231e-14
1.701370991e-14
1.608149566e-14
1.511444353e-14
1.418825139e-14
1.33388966e-14
1.249827654e-14
1.15989849e-14
1.066826788e-14
9.787040361e-15
9.097730048e-15
8.407806683e-15
7.545401904e-15
6.742470038e-15
6.055283155e-15
5.428469752e-15
4.772620611e-15
4.109403121e-15
3.521120906e-15
2.98121724e-15
2.608513062e-15
2.487593618e-15
-5.303846216e-15
-1.816496489e-14
-3.966473183e-14
-6.687212316e-14
-7.823400134e-14
)


101
(
8.079313857e-17
-2.357219993e-16
-3.364063238e-15
-1.285618414e-14
-2.934205551e-14
-5.074081717e-14
-7.517758501e-14
-1.012144033e-13
-1.272615319e-13
-1.523904883e-13
-1.756976216e-13
-1.963880757e-13
-2.140021549e-13
-2.280350117e-13
-2.378409786e-13
-2.427110477e-13
-2.42053253e-13
-2.350428367e-13
-2.219596026e-13
-2.024896447e-13
-1.7615002e-13
-1.45243905e-13
-1.107523518e-13
-7.298197457e-14
-3.418148966e-14
3.402475969e-15
3.859743006e-14
7.044694085e-14
9.84778096e-14
1.223205676e-13
1.412871501e-13
1.558332276e-13
1.629737593e-13
1.654772903e-13
1.668377677e-13
1.652049282e-13
1.623386052e-13
1.582413852e-13
1.525194321e-13
1.461143198e-13
1.401666105e-13
1.334545752e-13
1.256845082e-13
1.186567347e-13
1.121294342e-13
1.064326418e-13
1.016792451e-13
9.718678693e-14
9.250837185e-14
8.778159697e-14
8.319344244e-14
7.837206039e-14
7.417576317e-14
7.096926603e-14
6.79620735e-14
6.466532351e-14
6.19705596e-14
5.957887378e-14
5.684786315e-14
5.432709017e-14
5.225945294e-14
5.049198651e-14
4.873529844e-14
4.696089376e-14
4.512401101e-14
4.335634429e-14
4.146029024e-14
3.949574914e-14
3.773747603e-14
3.617152396e-14
3.480136791e-14
3.367798321e-14
3.254932492e-14
3.12193904e-14
2.988809915e-14
2.862288082e-14
2.736199322e-14
2.621467134e-14
2.509930472e-14
2.400059806e-14
2.290017818e-14
2.169910724e-14
2.045832617e-14
1.91106042e-14
1.802215982e-14
1.71574462e-14
1.591554367e-14
1.45139066e-14
1.331328319e-14
1.230463486e-14
1.115385099e-14
9.901306488e-15
8.768543135e-15
7.672959822e-15
6.927929958e-15
6.729413769e-15
-1.570029322e-14
-5.057682346e-14
-9.78777564e-14
-1.564775963e-13
-1.814526731e-13
)


101
(
8.471133354e-17
-2.02735085e-16
-3.178711263e-15
-1.230864356e-14
-2.828070188e-14
-4.918965018e-14
-7.327236818e-14
-9.92037563e-14
-1.255346585e-13
-1.514475789e-13
-1.761256886e-13
-1.987755272e-13
-2.189795834e-13
-2.362988571e-13
-2.500746892e-13
-2.595641998e-13
-2.641048411e-13
-2.62682248e-13
-2.554024545e-13
-2.415152979e-13
-2.201442337e-13
-1.933758324e-13
-1.617529896e-13
-1.25386368e-13
-8.635302703e-14
-4.687130917e-14
-8.370649787e-15
2.791808549e-14
6.137135416e-14
9.15253455e-14
1.173642695e-13
1.389381337e-13
1.522018329e-13
1.601590792e-13
1.667244436e-13
1.693769722e-13
1.700246132e-13
1.687243147e-13
1.650933905e-13
1.605139559e-13
1.565772149e-13
1.515789386e-13
1.448316122e-13
1.383527033e-13
1.318094218e-13
1.258025637e-13
1.208821252e-13
1.164510748e-13
1.119495772e-13
1.075492134e-13
1.031708785e-13
9.789806511e-14
9.313169388e-14
8.962406394e-14
8.645938664e-14
8.297048605e-14
8.014486114e-14
7.791522666e-14
7.519723312e-14
7.229150329e-14
6.996313367e-14
6.839486208e-14
6.670574708e-14
6.471007599e-14
6.29660755e-14
6.12978149e-14
5.945186943e-14
5.732800869e-14
5.512914338e-14
5.334465952e-14
5.172864572e-14
5.051419117e-14
4.951657522e-14
4.831571836e-14
4.704742176e-14
4.550962944e-14
4.392858973e-14
4.26890738e-14
4.14468979e-14
4.037802359e-14
3.925830793e-14
3.775667645e-14
3.62517035e-14
3.463599209e-14
3.310841311e-14
3.192662928e-14
3.050278693e-14
2.85088906e-14
2.646077052e-14
2.506741936e-14
2.32782863e-14
2.12641822e-14
1.938133611e-14
1.725873023e-14
1.59184607e-14
1.576945544e-14
-3.879074169e-14
-1.195003886e-13
-2.103576394e-13
-3.339021474e-13
-3.953608978e-13
)


101
(
8.80771447e-17
-1.717255614e-16
-3.000193806e-15
-1.177680817e-14
-2.72454902e-14
-4.767293557e-14
-7.141078229e-14
-9.724519431e-14
-1.238638155e-13
-1.5055976e-13
-1.76622053e-13
-2.012678451e-13
-2.241114079e-13
-2.447982854e-13
-2.626741149e-13
-2.769766874e-13
-2.869984953e-13
-2.915533514e-13
-2.906050732e-13
-2.829800814e-13
-2.67448006e-13
-2.459286374e-13
-2.184349474e-13
-1.848350703e-13
-1.469757698e-13
-1.068450693e-13
-6.602084247e-14
-2.606495008e-14
1.21616712e-14
4.811923248e-14
8.067969854e-14
1.097498434e-13
1.299372548e-13
1.442651881e-13
1.57086872e-13
1.650784322e-13
1.702537904e-13
1.725651416e-13
1.716456227e-13
1.693619514e-13
1.680328053e-13
1.65609563e-13
1.607904256e-13
1.557334444e-13
1.499030136e-13
1.440972209e-13
1.3915656e-13
1.348509094e-13
1.307957726e-13
1.268960727e-13
1.229970464e-13
1.178222629e-13
1.127485886e-13
1.089091363e-13
1.05658004e-13
1.021492019e-13
9.935296085e-14
9.755532501e-14
9.529586802e-14
9.25372429e-14
9.002741439e-14
8.854106356e-14
8.704452061e-14
8.508337931e-14
8.383889372e-14
8.272602544e-14
8.120925616e-14
7.910627325e-14
7.690514624e-14
7.520779701e-14
7.341750019e-14
7.225093272e-14
7.149009174e-14
7.06470332e-14
7.017503832e-14
6.905276592e-14
6.736046778e-14
6.581478258e-14
6.461944199e-14
6.409889764e-14
6.326038898e-14
6.193751119e-14
6.03943933e-14
5.850239271e-14
5.688733717e-14
5.564231071e-14
5.414532305e-14
5.184369574e-14
4.879012539e-14
4.696233128e-14
4.447467005e-14
4.141680632e-14
3.864120332e-14
3.494956194e-14
3.271656587e-14
3.299563163e-14
-8.371553721e-14
-2.490435202e-13
-4.058166203e-13
-5.75664321e-13
-6.399490362e-13
)


101
(
9.091275637e-17
-1.426437061e-16
-2.828386659e-15
-1.126039091e-14
-2.623576203e-14
-4.618920234e-14
-6.958967064e-14
-9.53340558e-14
-1.222427554e-13
-1.497156231e-13
-1.771647727e-13
-2.038361815e-13
-2.293657156e-13
-2.534944931e-13
-2.755923495e-13
-2.9488532e-13
-3.106470952e-13
-3.215479994e-13
-3.274095131e-13
-3.267365728e-13
-3.179822339e-13
-3.02903046e-13
-2.808875877e-13
-2.515182183e-13
-2.164724903e-13
-1.772224841e-13
-1.353073465e-13
-9.273391184e-14
-5.06956161e-14
-9.758738541e-15
2.898215731e-14
6.553367856e-14
9.312696657e-14
1.145983266e-13
1.345891919e-13
1.488968766e-13
1.596868908e-13
1.666040214e-13
1.690882554e-13
1.697141623e-13
1.716237302e-13
1.723316935e-13
1.70274238e-13
1.678074475e-13
1.636779158e-13
1.586257808e-13
1.538651804e-13
1.5000916e-13
1.467499529e-13
1.433751877e-13
1.401105989e-13
1.356828102e-13
1.307434942e-13
1.267445237e-13
1.238650236e-13
1.203351233e-13
1.173684378e-13
1.163545683e-13
1.152509064e-13
1.130783714e-13
1.106001461e-13
1.092126119e-13
1.079179555e-13
1.068305311e-13
1.062101018e-13
1.057222091e-13
1.056330141e-13
1.043651029e-13
1.026814545e-13
1.01173213e-13
9.953900102e-14
9.879935416e-14
9.84309087e-14
9.833520327e-14
9.926746764e-14
1.00041447e-13
9.890761378e-14
9.719413337e-14
9.644590963e-14
9.641119471e-14
9.662715367e-14
9.68152695e-14
9.577930121e-14
9.386032616e-14
9.254084195e-14
9.166471865e-14
9.056454515e-14
8.85882153e-14
8.479181639e-14
8.225600113e-14
7.925948709e-14
7.495945324e-14
7.105165984e-14
6.535383031e-14
6.152359995e-14
6.234514207e-14
-1.620669129e-13
-4.687123681e-13
-7.226509537e-13
-1.005178044e-12
-1.120200101e-12
)


101
(
9.324036376e-17
-1.154380236e-16
-2.663166281e-15
-1.075911482e-14
-2.525089616e-14
-4.473707114e-14
-6.780598635e-14
-9.34654096e-14
-1.206651348e-13
-1.489054433e-13
-1.777335609e-13
-2.064513143e-13
-2.347096616e-13
-2.623470175e-13
-2.887802805e-13
-3.132259625e-13
-3.349650055e-13
-3.525660661e-13
-3.656554616e-13
-3.726152629e-13
-3.716337932e-13
-3.642165334e-13
-3.490887386e-13
-3.254732502e-13
-2.950294009e-13
-2.585241614e-13
-2.171505544e-13
-1.733785063e-13
-1.288224693e-13
-8.398404009e-14
-3.988051184e-14
3.607665684e-15
3.853806018e-14
6.760094847e-14
9.542062525e-14
1.168152369e-13
1.342724865e-13
1.47029422e-13
1.539486825e-13
1.580861619e-13
1.635910996e-13
1.67939854e-13
1.694093762e-13
1.705005555e-13
1.691119122e-13
1.656623804e-13
1.616286011e-13
1.58423555e-13
1.560822867e-13
1.535112465e-13
1.511123484e-13
1.477642192e-13
1.43536281e-13
1.396813716e-13
1.374643183e-13
1.342610151e-13
1.313737917e-13
1.311108892e-13
1.31348402e-13
1.306060528e-13
1.288819834e-13
1.275772873e-13
1.265114441e-13
1.26750101e-13
1.271506116e-13
1.282286105e-13
1.303662484e-13
1.307020406e-13
1.299616178e-13
1.292107501e-13
1.290741471e-13
1.294374054e-13
1.299041416e-13
1.312984228e-13
1.341496088e-13
1.371565817e-13
1.388254672e-13
1.389660798e-13
1.385627938e-13
1.390287208e-13