/*--------------------------------*- C++ -*----------------------------------*\
| =========                 |                                                 |
| \\      /  F ield         | OpenFOAM: The Open Source CFD Toolbox           |
|  \\    /   O peration     | Version:  2.3.1                                 |
|   \\  /    A nd           | Web:      www.OpenFOAM.org                      |
|    \\/     M anipulation  |                                                 |
\*---------------------------------------------------------------------------*/
FoamFile
{
    version     2.0;
    format      ascii;
    class       dictionary;
    location    "constant";
    object      DPSI52;
}
// * * * * * * * * * * * * * * * * * * * * * * * * * * * * * * * * * * * * * //

DPSI52_table
101
(

101
(
5.0756546e-26
1.532306853e-16
3.179120395e-15
2.572072953e-14
1.351118165e-13
5.357567433e-13
1.733535177e-12
5.05420877e-12
1.309622427e-11
3.090803297e-11
6.654926564e-11
1.323363031e-10
2.41231201e-10
4.181274406e-10
6.73246742e-10
1.020732648e-09
1.475260201e-09
2.049625569e-09
2.67260617e-09
3.451950495e-09
4.224751196e-09
5.020622934e-09
5.882561513e-09
6.698261362e-09
7.458457449e-09
8.161152001e-09
8.791959807e-09
9.339595163e-09
9.803916816e-09
1.017290734e-08
1.044780792e-08
1.063058975e-08
1.074481977e-08
1.072131436e-08
1.063377935e-08
1.046629218e-08
1.022047493e-08
9.933330458e-09
9.597246501e-09
9.137368469e-09
8.614467895e-09
8.117464358e-09
7.520252199e-09
6.886757403e-09
6.263953863e-09
5.564454083e-09
4.867351602e-09
4.106659756e-09
3.346593817e-09
2.538643408e-09
1.741093961e-09
9.211296655e-10
8.921283053e-11
-7.454719109e-10
-1.575644333e-09
-2.405111856e-09
-3.298270421e-09
-4.109899524e-09
-4.976347991e-09
-5.806964033e-09
-6.654731911e-09
-7.483502052e-09
-8.299145697e-09
-9.113831154e-09
-9.914291209e-09
-1.070739171e-08
-1.148036056e-08
-1.223690756e-08
-1.299178704e-08
-1.371678943e-08
-1.442869994e-08
-1.512446555e-08
-1.581894096e-08
-1.647784484e-08
-1.710625754e-08
-1.770037677e-08
-1.829774873e-08
-1.886753275e-08
-1.940338105e-08
-1.991066861e-08
-2.039028112e-08
-2.086065563e-08
-2.129404471e-08
-2.170551349e-08
-2.208808284e-08
-2.243974215e-08
-2.27622117e-08
-2.305912125e-08
-2.333044054e-08
-2.357833996e-08
-2.37980948e-08
-2.399180959e-08
-2.416310249e-08
-2.431386662e-08
-2.44434639e-08
-2.463271645e-08
-2.492334337e-08
-2.776231062e-08
-3.069030809e-08
-3.377811293e-08
-3.693848912e-08
)


101
(
5.075781826e-26
1.40142318e-16
3.005978019e-15
2.458261425e-14
1.297151805e-13
5.15013194e-13
1.666528387e-12
4.863252243e-12
1.26223196e-11
2.984991956e-11
6.442271822e-11
1.284210701e-10
2.347741965e-10
4.078154525e-10
6.588450179e-10
1.00212088e-09
1.452683533e-09
2.023993035e-09
2.652460491e-09
3.430516666e-09
4.220428643e-09
5.034405646e-09
5.912207864e-09
6.759081776e-09
7.555182232e-09
8.295803103e-09
8.967528051e-09
9.558412703e-09
1.006634738e-08
1.04802818e-08
1.079933407e-08
1.102458588e-08
1.117540385e-08
1.119875316e-08
1.114375574e-08
1.10065584e-08
1.078816534e-08
1.051847711e-08
1.019739966e-08
9.764593905e-09
9.256383186e-09
8.749663949e-09
8.160758643e-09
7.523976226e-09
6.88210321e-09
6.176263146e-09
5.456667963e-09
4.681461982e-09
3.892471184e-09
3.060315114e-09
2.22442397e-09
1.367460218e-09
4.94505933e-10
-3.865095886e-10
-1.268007916e-09
-2.150799464e-09
-3.083879712e-09
-3.967893071e-09
-4.88516028e-09
-5.782716659e-09
-6.69078822e-09
-7.587538151e-09
-8.473223539e-09
-9.35629787e-09
-1.022858328e-08
-1.109349914e-08
-1.194190491e-08
-1.277445443e-08
-1.360192227e-08
-1.440555978e-08
-1.519369655e-08
-1.596487614e-08
-1.673006883e-08
-1.746699062e-08
-1.817533137e-08
-1.885093046e-08
-1.951901422e-08
-2.016192888e-08
-2.077179846e-08
-2.135119356e-08
-2.190075896e-08
-2.243359046e-08
-2.293256894e-08
-2.340557465e-08
-2.38484635e-08
-2.425935059e-08
-2.46364405e-08
-2.498300291e-08
-2.530030841e-08
-2.559141645e-08
-2.585122633e-08
-2.608380706e-08
-2.628739411e-08
-2.646725394e-08
-2.662524964e-08
-2.684991404e-08
-2.719166469e-08
-3.005688292e-08
-3.30044586e-08
-3.61114316e-08
-3.928598669e-08
)


101
(
5.075909061e-26
1.150379219e-16
2.668364147e-15
2.233657503e-14
1.189409515e-13
4.731165532e-13
1.529561205e-12
4.466863103e-12
1.162017756e-11
2.756388141e-11
5.971077659e-11
1.194903024e-10
2.194943815e-10
3.825194701e-10
6.214303488e-10
9.503142664e-10
1.384295334e-09
1.937425255e-09
2.561111547e-09
3.318719062e-09
4.118301741e-09
4.94476187e-09
5.827652241e-09
6.704932986e-09
7.542463144e-09
8.329195521e-09
9.053104816e-09
9.701911243e-09
1.027021077e-08
1.074898902e-08
1.113424281e-08
1.14255212e-08
1.163488717e-08
1.173522385e-08
1.174054761e-08
1.165970796e-08
1.149551059e-08
1.126548639e-08
1.097951244e-08
1.060565352e-08
1.01450207e-08
9.645747598e-09
9.08945819e-09
8.474302496e-09
7.828281189e-09
7.137176597e-09
6.411877199e-09
5.643674233e-09
4.843079414e-09
4.006634278e-09
3.146944492e-09
2.266858919e-09
1.36641569e-09
4.503361166e-10
-4.745519726e-10
-1.404559288e-09
-2.360722975e-09
-3.314845617e-09
-4.275081091e-09
-5.235973132e-09
-6.198951281e-09
-7.160572801e-09
-8.115752925e-09
-9.06614846e-09
-1.001046027e-08
-1.094787346e-08
-1.187470024e-08
-1.278797813e-08
-1.369098041e-08
-1.457924363e-08
-1.545067702e-08
-1.63046355e-08
-1.714499184e-08
-1.796735301e-08
-1.876667466e-08
-1.953896479e-08
-2.028968797e-08
-2.101827646e-08
-2.171776491e-08
-2.238591985e-08
-2.302238058e-08
-2.363157452e-08
-2.421186828e-08
-2.476235972e-08
-2.528218315e-08
-2.577063261e-08
-2.622298574e-08
-2.663811563e-08
-2.701812695e-08
-2.736891761e-08
-2.76854709e-08
-2.797425287e-08
-2.822871585e-08
-2.845321316e-08
-2.865655373e-08
-2.893557952e-08
-2.934972529e-08
-3.223543419e-08
-3.519872707e-08
-3.832257876e-08
-4.151064534e-08
)


101
(
5.076036296e-26
9.224808828e-17
2.356841654e-15
2.026158077e-14
1.090072419e-13
4.34521172e-13
1.403232506e-12
4.099731288e-12
1.068692814e-11
2.542250501e-11
5.526831476e-11
1.110147259e-10
2.048700772e-10
3.581966556e-10
5.850069308e-10
8.993841201e-10
1.316464507e-09
1.850755168e-09
2.466108247e-09
3.20493201e-09
4.006758267e-09
4.843385104e-09
5.731929307e-09
6.632373406e-09
7.506859456e-09
8.337544073e-09
9.111562449e-09
9.816474828e-09
1.044451868e-08
1.098722956e-08
1.143887316e-08
1.179725365e-08
1.206919776e-08
1.224189502e-08
1.23147783e-08
1.2295788e-08
1.21890668e-08
1.200687766e-08
1.176140932e-08
1.143917356e-08
1.103117894e-08
1.056088288e-08
1.00341644e-08
9.447100749e-09
8.813042285e-09
8.134576115e-09
7.414668515e-09
6.652735133e-09
5.851426437e-09
5.012508855e-09
4.141509427e-09
3.244358849e-09
2.3231232e-09
1.380591613e-09
4.218653892e-10
-5.480516092e-10
-1.535808259e-09
-2.535790541e-09
-3.543232074e-09
-4.556306797e-09
-5.573189818e-09
-6.592154784e-09
-7.60958795e-09
-8.623972717e-09
-9.634706064e-09
-1.064075373e-08
-1.163979235e-08
-1.262870715e-08
-1.360701102e-08
-1.457331263e-08
-1.552543358e-08
-1.646122589e-08
-1.738114384e-08
-1.828438396e-08
-1.916805598e-08
-2.002885777e-08
-2.086645193e-08
-2.168126043e-08
-2.24693675e-08
-2.32270175e-08
-2.39514786e-08
-2.46440115e-08
-2.530600473e-08
-2.593680931e-08
-2.653529124e-08
-2.710151788e-08
-2.763254207e-08
-2.812456456e-08
-2.857414362e-08
-2.898987364e-08
-2.936824044e-08
-2.971683094e-08
-3.003144406e-08
-3.030879776e-08
-3.056335078e-08
-3.090651599e-08
-3.139963492e-08
-3.430265583e-08
-3.728006628e-08
-4.042014624e-08
-4.362234078e-08
)


101
(
5.076164002e-26
7.162716388e-17
2.069672857e-15
1.834527724e-14
9.985242054e-14
3.989962218e-13
1.286862663e-12
3.7602152e-12
9.819298789e-12
2.342025362e-11
5.108815228e-11
1.029882031e-10
1.909068339e-10
3.348625196e-10
5.49660912e-10
8.494745935e-10
1.249411177e-09
1.764310046e-09
2.368298296e-09
3.089032467e-09
3.887444158e-09
4.730836873e-09
5.62477759e-09
6.542946325e-09
7.449258676e-09
8.320829329e-09
9.142593932e-09
9.901556839e-09
1.058821201e-08
1.119386311e-08
1.171164633e-08
1.213772398e-08
1.24750422e-08
1.271816379e-08
1.286162283e-08
1.290958734e-08
1.286499096e-08
1.273743235e-08
1.253878386e-08
1.226643897e-08
1.191189353e-08
1.148342918e-08
1.099190195e-08
1.043756199e-08
9.826632179e-09
9.165932853e-09
8.458480021e-09
7.706623435e-09
6.911315897e-09
6.074934005e-09
5.200609844e-09
4.29391202e-09
3.358457233e-09
2.396993718e-09
1.413250583e-09
4.119289059e-10
-6.068353584e-10
-1.642905788e-09
-2.691399741e-09
-3.75005478e-09
-4.816025097e-09
-5.887252045e-09
-6.960864321e-09
-8.034329897e-09
-9.106478237e-09
-1.017636827e-08
-1.124242312e-08
-1.230188962e-08
-1.33527089e-08
-1.439324445e-08
-1.542199858e-08
-1.643664736e-08
-1.743611204e-08
-1.841965943e-08
-1.938541305e-08
-2.033057863e-08
-2.125319934e-08
-2.215356171e-08
-2.302911743e-08
-2.387660217e-08
-2.469124415e-08
-2.547094016e-08
-2.621762533e-08
-2.693141278e-08
-2.761168579e-08
-2.825835364e-08
-2.886912858e-08
-2.944239011e-08
-2.997059359e-08
-3.045784183e-08
-3.09041323e-08
-3.131869919e-08
-3.169828239e-08
-3.20386581e-08
-3.235161103e-08
-3.276683218e-08
-3.334571762e-08
-3.626475382e-08
-3.925615341e-08
-4.24122835e-08
-4.562928663e-08
)


101
(
5.076290773e-26
5.303847717e-17
1.805238261e-15
1.657612927e-14
9.141847666e-14
3.663220557e-13
1.179796101e-12
3.446708291e-12
9.014021617e-12
2.155145303e-11
4.716249412e-11
9.540299976e-11
1.776065612e-10
3.125279498e-10
5.154652433e-10
8.007191212e-10
1.183344229e-09
1.678403708e-09
2.268457629e-09
2.971100855e-09
3.761687197e-09
4.607948099e-09
5.506172199e-09
6.43777814e-09
7.370724017e-09
8.279357299e-09
9.146042933e-09
9.956704054e-09
1.070037482e-08
1.136773975e-08
1.19510301e-08
1.2444982e-08
1.284955115e-08
1.316256139e-08
1.337775603e-08
1.349575569e-08
1.351835553e-08
1.3451638e-08
1.330622089e-08
1.308568453e-08
1.278510162e-08
1.240562522e-08
1.19564174e-08
1.144028872e-08
1.086087581e-08
1.022516778e-08
9.5370133e-09
8.800621832e-09
8.017191864e-09
7.189098269e-09
6.318264036e-09
5.409289448e-09
4.466339534e-09
3.492690334e-09
2.491632401e-09
1.467238158e-09
4.223925772e-10
-6.432923371e-10
-1.725861503e-09
-2.823289894e-09
-3.93231889e-09
-5.050463418e-09
-6.174857523e-09
-7.302489761e-09
-8.431366204e-09
-9.560277345e-09
-1.06882864e-08
-1.181330892e-08
-1.293278496e-08
-1.404437581e-08
-1.514623398e-08
-1.623630548e-08
-1.731302404e-08
-1.837549064e-08
-1.942205458e-08
-2.04499763e-08
-2.145622839e-08
-2.244096463e-08
-2.340250584e-08
-2.43386157e-08
-2.524452185e-08
-2.6114913e-08
-2.694991991e-08
-2.775000555e-08
-2.851517246e-08
-2.924586529e-08
-2.993987709e-08
-3.059638515e-08
-3.120980182e-08
-3.177687076e-08
-3.229806339e-08
-3.278530276e-08
-3.323535191e-08
-3.364791937e-08
-3.402772758e-08
-3.452175937e-08
-3.519392252e-08
-3.812789042e-08
-4.113302448e-08
-4.430536805e-08
-4.753809766e-08
)


101
(
5.076417993e-26
3.635324194e-17
1.562031684e-15
1.494339956e-14
8.365101474e-14
3.362906627e-13
1.081405226e-12
3.157651067e-12
8.267860583e-12
1.981033333e-11
4.348300129e-11
8.824996678e-11
1.649675886e-10
2.911989885e-10
4.824807842e-10
7.532384673e-10
1.118459486e-09
1.593333266e-09
2.167303188e-09
2.85137429e-09
3.630595457e-09
4.47571118e-09
5.376345139e-09
6.317766353e-09
7.272369469e-09
8.213722792e-09
9.121966497e-09
9.981600498e-09
1.078025999e-08
1.150779324e-08
1.21555747e-08
1.271715447e-08
1.319010505e-08
1.357312593e-08
1.386059991e-08
1.405097767e-08
1.414435049e-08
1.414396895e-08
1.405820036e-08
1.389333038e-08
1.364833586e-08
1.33221908e-08
1.292146179e-08
1.24494151e-08
1.190870901e-08
1.130548522e-08
1.064374879e-08
9.928910947e-09
9.163155506e-09
8.349244667e-09
7.488460119e-09
6.584297493e-09
5.640745021e-09
4.661508259e-09
3.649950634e-09
2.609825148e-09
1.545226085e-09
4.562221474e-10
-6.537105361e-10
-1.783025226e-09
-2.928514288e-09
-4.087617365e-09
-5.257280731e-09
-6.434077571e-09
-7.615223532e-09
-8.798726153e-09
-9.983855331e-09
-1.116928072e-08
-1.235282602e-08
-1.353189631e-08
-1.470372011e-08
-1.586615318e-08
-1.701732671e-08
-1.81563884e-08
-1.928189156e-08
-2.039129961e-08
-2.148065209e-08
-2.254922749e-08
-2.359567978e-08
-2.461903257e-08
-2.561544947e-08
-2.65787969e-08
-2.750598423e-08
-2.839656071e-08
-2.925056996e-08
-3.006904688e-08
-3.0849905e-08
-3.15936813e-08
-3.229535594e-08
-3.295096473e-08
-3.355429863e-08
-3.41216891e-08
-3.464970305e-08
-3.514160441e-08
-3.559699064e-08
-3.617702841e-08
-3.695056839e-08
-3.989845429e-08
-4.291681909e-08
-4.610428896e-08
-4.935201566e-08
)


101
(
5.076545224e-26
2.145036324e-17
1.338652547e-15
1.343709864e-14
7.64990541e-14
3.08705122e-13
9.910896877e-13
2.891533872e-12
7.577623526e-12
1.819106073e-11
4.00408862e-11
8.151858476e-11
1.529852787e-10
2.708773804e-10
4.507582103e-10
7.071429956e-10
1.054940313e-09
1.5093828e-09
2.065492402e-09
2.73021959e-09
3.495143185e-09
4.335185898e-09
5.235773971e-09
6.183708593e-09
7.155297944e-09
8.124739241e-09
9.070672805e-09
9.976119516e-09
1.082730869e-08
1.161310223e-08
1.23240024e-08
1.295251333e-08
1.349432052e-08
1.394764907e-08
1.430767678e-08
1.457178602e-08
1.47385934e-08
1.480899607e-08
1.478876814e-08
1.468452569e-08
1.449806812e-08
1.422873697e-08
1.388141659e-08
1.345891546e-08
1.296333347e-08
1.239979392e-08
1.177177414e-08
1.108511863e-08
1.034302174e-08
9.549059473e-09
8.704577451e-09
7.812263756e-09
6.875260304e-09
5.897192545e-09
4.881751143e-09
3.832690753e-09
2.754605971e-09
1.648374438e-09
5.174933432e-10
-6.36911393e-10
-1.812016319e-09
-3.005534291e-09
-4.214478989e-09
-5.435122726e-09
-6.663963526e-09
-7.897948024e-09
-9.135756753e-09
-1.037663882e-08
-1.161927078e-08
-1.286157711e-08
-1.410015269e-08
-1.533216856e-08
-1.655511562e-08
-1.776811388e-08
-1.897014447e-08
-2.015911101e-08
-2.1330774e-08
-2.248307774e-08
-2.361432051e-08
-2.472435506e-08
-2.581047387e-08
-2.686701967e-08
-2.788905089e-08
-2.88739799e-08
-2.982126223e-08
-3.073225035e-08
-3.160379831e-08
-3.243932153e-08
-3.323274e-08
-3.398350425e-08
-3.467675802e-08
-3.533165521e-08
-3.594603903e-08
-3.652392786e-08
-3.706441417e-08
-3.773877456e-08
-3.862050253e-08
-4.158171109e-08
-4.46128573e-08
-4.781266993e-08
-5.107198325e-08
)


101
(
5.076673399e-26
8.215873276e-18
1.133798726e-15
1.204796422e-14
6.99149401e-14
2.833790972e-13
9.082735457e-13
2.64689007e-12
6.940164132e-12
1.668775967e-11
3.682698674e-11
7.519713918e-11
1.41652045e-10
2.515601199e-10
4.203364421e-10
6.625300478e-10
9.92954902e-10
1.426819007e-09
1.963624746e-09
2.608077687e-09
3.35621768e-09
4.187469832e-09
5.08513773e-09
6.036381206e-09
7.020588351e-09
8.013385685e-09
8.99273652e-09
9.940386157e-09
1.084118836e-08
1.168292603e-08
1.245517641e-08
1.31494834e-08
1.376001977e-08
1.428382934e-08
1.47165607e-08
1.505509873e-08
1.529709584e-08
1.544165993e-08
1.549201682e-08
1.545367657e-08
1.532976593e-08
1.512077071e-08
1.483105505e-08
1.446294807e-08
1.401812938e-08
1.350084657e-08
1.291370688e-08
1.226227555e-08
1.155022732e-08
1.078199113e-08
9.959615053e-09
9.085733863e-09
8.16257693e-09
7.192970721e-09
6.180578101e-09
5.129300454e-09
4.044053331e-09
2.926347202e-09
1.780375576e-09
6.072184712e-10
-5.907854412e-10
-1.811800344e-09
-3.053285484e-09
-4.311763305e-09
-5.583307715e-09
-6.863826006e-09
-8.150599898e-09
-9.442742755e-09
-1.073954925e-08
-1.204014645e-08
-1.334150839e-08
-1.464003915e-08
-1.59324338e-08
-1.721707851e-08
-1.849312858e-08
-1.975917502e-08
-2.101166806e-08
-2.22475332e-08
-2.346378888e-08
-2.466038479e-08
-2.583609816e-08
-2.698580315e-08
-2.810404302e-08
-2.9185882e-08
-3.023027312e-08
-3.123867083e-08
-3.220604535e-08
-3.313759334e-08
-3.402801668e-08
-3.487806596e-08
-3.566993477e-08
-3.641923254e-08
-3.71281997e-08
-3.779920156e-08
-3.843436723e-08
-3.921150184e-08
-4.020750192e-08
-4.318066704e-08
-4.622332402e-08
-4.94335326e-08
-5.270076748e-08
)


101
(
5.076800627e-26
-3.457795755e-18
9.462611177e-16
1.076742559e-14
6.385429268e-14
2.601369141e-13
8.324052667e-13
2.422292788e-12
6.352392504e-12
1.529456366e-11
3.383181802e-11
6.927276215e-11
1.309573859e-10
2.332399324e-10
3.912436941e-10
6.194828424e-10
9.326553817e-10
1.345888014e-09
1.862250223e-09
2.485442381e-09
3.214648586e-09
4.033662575e-09
4.925278125e-09
5.876611517e-09
6.869312398e-09
7.880752272e-09
8.888949269e-09
9.874762605e-09
1.082180274e-08
1.171673322e-08
1.254814715e-08
1.33066644e-08
1.398521325e-08
1.457936346e-08
1.508482087e-08
1.54981133e-08
1.581633446e-08
1.603738985e-08
1.616230957e-08
1.619482774e-08
1.613804187e-08
1.59933018e-08
1.576519728e-08
1.545589549e-08
1.5066861e-08
1.460171828e-08
1.406215698e-08
1.345290529e-08
1.277758594e-08
1.204124962e-08
1.124673315e-08
1.039713327e-08
9.494467416e-09
8.540792763e-09
7.538777337e-09
6.492338111e-09
5.406625826e-09
4.283565077e-09
3.128157526e-09
1.9419422e-09
7.271540733e-10
-5.147890987e-10
-1.781795922e-09
-3.071280041e-09
-4.379616965e-09
-5.702236817e-09
-7.034585444e-09
-8.37456228e-09
-9.721310856e-09
-1.107514757e-08
-1.243448756e-08
-1.379587773e-08
-1.515511903e-08
-1.650941915e-08
-1.785739646e-08
-1.919830679e-08
-2.052941269e-08
-2.184782018e-08
-2.314949686e-08
-2.443290322e-08
-2.569789181e-08
-2.69410431e-08
-2.815661663e-08
-2.933765395e-08
-3.048175132e-08
-3.159180396e-08
-3.266095021e-08
-3.369244248e-08
-3.468533421e-08
-3.563916775e-08
-3.65377081e-08
-3.738854042e-08
-3.819910333e-08
-3.89717206e-08
-3.971021272e-08
-4.05975098e-08
-4.171587128e-08
-4.469795745e-08
-4.774962818e-08
-5.097036901e-08
-5.425269993e-08
)


101
(
5.076648946e-26
-1.367224228e-17
7.749161682e-16
9.587548177e-15
5.827582581e-14
2.388135461e-13
7.629603081e-13
2.216365902e-12
5.811290141e-12
1.40056565e-11
3.104568431e-11
6.373169766e-11
1.208881548e-10
2.159058138e-10
3.634991784e-10
5.780713905e-10
8.741781501e-10
1.266818172e-09
1.761861667e-09
2.362843433e-09
3.071235457e-09
3.874847826e-09
4.757162095e-09
5.705296718e-09
6.702532052e-09
7.727993994e-09
8.760283605e-09
9.77984592e-09
1.076929862e-08
1.171422716e-08
1.26021953e-08
1.342289895e-08
1.41682041e-08
1.483211629e-08
1.541011026e-08
1.589823317e-08
1.629318057e-08
1.659213752e-08
1.679448798e-08
1.690206683e-08
1.691704982e-08
1.684094343e-08
1.66785201e-08
1.643222533e-08
1.610352023e-08
1.569568083e-08
1.520977002e-08
1.464944645e-08
1.401766446e-08
1.331970991e-08
1.255899714e-08
1.173930544e-08
1.086298849e-08
9.931842312e-09
8.947633847e-09
7.913626738e-09
6.834579789e-09
5.712746781e-09
4.553728215e-09
3.359956277e-09
2.134012305e-09
8.771345446e-10
-4.089099989e-10
-1.722375618e-09
-3.060501206e-09
-4.419262498e-09
-5.793229136e-09
-7.17800234e-09
-8.571620247e-09
-9.974674809e-09
-1.138704397e-08
-1.280674161e-08
-1.4229394e-08
-1.565117861e-08
-1.706953289e-08
-1.848355707e-08
-1.9890896e-08
-2.128971664e-08
-2.267667004e-08
-2.404782883e-08
-2.540189512e-08
-2.673835671e-08
-2.805230731e-08
-2.933511918e-08
-3.058148378e-08
-3.179570427e-08
-3.297219562e-08
-3.410870462e-08
-3.520760789e-08
-3.62713331e-08
-3.728256277e-08
-3.824282797e-08
-3.916194972e-08
-4.004490894e-08
-4.089464339e-08
-4.189908942e-08
-4.314703265e-08
-4.613689648e-08
-4.919631581e-08
-5.242627901e-08
-5.571923898e-08
)


101
(
5.075802287e-26
-2.252352158e-17
6.187211718e-16
8.50100541e-15
5.314121004e-14
2.192543425e-13
6.994415566e-13
2.02779008e-12
5.313923394e-12
1.281528658e-11
2.845876846e-11
5.855952815e-11
1.114290243e-10
1.99542593e-10
3.371130106e-10
5.383530405e-10
8.176445451e-10
1.189816375e-09
1.662909313e-09
2.240812623e-09
2.926751611e-09
3.712116112e-09
4.581865974e-09
5.523437922e-09
6.521337907e-09
7.556313318e-09
8.607863885e-09
9.656466928e-09
1.06840835e-08
1.167536385e-08
1.261684541e-08
1.349727294e-08
1.430756896e-08
1.504017883e-08
1.569017661e-08
1.625295763e-08
1.672477816e-08
1.71023596e-08
1.738399248e-08
1.756990342e-08
1.766087963e-08
1.765787014e-08
1.756536352e-08
1.738621466e-08
1.712208951e-08
1.677613078e-08
1.634916981e-08
1.584403114e-08
1.526267906e-08
1.460985649e-08
1.388920258e-08
1.310516111e-08
1.226077955e-08
1.135805967e-08
1.039845787e-08
9.384206738e-09
8.319318938e-09
7.205746798e-09
6.049482464e-09
4.853763016e-09
3.622029191e-09
2.355732222e-09
1.056514374e-09
-2.743224383e-10
-1.635061872e-09
-3.022719549e-09
-4.432674465e-09
-5.858753459e-09
-7.296807588e-09
-8.746200366e-09
-1.0207437e-08
-1.16804719e-08
-1.316243832e-08
-1.464896281e-08
-1.613611206e-08
-1.762173501e-08
-1.910372309e-08
-2.058085943e-08
-2.205112591e-08
-2.351040443e-08
-2.495468923e-08
-2.638398071e-08
-2.779653792e-08
-2.918363353e-08
-3.05359829e-08
-3.185571027e-08
-3.314322211e-08
-3.439134812e-08
-3.560005807e-08
-3.677865828e-08
-3.790812814e-08
-3.89855003e-08
-4.002030871e-08
-4.102163046e-08
-4.199060719e-08
-4.311941097e-08
-4.450212102e-08
-4.749906574e-08
-5.056607507e-08
-5.380694662e-08
-5.711020505e-08
)


101
(
5.075232631e-26
-3.01026371e-17
4.767068083e-16
7.50102915e-15
4.841489631e-14
2.013144953e-13
6.413768367e-13
1.855294217e-12
4.857448498e-12
1.171779204e-11
2.606112085e-11
5.374106471e-11
1.02562568e-10
1.841308612e-10
3.120855163e-10
5.003714517e-10
7.631583316e-10
1.115066341e-09
1.565794349e-09
2.119875706e-09
2.781942653e-09
3.546514729e-09
4.400527127e-09
5.332137109e-09
6.326878294e-09
7.366950654e-09
8.432926954e-09
9.505663276e-09
1.05668255e-08
1.160036058e-08
1.259185796e-08
1.352910738e-08
1.440213754e-08
1.520185822e-08
1.592287477e-08
1.655981463e-08
1.71083695e-08
1.756483864e-08
1.792678955e-08
1.819328237e-08
1.83637006e-08
1.843796937e-08
1.841972408e-08
1.831186693e-08
1.811644351e-08
1.783663548e-08
1.747329937e-08
1.702882058e-08
1.650427541e-08
1.590339694e-08
1.52294935e-08
1.448724607e-08
1.368042504e-08
1.281170653e-08
1.188266599e-08
1.089473776e-08
9.85137333e-09
8.753596388e-09
7.607146507e-09
6.415607963e-09
5.183595212e-09
3.912989354e-09
2.605797928e-09
1.263376153e-09
-1.132147049e-10
-1.522486845e-09
-2.961238681e-09
-4.4234192e-09
-5.902885268e-09
-7.396396817e-09
-8.903750222e-09
-1.042592963e-08
-1.196235983e-08
-1.350971698e-08
-1.506345464e-08
-1.661977946e-08
-1.817559713e-08
-1.972957903e-08
-2.1281011e-08
-2.282733625e-08
-2.436312304e-08
-2.588563988e-08
-2.73961832e-08
-2.888882304e-08
-3.035115727e-08
-3.177937128e-08
-3.317933136e-08
-3.454483568e-08
-3.587003305e-08
-3.716590922e-08
-3.84195382e-08
-3.962141222e-08
-4.077931825e-08
-4.190572661e-08
-4.300192041e-08
-4.426262858e-08
-4.578514484e-08
-4.878891351e-08
-5.186472387e-08
-5.512400855e-08
-5.84490515e-08
)


101
(
5.075361709e-26
-3.649602131e-17
3.479707614e-16
6.581387293e-15
4.406407599e-14
1.848593497e-13
5.883221654e-13
1.697664927e-12
4.439112701e-12
1.070763889e-11
2.384282397e-11
4.92607394e-11
9.426959612e-11
1.696481028e-10
2.88409558e-10
4.641577685e-10
7.108064385e-10
1.042734006e-09
1.470868494e-09
2.000537168e-09
2.63753209e-09
3.379069117e-09
4.214333518e-09
5.132594624e-09
6.120397155e-09
7.161244853e-09
8.236849368e-09
9.328685213e-09
1.041846404e-08
1.148972743e-08
1.252727657e-08
1.351797663e-08
1.445098183e-08
1.531570721e-08
1.610624962e-08
1.681642545e-08
1.744126126e-08
1.797655287e-08
1.841926434e-08
1.876764206e-08
1.902001659e-08
1.917514479e-08
1.923534141e-08
1.920297741e-08
1.908034609e-08
1.887083007e-08
1.857541103e-08
1.819633112e-08
1.773419939e-08
1.719162251e-08
1.657112574e-08
1.58772555e-08
1.511407895e-08
1.428486299e-08
1.339194634e-08
1.243650581e-08
1.142134524e-08
1.034668623e-08
9.217342178e-09
8.036842014e-09
6.810486892e-09
5.540921869e-09
4.230573923e-09
2.881475417e-09
1.494752604e-09
7.050265515e-11
-1.389519324e-09
-2.881009277e-09
-4.397069449e-09
-5.932113595e-09
-7.48364763e-09
-9.052215115e-09
-1.063865094e-08
-1.224200566e-08
-1.385886978e-08
-1.548466109e-08
-1.711400538e-08
-1.874441027e-08
-2.03756714e-08
-2.200726541e-08
-2.363488896e-08
-2.525257202e-08
-2.686087536e-08
-2.845840853e-08
-3.003388327e-08
-3.157576627e-08
-3.308930398e-08
-3.457535893e-08
-3.602420076e-08
-3.744112151e-08
-3.882347197e-08
-4.015697966e-08
-4.144577581e-08
-4.270394314e-08
-4.393492641e-08
-4.533440214e-08
-4.700276215e-08
-5.001861481e-08
-5.310922988e-08
-5.639470589e-08
-5.97409223e-08
)


101
(
5.075490763e-26
-4.178584561e-17
2.31672378e-16
5.736341793e-15
4.005845695e-14
1.697635803e-13
5.398610205e-13
1.55374724e-12
4.056243458e-12
9.779396505e-12
2.179408855e-11
4.510258316e-11
8.652935593e-11
1.560688063e-10
2.660710838e-10
4.297302807e-10
6.606592651e-10
9.729596954e-10
1.378444028e-09
1.883261862e-09
2.494201592e-09
3.210769645e-09
4.024486959e-09
4.926079995e-09
5.903215282e-09
6.940606101e-09
8.02110178e-09
9.126946204e-09
1.024017995e-08
1.134425868e-08
1.242343819e-08
1.346375225e-08
1.445347725e-08
1.538057664e-08
1.623862812e-08
1.702061708e-08
1.772087459e-08
1.83345881e-08
1.885806355e-08
1.928890762e-08
1.962478756e-08
1.986349054e-08
2.000579186e-08
2.005306191e-08
2.000733367e-08
1.987215335e-08
1.964879001e-08
1.933940082e-08
1.894450523e-08
1.846593387e-08
1.790528029e-08
1.726632418e-08
1.655313148e-08
1.576933093e-08
1.491794933e-08
1.400078431e-08
1.30199795e-08
1.197517449e-08
1.087013393e-08
9.707750966e-09
8.493327878e-09
7.230625533e-09
5.922355769e-09
4.571218846e-09
3.178769577e-09
1.745048862e-09
2.704973164e-10
-1.242785288e-09
-2.788882621e-09
-4.361505899e-09
-5.955141613e-09
-7.56844363e-09
-9.202052997e-09
-1.085679644e-08
-1.253194884e-08
-1.422425986e-08
-1.592692633e-08
-1.763450259e-08
-1.934502891e-08
-2.106040158e-08
-2.277902866e-08
-2.449393086e-08
-2.620184436e-08
-2.790346535e-08
-2.959268574e-08
-3.125382879e-08
-3.288457489e-08
-3.449292154e-08
-3.6071086e-08
-3.761562415e-08
-3.913100947e-08
-4.060268165e-08
-4.202843303e-08
-4.342583871e-08
-4.479892681e-08
-4.634402079e-08
-4.816442469e-08
-5.119931999e-08
-5.431335745e-08
-5.763556971e-08
-6.10342825e-08
)


101
(
5.075614155e-26
-4.60503363e-17
1.270283379e-16
4.960612192e-15
3.637017809e-14
1.559110372e-13
4.956032604e-13
1.422443871e-12
3.706265509e-12
8.927768722e-12
1.990527539e-11
4.125037289e-11
7.931977639e-11
1.433646181e-10
2.450487121e-10
3.970951761e-10
6.127700058e-10
9.058613301e-10
1.28878536e-09
1.768478314e-09
2.352591543e-09
3.042553722e-09
3.832186238e-09
4.71391415e-09
5.676717244e-09
6.706506764e-09
7.787241273e-09
8.902022283e-09
1.003340374e-08
1.116505346e-08
1.228098394e-08
1.336659143e-08
1.440932464e-08
1.539566495e-08
1.631867242e-08
1.717050642e-08
1.794482351e-08
1.863615374e-08
1.924002161e-08
1.975338099e-08
2.017347509e-08
2.04975011e-08
2.072479107e-08
2.085543808e-08
2.089065691e-08
2.083378733e-08
2.068649984e-08
2.045095054e-08
2.012757467e-08
1.971795378e-08
1.922300277e-08
1.864535966e-08
1.79884759e-08
1.725623e-08
1.645197861e-08
1.557829443e-08
1.463764431e-08
1.362905779e-08
1.255520768e-08
1.141797288e-08
1.022225106e-08
8.972451535e-09
7.671911783e-09
6.323604781e-09
4.929540558e-09
3.490770226e-09
2.006996448e-09
4.78699435e-10
-1.090528904e-09
-2.694969651e-09
-4.327377592e-09
-5.98395633e-09
-7.663477575e-09
-9.366794745e-09
-1.109544342e-08
-1.284957328e-08
-1.46237793e-08
-1.640909222e-08
-1.820038784e-08
-1.999894793e-08
-2.180659165e-08
-2.361929679e-08
-2.543018527e-08
-2.723705888e-08
-2.90396164e-08
-3.082379287e-08
-3.257777873e-08
-3.431059427e-08
-3.602244168e-08
-3.7702088e-08
-3.935433087e-08
-4.097165566e-08
-4.253960059e-08
-4.40833936e-08
-4.56062007e-08
-4.730350251e-08
-4.927968585e-08
-5.234278671e-08
-5.549084793e-08
-5.885929736e-08
-6.231613619e-08
)


101
(
5.075741328e-26
-4.936464161e-17
3.335481988e-17
4.249354861e-15
3.297377926e-14
1.431950707e-13
4.551865779e-13
1.302722248e-12
3.38670323e-12
8.147608435e-12
1.816695062e-11
3.768807887e-11
7.261800604e-11
1.315050234e-10
2.253149863e-10
3.662492477e-10
5.67176756e-10
8.415400211e-10
1.202123991e-09
1.656577539e-09
2.213301454e-09
2.875330932e-09
3.638630463e-09
4.497485511e-09
5.442375965e-09
6.460502289e-09
7.536922566e-09
8.655631301e-09
9.799801438e-09
1.095353749e-08
1.210092745e-08
1.32270007e-08
1.431853122e-08
1.536052684e-08
1.634543142e-08
1.726460442e-08
1.811106649e-08
1.88787006e-08
1.956218017e-08
2.01576811e-08
2.066206817e-08
2.107225171e-08
2.138645876e-08
2.160351205e-08
2.172343352e-08
2.174878209e-08
2.168140815e-08
2.152364489e-08
2.127591498e-08
2.09396406e-08
2.051538937e-08
2.000489661e-08
1.94106012e-08
1.873605812e-08
1.798478943e-08
1.715992726e-08
1.626462561e-08
1.529794672e-08
1.426176639e-08
1.315670257e-08
1.198674731e-08
1.075612518e-08
9.469107534e-09
8.128739834e-09
6.737625813e-09
5.297654009e-09
3.808759221e-09
2.270697456e-09
6.847646458e-10
-9.448695798e-10
-2.611203277e-09
-4.308777015e-09
-6.033592494e-09
-7.784895278e-09
-9.564286438e-09
-1.137509146e-08
-1.321617707e-08
-1.507862001e-08
-1.695295385e-08
-1.883611566e-08
-2.073165645e-08
-2.264112809e-08
-2.455724162e-08
-2.647272204e-08
-2.83891548e-08
-3.029826023e-08
-3.218206223e-08
-3.404330501e-08
-3.589187123e-08
-3.771362293e-08
-3.950694123e-08
-4.127669608e-08
-4.299447054e-08
-4.469060318e-08
-4.637098877e-08
-4.822616072e-08
-5.036256879e-08
-5.346420477e-08
-5.665742609e-08
-6.00767023e-08
-6.358287541e-08
)


101
(
5.075872281e-26
-5.180062131e-17
-5.007908488e-17
3.598114633e-15
2.984588113e-14
1.31517195e-13
4.182733487e-13
1.193609457e-12
3.095157696e-12
7.433815894e-12
1.656983202e-11
3.439978123e-11
6.640055843e-11
1.204570655e-10
2.068353803e-10
3.371751627e-10
5.238996276e-10
7.800708835e-10
1.118654355e-09
1.547909143e-09
2.076876804e-09
2.709932996e-09
3.444972851e-09
4.278191176e-09
5.20172543e-09
6.20420444e-09
7.271857873e-09
8.389583423e-09
9.541212796e-09
1.071140934e-08
1.188462619e-08
1.304586517e-08
1.418144966e-08
1.527502492e-08
1.631829686e-08
1.730176493e-08
1.821785672e-08
1.905989508e-08
1.982172353e-08
2.04986032e-08
2.108689369e-08
2.158334812e-08
2.198543156e-08
2.229099758e-08
2.249876033e-08
2.260999749e-08
2.262623803e-08
2.254995625e-08
2.238180964e-08
2.212294849e-08
2.177380264e-08
2.133555456e-08
2.080966979e-08
2.019885499e-08
1.950644596e-08
1.873597874e-08
1.789109821e-08
1.697150514e-08
1.597882577e-08
1.491251193e-08
1.377514131e-08
1.257038926e-08
1.130280952e-08
9.975855067e-09
8.592730819e-09
7.155417714e-09