/*--------------------------------*- C++ -*----------------------------------*\
| =========                 |                                                 |
| \\      /  F ield         | OpenFOAM: The Open Source CFD Toolbox           |
|  \\    /   O peration     | Version:  2.3.1                                 |
|   \\  /    A nd           | Web:      www.OpenFOAM.org                      |
|    \\/     M anipulation  |                                                 |
\*---------------------------------------------------------------------------*/
FoamFile
{
    version     2.0;
    format      ascii;
    class       dictionary;
    location    "constant";
    object      GRPSI30;
}
// * * * * * * * * * * * * * * * * * * * * * * * * * * * * * * * * * * * * * //

GRPSI30_table
101
(
101{0}
101{0}

101
(
0
0
0
0
0
0
0
0
0
0
0
0
0
0
0
0
0
0
0
0
0
0
0
0
0
0
0
0
0
0
0
0
0
0
0
0
0
0
0
0
0
0
0
0
0
0
0
0
0
0
0
0
0
0
0
0
0
0
0
0
0
0
0
0
0
0
0
0
0
0
0
0
0
0
0
0
0
0
0
0
0
0
0
0
0
0
0
0
0
0
0
0
0
0
0
-2.910383046e-11
0
0
0
0
0
)


101
(
0
0
0
0
0
0
0
0
0
0
0
0
0
0
0
0
0
0
0
0
0
0
0
0
0
0
0
0
0
0
0
0
0
0
0
0
0
0
0
0
0
0
0
0
0
0
0
0
0
0
0
0
0
0
0
0
0
0
0
0
0
0
0
0
0
0
0
0
0
0
0
0
0
0
0
0
0
0
0
0
0
0
0
0
0
0
0
0
0
0
0
0
0
0
0
-2.910383046e-11
0
0
0
0
0
)


101
(
0
0
0
0
0
0
0
0
0
0
0
0
0
0
0
0
0
0
0
0
0
0
0
0
0
0
0
0
0
0
0
0
0
0
0
0
0
0
0
0
0
0
0
0
0
0
0
0
0
0
0
0
0
0
0
0
0
0
0
0
0
0
0
0
0
0
0
0
0
0
0
0
0
0
0
0
0
0
0
0
0
0
0
0
0
0
0
0
0
0
0
0
0
0
-2.910383046e-11
-2.910383046e-11
0
0
0
0
0
)


101
(
0
0
0
0
0
0
0
0
0
0
0
0
0
0
0
0
0
0
0
0
0
0
0
0
0
0
0
0
0
0
0
0
0
0
0
0
0
0
0
0
0
0
0
0
0
0
0
0
0
0
0
0
0
0
0
0
0
0
0
0
0
0
0
0
0
0
0
0
0
0
0
0
0
0
0
0
0
0
0
0
0
0
0
0
0
0
0
0
0
0
0
0
0
0
-2.910383046e-11
-5.820766091e-11
0
0
0
0
0
)


101
(
0
0
0
0
0
0
0
0
0
0
0
0
0
0
0
0
0
0
0
0
0
0
0
0
0
0
0
0
0
0
0
0
0
0
0
0
0
0
0
0
0
0
0
0
0
0
0
0
0
0
0
0
0
0
0
0
0
0
0
0
0
0
0
0
0
0
0
0
0
0
0
0
0
0
0
0
0
0
0
0
0
0
0
0
0
0
0
0
0
0
0
0
0
0
-2.910383046e-11
-8.731149137e-11
0
0
0
0
0
)


101
(
0
2.328306437e-10
2.328306437e-10
0
0
0
0
0
0
0
0
0
0
0
0
0
0
0
0
0
0
0
0
0
0
0
0
0
0
0
0
0
0
0
0
0
0
0
0
0
0
0
0
0
0
0
0
0
0
0
0
0
0
0
0
0
0
0
0
0
0
0
0
0
0
0
0
0
0
0
0
0
0
0
0
0
0
0
0
0
0
0
0
0
0
0
0
0
0
0
0
0
0
0
-8.731149137e-11
-1.164153218e-10
0
0
0
2.910383046e-11
0
)


101
(
0
2.328306437e-10
2.328306437e-10
0
0
0
0
0
0
0
0
0
0
0
0
0
0
0
0
0
0
0
0
0
0
0
0
0
0
0
0
0
0
0
0
0
0
0
0
0
0
0
0
0
0
0
0
0
0
0
0
0
0
0
0
0
0
0
0
0
0
0
0
0
0
0
0
0
0
0
0
0
0
0
0
0
0
0
0
0
0
0
0
0
0
0
0
0
0
0
0
0
0
0
-8.731149137e-11
-1.164153218e-10
0
1.455191523e-11
1.455191523e-11
1.164153218e-10
0
)


101
(
0
0
0
2.328306437e-10
0
0
0
0
0
0
0
0
0
0
0
0
0
0
0
0
0
0
0
0
0
0
0
0
0
0
0
0
0
0
0
0
0
0
0
0
0
0
0
0
0
0
0
0
0
0
0
0
0
0
0
0
0
0
0
0
0
0
0
0
0
0
0
0
0
0
0
0
0
-5.820766091e-11
0
0
0
0
0
0
0
0
0
0
0
0
0
0
0
0
0
0
0
0
-8.731149137e-11
-1.455191523e-10
0
7.275957614e-11
7.275957614e-11
1.746229827e-10
0
)


101
(
0
0
0
2.328306437e-10
0
0
0
0
0
0
0
0
0
0
0
0
0
0
0
0
0
0
0
0
0
0
0
0
0
0
0
0
0
0
0
0
0
0
0
0
0
0
0
0
0
0
0
0
0
0
0
0
0
0
0
0
0
0
0
0
0
0
0
0
0
0
0
0
0
0
0
0
0
-5.820766091e-11
-5.820766091e-11
0
0
0
0
0
0
0
0
0
0
0
0
0
0
0
0
0
0
0
-1.164153218e-10
-1.746229827e-10
0
1.164153218e-10
4.365574569e-11
1.89174898e-10
0
)


101
(
0
0
0
0
0
0
0
0
0
0
0
0
0
0
0
0
0
0
0
0
0
0
0
0
0
0
0
0
0
0
0
0
0
0
0
0
0
0
0
0
0
0
0
0
0
0
0
0
0
0
0
0
0
0
0
0
0
0
0
0
0
0
0
0
0
0
0
0
0
5.820766091e-11
5.820766091e-11
0
0
0
-5.820766091e-11
0
0
0
0
0
0
0
0
0
0
0
0
0
0
0
0
0
0
0
-1.455191523e-10
-2.037268132e-10
0
1.746229827e-10
4.365574569e-11
2.473825589e-10
0
)


101
(
0
2.328306437e-10
0
0
0
0
0
0
0
0
0
0
0
0
0
0
0
0
0
0
0
0
0
0
0
0
0
0
0
0
0
0
0
0
0
0
0
0
0
0
0
0
0
0
0
0
0
0
0
0
0
0
0
0
0
0
0
0
0
0
0
0
0
0
0
0
0
0
0
5.820766091e-11
5.820766091e-11
0
0
0
0
0
5.820766091e-11
0
0
0
5.820766091e-11
0
0
0
0
0
0
2.910383046e-11
0
2.910383046e-11
2.910383046e-11
0
0
0
-1.746229827e-10
-2.328306437e-10
4.365574569e-11
3.492459655e-10
2.037268132e-10
3.637978807e-10
0
)


101
(
0
2.328306437e-10
0
0
0
0
0
0
0
0
0
0
0
0
0
0
0
0
0
0
0
0
0
0
0
0
0
0
0
0
0
0
0
0
0
0
0
0
0
0
0
0
0
0
0
0
0
0
0
0
0
0
0
0
0
0
0
0
0
0
0
0
0
0
0
0
0
1.164153218e-10
1.164153218e-10
0
0
0
0
0
0
5.820766091e-11
5.820766091e-11
0
0
0
5.820766091e-11
0
0
5.820766091e-11
5.820766091e-11
0
0
2.910383046e-11
2.910383046e-11
2.910383046e-11
2.910383046e-11
0
2.910383046e-11
2.910383046e-11
-2.037268132e-10
-2.328306437e-10
1.164153218e-10
3.783497959e-10
1.309672371e-10
3.346940503e-10
0
)


101
(
0
0
2.328306437e-10
0
0
0
0
0
0
0
0
0
0
0
0
0
0
0
0
0
0
0
0
0
0
0
0
0
0
0
0
0
0
0
0
0
0
0
0
0
0
0
0
0
0
0
0
0
0
0
0
0
0
0
0
0
0
0
0
0
0
0
0
0
0
0
0
0
1.164153218e-10
0
0
5.820766091e-11
0
0
0
5.820766091e-11
5.820766091e-11
5.820766091e-11
0
0
0
5.820766091e-11
0
5.820766091e-11
5.820766091e-11
0
0
2.910383046e-11
2.910383046e-11
0
2.910383046e-11
2.910383046e-11
2.910383046e-11
2.910383046e-11
-2.328306437e-10
-2.910383046e-10
4.365574569e-11
2.619344741e-10
-1.455191523e-11
4.365574569e-11
0
)


101
(
0
0
2.328306437e-10
0
0
0
0
0
0
0
0
0
0
0
0
0
0
0
0
0
0
0
0
0
0
0
0
0
0
0
0
0
0
0
0
0
0
0
0
0
0
0
0
0
0
0
0
0
0
0
0
0
0
0
0
0
0
0
0
1.164153218e-10
0
0
0
0
0
0
0
-1.164153218e-10
0
5.820766091e-11
0
5.820766091e-11
-5.820766091e-11
-5.820766091e-11
0
0
5.820766091e-11
5.820766091e-11
0
0
5.820766091e-11
5.820766091e-11
0
0
5.820766091e-11
5.820766091e-11
0
2.910383046e-11
2.910383046e-11
0
5.820766091e-11
2.910383046e-11
0
0
-2.619344741e-10
-3.492459655e-10
1.455191523e-11
1.600710675e-10
-1.455191523e-11
-2.328306437e-10
0
)


101
(
0
2.328306437e-10
0
0
0
0
0
0
0
0
0
0
0
0
0
0
0
0
0
0
0
0
0
0
0
0
0
0
0
0
0
0
0
0
0
0
0
0
0
0
0
0
0
0
0
0
0
0
0
0
0
0
0
0
0
0
0
0
0
1.164153218e-10
1.164153218e-10
0
0
0
0
0
0
0
0
5.820766091e-11
5.820766091e-11
0
-5.820766091e-11
-5.820766091e-11
-5.820766091e-11
-5.820766091e-11
0
5.820766091e-11
0
0
5.820766091e-11
0
5.820766091e-11
0
5.820766091e-11
1.164153218e-10
5.820766091e-11
-2.910383046e-11
5.820766091e-11
2.910383046e-11
2.910383046e-11
2.910383046e-11
0
0
-3.20142135e-10
-4.074536264e-10
-2.910383046e-11
-4.365574569e-11
-2.910383046e-11
-3.492459655e-10
0
)


101
(
0
2.328306437e-10
0
0
2.328306437e-10
0
0
0
0
0
0
0
0
0
0
0
0
0
0
0
0
0
0
0
0
0
0
0
0
0
0
0
0
0
0
0
0
0
1.164153218e-10
1.164153218e-10
0
0
0
0
0
0
0
0
0
0
0
0
0
0
0
0
0
0
0
0
1.164153218e-10
1.164153218e-10
0
0
0
0
0
0
0
0
5.820766091e-11
0
0
-5.820766091e-11
-1.164153218e-10
-1.164153218e-10
-5.820766091e-11
5.820766091e-11
5.820766091e-11
5.820766091e-11
0
0
5.820766091e-11
0
-5.820766091e-11
5.820766091e-11
5.820766091e-11
-5.820766091e-11
2.910383046e-11
2.910383046e-11
-2.910383046e-11
2.910383046e-11
0
0
-4.074536264e-10
-4.656612873e-10
-1.309672371e-10
-2.764863893e-10
-7.275957614e-11
-3.637978807e-10
0
)


101
(
0
0
0
0
2.328306437e-10
0
0
0
0
0
0
0
0
0
0
0
0
0
0
0
0
0
0
0
0
0
0
0
0
0
0
0
0
0
0
0
0
0
1.164153218e-10
1.164153218e-10
1.164153218e-10
0
0
0
0
0
0
0
0
0
0
0
0
0
0
0
0
0
0
-1.164153218e-10
-1.164153218e-10
1.164153218e-10
1.164153218e-10
0
0
0
0
0
0
0
0
0
0
-5.820766091e-11
-1.164153218e-10
-1.164153218e-10
-1.164153218e-10
-5.820766091e-11
5.820766091e-11
5.820766091e-11
0
-5.820766091e-11
0
0
-1.164153218e-10
-5.820766091e-11
5.820766091e-11
-8.731149137e-11
-2.910383046e-11
0
-8.731149137e-11
0
-2.910383046e-11
-2.910383046e-11
-4.947651178e-10
-5.238689482e-10
-1.018634066e-10
-4.365574569e-10
-1.309672371e-10
-3.055902198e-10
0
)


101
(
0
2.328306437e-10
2.328306437e-10
2.328306437e-10
0
0
0
0
0
0
0
0
0
0
0
0
0
0
0
0
0
0
0
0
0
0
0
0
0
0
0
0
0
0
0
0
0
0
0
0
1.164153218e-10
1.164153218e-10
0
0
0
0
0
1.164153218e-10
1.164153218e-10
0
0
0
0
0
0
1.164153218e-10
1.164153218e-10
0
0
-1.164153218e-10
-1.164153218e-10
-1.164153218e-10
1.164153218e-10
1.164153218e-10
0
0
0
0
0
0
0
0
0
0
0
-5.820766091e-11
-1.164153218e-10
-1.164153218e-10
0
5.820766091e-11
5.820766091e-11
-5.820766091e-11
-5.820766091e-11
0
-5.820766091e-11
-1.164153218e-10
5.820766091e-11
-5.820766091e-11
-8.731149137e-11
0
-8.731149137e-11
-5.820766091e-11
-5.820766091e-11
-8.731149137e-11
-5.238689482e-10
-5.820766091e-10
-4.365574569e-11
-4.074536264e-10
-1.164153218e-10
-1.746229827e-10
0
)


101
(
0
2.328306437e-10
2.328306437e-10
2.328306437e-10
0
0
0
0
0
0
0
0
0
0
0
0
0
0
0
0
0
0
0
0
0
0
0
0
0
0
0
0
0
0
0
0
0
0
0
0
0
1.164153218e-10
0
0
-1.164153218e-10
0
0
1.164153218e-10
1.164153218e-10
1.164153218e-10
0
0
0
0
0
1.164153218e-10
1.164153218e-10
1.164153218e-10
0
0
0
-1.164153218e-10
0
1.164153218e-10
1.164153218e-10
0
0
0
0
0
0
0
0
5.820766091e-11
1.164153218e-10
5.820766091e-11
-5.820766091e-11
-1.164153218e-10
-1.164153218e-10
5.820766091e-11
1.746229827e-10
0
-1.164153218e-10
0
0
-1.164153218e-10
0
0
-1.455191523e-10
0
-5.820766091e-11
-5.820766091e-11
-1.164153218e-10
-8.731149137e-11
-5.529727787e-10
-5.820766091e-10
4.365574569e-11
-2.328306437e-10
-2.910383046e-11
0
0
)


101
(
0
2.328306437e-10
0
0
0
0
0
0
0
0
0
0
0
0
0
0
0
0
0
0
0
0
0
0
0
0
0
0
0
0
0
0
0
0
0
0
0
0
0
0
0
0
1.164153218e-10
0
-1.164153218e-10
-1.164153218e-10
0
-1.164153218e-10
0
1.164153218e-10
1.164153218e-10
0
0
0
0
0
0
1.164153218e-10
1.164153218e-10
0
0
0
-1.164153218e-10
0
1.164153218e-10
1.164153218e-10
1.164153218e-10
0
0
0
0
-5.820766091e-11
-5.820766091e-11
0
1.164153218e-10
1.746229827e-10
1.164153218e-10
-5.820766091e-11
-1.746229827e-10
-1.164153218e-10
1.164153218e-10
5.820766091e-11
-1.164153218e-10
-5.820766091e-11
5.820766091e-11
-5.820766091e-11
-5.820766091e-11
5.820766091e-11
-1.746229827e-10
0
-2.910383046e-11
2.910383046e-11
-1.455191523e-10
-5.820766091e-11
-6.111804396e-10
-5.820766091e-10
8.731149137e-11
-7.275957614e-11
2.910383046e-11
1.455191523e-10
0
)


101
(
0
2.328306437e-10
0
0
0
0
0
0
0
0
0
0
0
0
0
0
0
0
0
0
0
0
0
0
0
0
0
0
0
0
0
0
0
1.164153218e-10
1.164153218e-10
1.164153218e-10
0
0
0
0
0
0
1.164153218e-10
0
1.164153218e-10
-1.164153218e-10
-1.164153218e-10
-1.164153218e-10
0
0
1.164153218e-10
0
0
0
0
-1.164153218e-10
0
0
1.164153218e-10
0
0
0
-1.164153218e-10
-1.164153218e-10
0
1.164153218e-10
1.164153218e-10
1.164153218e-10
0
0
-5.820766091e-11
-5.820766091e-11
-1.746229827e-10
-1.746229827e-10
0
2.328306437e-10
2.910383046e-10
1.164153218e-10
0
-1.164153218e-10
0
1.164153218e-10
-1.164153218e-10
-1.746229827e-10
1.164153218e-10
5.820766091e-11
-5.820766091e-11
1.455191523e-10
-1.455191523e-10
-2.910383046e-11
2.910383046e-11
8.731149137e-11
-8.731149137e-11
-2.910383046e-11
-6.111804396e-10
-5.820766091e-10
1.018634066e-10
7.275957614e-11
4.365574569e-11
2.619344741e-10
0
)


101
(
0
0
2.328306437e-10
0
0
0
0
0
0
0
0
0
0
0
0
0
0
0
0
0
0
0
0
0
0
0
0
0
0
0
0
0
0
0
1.164153218e-10
1.164153218e-10
1.164153218e-10
1.164153218e-10
0
0
0
0
0
1.164153218e-10
1.164153218e-10
1.164153218e-10
-1.164153218e-10
-1.164153218e-10
-1.164153218e-10
0
0
1.164153218e-10
0
0
0
-1.164153218e-10
0
1.164153218e-10
1.164153218e-10
1.164153218e-10
0
0
0
-1.164153218e-10
0
0
0
1.164153218e-10
0
-5.820766091e-11
-5.820766091e-11
-5.820766091e-11
-1.746229827e-10
-2.328306437e-10
-1.746229827e-10
1.746229827e-10
2.910383046e-10
2.328306437e-10
1.164153218e-10
5.820766091e-11
0
5.820766091e-11
-5.820766091e-11
-1.746229827e-10
0
2.328306437e-10
0
1.455191523e-10
-5.820766091e-11
-2.910383046e-11
2.910383046e-11
1.164153218e-10
-2.910383046e-11
2.910383046e-11
-5.529727787e-10
-5.529727787e-10
1.164153218e-10
1.746229827e-10
8.731149137e-11
2.764863893e-10
0
)


101
(
0
2.328306437e-10
2.328306437e-10
0
0
0
0
0
0
0
0
0
0
0
0
0
0
0
0
0
0
0
0
0
0
0
0
0
0
0
0
0
0
-1.164153218e-10
0
0
1.164153218e-10
1.164153218e-10
0
0
0
0
0
1.164153218e-10
1.164153218e-10
1.164153218e-10
0
-1.164153218e-10
-1.164153218e-10
0
1.164153218e-10
1.164153218e-10
1.164153218e-10
0
-1.164153218e-10
-1.164153218e-10
-1.164153218e-10
0
1.164153218e-10
2.328306437e-10
1.164153218e-10
0
0
0
-1.164153218e-10
0
0
0
-1.164153218e-10
-5.820766091e-11
0
-5.820766091e-11
-1.164153218e-10
-2.910383046e-10
-2.910383046e-10
-5.820766091e-11
1.746229827e-10
1.746229827e-10
1.746229827e-10
1.164153218e-10
5.820766091e-11
0
0
-1.746229827e-10
-1.164153218e-10
3.492459655e-10
5.820766091e-11
5.820766091e-11
5.820766091e-11
-2.910383046e-11
2.910383046e-11
5.820766091e-11
2.910383046e-11
2.910383046e-11
-5.238689482e-10
-5.529727787e-10
7.275957614e-11
2.473825589e-10
1.89174898e-10
2.328306437e-10
0
)


101
(
0
2.328306437e-10
0
0
0
0
0
0
0
0
0
0
0
0
0
0
0
0
0
0
0
0
0
0
0
0
0
0
0
0
0
0
0
0
0
0
0
0
0
0
0
0
0
0
1.164153218e-10
1.164153218e-10
1.164153218e-10
0
-1.164153218e-10
-1.164153218e-10
0
1.164153218e-10
1.164153218e-10
0
-1.164153218e-10
-1.164153218e-10
-2.328306437e-10
-1.164153218e-10
0
2.328306437e-10
2.328306437e-10
1.164153218e-10
0
0
-1.164153218e-10
-1.164153218e-10
0
0
-1.164153218e-10
0
0
0
-5.820766091e-11
-2.328306437e-10
-2.910383046e-10
-2.910383046e-10
-5.820766091e-11
0
5.820766091e-11
5.820766091e-11
1.164153218e-10
5.820766091e-11
5.820766091e-11
-1.164153218e-10
-1.746229827e-10
3.492459655e-10
1.164153218e-10
-8.731149137e-11
1.164153218e-10
-5.820766091e-11
2.910383046e-11
-1.164153218e-10
8.731149137e-11
-2.910383046e-11
-5.238689482e-10
-6.111804396e-10
8.731149137e-11
2.764863893e-10
3.055902198e-10
2.182787284e-10
0
)


101
(
0
2.328306437e-10
0
2.328306437e-10
0
0
0
0
0
0
0
0
0
0
0
0
0
0
0
0
0
0
0
0
0
0
0
0
0
0
0
0
0
0
-1.164153218e-10
0
0
0
0
0
0
0
-1.164153218e-10
0
0
1.164153218e-10
2.328306437e-10
1.164153218e-10
-1.164153218e-10
-2.328306437e-10
-1.164153218e-10
1.164153218e-10
1.164153218e-10
1.164153218e-10
0
-1.164153218e-10
-2.328306437e-10
-1.164153218e-10
0
1.164153218e-10
2.328306437e-10
2.328306437e-10
0
-1.164153218e-10
-1.164153218e-10
-1.164153218e-10
-1.164153218e-10
0
0
-5.820766091e-11
-5.820766091e-11
0
5.820766091e-11
-5.820766091e-11
-1.746229827e-10
-2.910383046e-10
-2.328306437e-10
-1.746229827e-10
-2.328306437e-10
-5.820766091e-11
0
5.820766091e-11
5.820766091e-11
0
-1.746229827e-10
2.328306437e-10
1.164153218e-10
-3.20142135e-10
1.164153218e-10
-8.731149137e-11
0
-2.910383046e-10
8.731149137e-11
-1.164153218e-10
-6.111804396e-10
-6.111804396e-10
1.455191523e-11
2.182787284e-10
3.492459655e-10
8.731149137e-11
0
)


101
(
0
2.328306437e-10
2.328306437e-10
2.328306437e-10
0
0
0
0
0
0
0
0
0
0
0
0
0
0
0
0
0
0
0
0
0
0
0
0
0
0
0
0
1.164153218e-10
0
-1.164153218e-10
0
0
0
0
0
0
0
-1.164153218e-10
-1.164153218e-10
0
0
1.164153218e-10
2.328306437e-10
1.164153218e-10
-1.164153218e-10
-1.164153218e-10
-1.164153218e-10
2.328306437e-10
3.492459655e-10
2.328306437e-10
-1.164153218e-10
-1.164153218e-10
-2.328306437e-10
-1.164153218e-10
0
1.164153218e-10
1.164153218e-10
1.164153218e-10
0
-1.164153218e-10
-1.164153218e-10
-1.164153218e-10
-1.164153218e-10
0
-1.164153218e-10
-1.164153218e-10
0
5.820766091e-11
0
-5.820766091e-11
-1.164153218e-10
-1.746229827e-10
-2.328306437e-10
-3.492459655e-10
-3.492459655e-10
-2.328306437e-10
-1.164153218e-10
0
5.820766091e-11
-1.164153218e-10
5.820766091e-11
5.820766091e-11
-5.238689482e-10
2.910383046e-11
-1.455191523e-10
-5.820766091e-11
-4.074536264e-10
5.820766091e-11
-2.328306437e-10
-8.149072528e-10
-6.111804396e-10
-5.820766091e-11
1.018634066e-10
3.346940503e-10
-1.018634066e-10
0
)


101
(
0
2.328306437e-10
2.328306437e-10
0
0
0
0
0
0
0
0
0
0
0
0
0
0
0
0
0
0
0
0
0
0
0
0
0
0
0
0
0
1.164153218e-10
1.164153218e-10
0
0
0
0
1.164153218e-10
1.164153218e-10
0
0
0
-1.164153218e-10
-1.164153218e-10
0
0
2.328306437e-10
2.328306437e-10
0
-2.328306437e-10
-2.328306437e-10
0
3.492459655e-10
4.656612873e-10
2.328306437e-10
-1.164153218e-10
-3.492459655e-10
-2.328306437e-10
-1.164153218e-10
0
1.164153218e-10
2.328306437e-10
1.164153218e-10
0
-2.328306437e-10
-1.164153218e-10
-1.164153218e-10
1.164153218e-10
0
-1.164153218e-10
-5.820766091e-11
0
0
-5.820766091e-11
0
-5.820766091e-11
-1.746229827e-10
-2.910383046e-10
-5.238689482e-10
-5.238689482e-10
-3.492459655e-10
-5.820766091e-11
5.820766091e-11
-1.746229827e-10
-1.746229827e-10
-1.746229827e-10
-6.693881005e-10
-1.746229827e-10
-2.619344741e-10
-2.037268132e-10
-5.238689482e-10
0
-3.783497959e-10
-1.076841727e-09
-6.693881005e-10
4.802132025e-10
-4.365574569e-11
2.619344741e-10
-3.346940503e-10
0
)


101
(
0
2.328306437e-10
0
0
0
0
0
0
0
0
0
0
0
0
0
0
0
0
0
0
0
0
0
0
0
0
0
0
0
0
0
0
0
1.164153218e-10
1.164153218e-10
-1.164153218e-10
0
0
1.164153218e-10
1.164153218e-10
1.164153218e-10
0
0
0
-1.164153218e-10
0
1.164153218e-10
1.164153218e-10
2.328306437e-10
2.328306437e-10
-1.164153218e-10
-2.328306437e-10
-2.328306437e-10
1.164153218e-10
4.656612873e-10
5.820766091e-10
1.164153218e-10
-2.328306437e-10
-3.492459655e-10
-2.328306437e-10
0
1.164153218e-10
1.164153218e-10
1.164153218e-10
0
-1.164153218e-10
-2.328306437e-10
-1.164153218e-10
1.164153218e-10
5.820766091e-11
-1.164153218e-10
-1.746229827e-10
-5.820766091e-11
-5.820766091e-11
-1.746229827e-10
-1.164153218e-10
0
-1.164153218e-10
-2.328306437e-10
-4.074536264e-10
-6.98491931e-10
-5.820766091e-10
-2.910383046e-10
-1.164153218e-10
-2.910383046e-10
-5.820766091e-10
-5.238689482e-10
-8.731149137e-10
-4.656612873e-10
-4.656612873e-10
-4.947651178e-10
-6.4028427e-10
-1.455191523e-10
-6.111804396e-10
-1.396983862e-09
-6.98491931e-10
6.548361853e-10
-2.473825589e-10
1.164153218e-10
-7.712515071e-10
0
)


101
(
0
0
0
0
0
2.328306437e-10
0
0
0
0
0
0
0
0
0
0
0
0
0
0
0
0
0
0
0
0
0
0
0
0
0
0
0
0
1.164153218e-10
0
0
0
0
0
1.164153218e-10
0
1.164153218e-10
0
0
-1.164153218e-10
0
0
2.328306437e-10
3.492459655e-10
1.164153218e-10
-2.328306437e-10
-3.492459655e-10
-2.328306437e-10
2.328306437e-10
6.98491931e-10
6.98491931e-10
1.164153218e-10
-3.492459655e-10
-3.492459655e-10
-2.328306437e-10
-1.164153218e-10
0
2.328306437e-10
1.164153218e-10
0
-2.328306437e-10
-2.328306437e-10
-1.164153218e-10
5.820766091e-11
-1.164153218e-10
-2.910383046e-10
-1.746229827e-10
-1.164153218e-10
-2.328306437e-10
-2.910383046e-10
-1.746229827e-10
-1.164153218e-10
-1.746229827e-10
-3.492459655e-10
-6.4028427e-10
-6.98491931e-10
-5.820766091e-10
-4.656612873e-10
-5.238689482e-10
-9.895302355e-10
-9.313225746e-10
-1.047737896e-09
-8.440110832e-10
-7.858034223e-10
-9.022187442e-10
-7.858034223e-10
-4.365574569e-10
-9.022187442e-10
-1.746229827e-09
-7.566995919e-10
5.09317033e-10
-5.384208634e-10
-8.731149137e-11
-1.338776201e-09
0
)


101
(
0
2.328306437e-10
2.328306437e-10
0
2.328306437e-10
2.328306437e-10
0
0
0
0
0
0
0
0
0
0
0
0
0
0
0
0
0
0
0
0
0
0
0
0
0
0
0
0
0
1.164153218e-10
0
0
-1.164153218e-10
0
0
1.164153218e-10
1.164153218e-10
0
0
-1.164153218e-10
-1.164153218e-10
0
1.164153218e-10
2.328306437e-10
3.492459655e-10
0
-4.656612873e-10
-5.820766091e-10
-1.164153218e-10
5.820766091e-10
8.149072528e-10
4.656612873e-10
-1.164153218e-10
-4.656612873e-10
-3.492459655e-10
-1.164153218e-10
0
1.164153218e-10
2.328306437e-10
1.164153218e-10
-2.328306437e-10
-3.492459655e-10
-2.328306437e-10
5.820766091e-11
0
-2.910383046e-10
-2.910383046e-10
-1.746229827e-10
-2.910383046e-10
-4.074536264e-10
-4.074536264e-10
-2.910383046e-10
-2.910383046e-10
-3.492459655e-10
-5.820766091e-10
-6.98491931e-10
-6.98491931e-10
-7.566995919e-10
-8.149072528e-10
-1.28056854e-09
-1.338776201e-09
-1.222360879e-09
-1.309672371e-09
-1.164153218e-09
-1.367880031e-09
-9.895302355e-10
-1.018634066e-09
-1.338776201e-09
-1.979060471e-09
-9.022187442e-10
4.656612873e-10
-9.749783203e-10
-4.365574569e-10
-2.124579623e-09
0
)


101
(
0
2.328306437e-10
2.328306437e-10
0
2.328306437e-10
0
0
0
0
0
0
0
0
0
0
0
0
0
0
0
0
0
0
0
0
0
0
0
0
0
0
0
0
0
0
0
0
0
-1.164153218e-10
0
0
1.164153218e-10
0
0
0
0
0
0
0
2.328306437e-10
4.656612873e-10
3.492459655e-10
-1.164153218e-10
-5.820766091e-10
-4.656612873e-10
0
6.98491931e-10
9.313225746e-10
2.328306437e-10
-3.492459655e-10
-3.492459655e-10
-2.328306437e-10
-1.164153218e-10
0
2.328306437e-10
2.328306437e-10
-1.164153218e-10
-4.656612873e-10
-4.656612873e-10
-1.164153218e-10
0
-2.328306437e-10
-3.492459655e-10
-2.910383046e-10
-4.074536264e-10
-5.820766091e-10
-6.4028427e-10
-5.238689482e-10
-5.820766091e-10
-5.820766091e-10
-6.98491931e-10
-7.566995919e-10
-8.149072528e-10
-9.895302355e-10
-1.105945557e-09
-1.629814506e-09
-1.629814506e-09
-1.426087692e-09
-1.746229827e-09
-1.513399184e-09
-1.89174898e-09
-1.28056854e-09
-1.833541319e-09
-1.979060471e-09
-2.124579623e-09
-1.076841727e-09
4.365574569e-10
-1.644366421e-09
-1.062289812e-09
-3.186869435e-09
0
)


101
(
0
2.328306437e-10
0
2.328306437e-10
0
0
0
0
0
0
0
0
0
0
0
0
0
0
0
0
0
0
0
0
0
0
0
0
0
0
0
0
0
0
0
0
0
0
0
0
0
0
0
1.164153218e-10
0
0
-1.164153218e-10
-1.164153218e-10
0
2.328306437e-10
3.492459655e-10
4.656612873e-10
3.492459655e-10
-3.492459655e-10
-8.149072528e-10
-5.820766091e-10
2.328306437e-10
9.313225746e-10
8.149072528e-10
0
-4.656612873e-10
-4.656612873e-10
-3.492459655e-10
-1.164153218e-10
1.164153218e-10
1.164153218e-10
0
-4.656612873e-10
-6.98491931e-10
-4.656612873e-10
-1.746229827e-10
-1.746229827e-10
-3.492459655e-10
-4.074536264e-10
-5.238689482e-10
-7.566995919e-10
-8.731149137e-10
-7.566995919e-10
-8.149072528e-10
-9.895302355e-10
-9.895302355e-10
-8.731149137e-10
-9.895302355e-10
-1.28056854e-09
-1.513399184e-09
-1.92085281e-09
-1.862645149e-09
-1.571606845e-09
-2.095475793e-09
-1.979060471e-09
-2.357410267e-09
-1.571606845e-09
-2.793967724e-09
-2.764863893e-09
-2.328306437e-09
-1.367880031e-09
2.910383046e-10
-2.53203325e-09
-1.92085281e-09
-4.278263077e-09
0
)


101
(
0
2.328306437e-10
0
2.328306437e-10
0
0
0
0
0
0
0
0
0
0
0
0
0
0
0
0
0
0
0
0
0
0
0
0
0
0
0
0
0
0
0
0
0
0
1.164153218e-10
0
0
0
1.164153218e-10
1.164153218e-10
1.164153218e-10
0
0
-1.164153218e-10
-1.164153218e-10
0
2.328306437e-10
5.820766091e-10
5.820766091e-10
1.164153218e-10
-6.98491931e-10
-1.047737896e-09
-3.492459655e-10
4.656612873e-10
1.047737896e-09
4.656612873e-10
-3.492459655e-10
-5.820766091e-10
-4.656612873e-10
-3.492459655e-10
-1.164153218e-10
1.164153218e-10
1.164153218e-10
-2.328306437e-10
-6.98491931e-10
-8.149072528e-10
-4.074536264e-10
-2.910383046e-10
-3.492459655e-10
-4.074536264e-10
-5.238689482e-10
-8.149072528e-10
-1.047737896e-09
-9.895302355e-10
-9.313225746e-10
-1.28056854e-09
-1.396983862e-09
-1.222360879e-09
-1.222360879e-09
-1.513399184e-09
-1.862645149e-09
-2.211891115e-09
-2.095475793e-09
-1.688022166e-09
-2.386514097e-09
-2.56113708e-09
-2.764863893e-09
-1.746229827e-09
-3.783497959e-09
-3.696186468e-09
-2.502929419e-09
-1.862645149e-09
6.693881005e-10
-3.652530722e-09
-2.924934961e-09
-5.660695024e-09
0
)


101
(
0
2.328306437e-10
2.328306437e-10
0
0
0
0
0
0
0
0
0
0
0
0
0
0
0
0
0
0
0
0
0
0
0
0
0
0
0
0
0
0
0
1.164153218e-10
1.164153218e-10
1.164153218e-10
1.164153218e-10
1.164153218e-10
0
0
0
1.164153218e-10
0
1.164153218e-10
1.164153218e-10
1.164153218e-10
0
-1.164153218e-10
-2.328306437e-10
0
4.656612873e-10
6.98491931e-10
6.98491931e-10
-1.164153218e-10
-1.047737896e-09
-1.047737896e-09
0
8.149072528e-10
1.047737896e-09
1.164153218e-10
-5.820766091e-10
-5.820766091e-10
-4.656612873e-10
-4.656612873e-10
0
1.164153218e-10
0
-6.98491931e-10
-9.895302355e-10
-7.566995919e-10
-5.238689482e-10
-4.656612873e-10
-4.074536264e-10
-5.238689482e-10
-8.731149137e-10
-1.222360879e-09
-1.222360879e-09
-1.047737896e-09
-1.396983862e-09
-1.804437488e-09
-1.746229827e-09
-1.629814506e-09
-1.862645149e-09
-2.153683454e-09
-2.56113708e-09
-2.444721758e-09
-1.89174898e-09
-2.502929419e-09
-3.259629011e-09
-3.259629011e-09
-1.92085281e-09
-4.569301382e-09
-4.685716704e-09
-2.852175385e-09
-2.386514097e-09
-4.656612873e-10
-4.962203093e-09
-3.987224773e-09
-7.057678886e-09
0
)


101
(
0
0
2.328306437e-10
0
0
0
0
0
0
0
0
0
0
0
0
0
0
0
0
0
0
0
0
0
0
0
0
0
0
0
0
0
0
0
1.164153218e-10
1.164153218e-10
1.164153218e-10
1.164153218e-10
0
0
0
0
0
1.164153218e-10
0
1.164153218e-10
0
0
0
-1.164153218e-10
-2.328306437e-10
0
4.656612873e-10
8.149072528e-10
4.656612873e-10
-3.492459655e-10
-1.396983862e-09
-8.149072528e-10
2.328306437e-10
1.047737896e-09
6.98491931e-10
-2.328306437e-10
-6.98491931e-10
-6.98491931e-10
-5.820766091e-10
-3.492459655e-10
1.164153218e-10
0
-4.656612873e-10
-1.047737896e-09
-1.105945557e-09
-8.149072528e-10
-6.4028427e-10
-4.656612873e-10
-5.238689482e-10
-8.731149137e-10
-1.338776201e-09
-1.629814506e-09
-1.28056854e-09
-1.455191523e-09
-1.979060471e-09
-2.153683454e-09
-2.095475793e-09
-2.270098776e-09
-2.444721758e-09
-2.793967724e-09
-2.968590707e-09
-2.240994945e-09
-2.53203325e-09
-4.074536264e-09
-3.870809451e-09
-2.240994945e-09
-5.12227416e-09
-5.587935448e-09
-3.492459655e-09
-3.114109859e-09
-2.954038791e-09
-6.242771633e-09
-4.918547347e-09
-7.65430741e-09
0
)


101
(
0
0
0
0
0
0
0
0
0
0
0
0
0
0
0
0
0
0
0
0
0
0
0
0
0
0
0
0
0
0
0
0
0
0
0
0
0
0
0
0
0
0
0
1.164153218e-10
1.164153218e-10
1.164153218e-10
1.164153218e-10
1.164153218e-10
0
-1.164153218e-10
-2.328306437e-10
-2.328306437e-10
1.164153218e-10
6.98491931e-10
9.313225746e-10
3.492459655e-10
-8.149072528e-10
-1.513399184e-09
-4.656612873e-10
5.820766091e-10
1.164153218e-09
3.492459655e-10
-4.656612873e-10
-8.149072528e-10
-5.820766091e-10
-5.820766091e-10
-1.164153218e-10
0
-2.328306437e-10
-8.731149137e-10
-1.222360879e-09
-1.105945557e-09
-8.731149137e-10
-6.4028427e-10
-5.820766091e-10
-8.731149137e-10
-1.455191523e-09
-2.037268132e-09
-1.688022166e-09
-1.571606845e-09
-2.037268132e-09
-2.386514097e-09
-2.619344741e-09
-2.677552402e-09
-2.793967724e-09
-3.085006028e-09
-3.434251994e-09
-2.793967724e-09
-2.590240911e-09
-4.831235856e-09
-4.540197551e-09
-2.823071554e-09
-5.413312465e-09
-6.286427379e-09
-4.074536264e-09
-3.783497959e-09
-2.793967724e-09
-7.363269106e-09
-5.529727787e-09
-8.716597222e-09
0
)


101
(
0
4.656612873e-10
0
0
0
0
0
0
0
0
0
0
0
0
0
0
0
0
0
0
0
0
0
0
0
0
0
0
0
0
0
2.328306437e-10
0
0
0
0
0
0
0
1.164153218e-10
1.164153218e-10
0
0
0
1.164153218e-10
1.164153218e-10
2.328306437e-10
2.328306437e-10
0
0
-1.164153218e-10
-2.328306437e-10
-1.164153218e-10
3.492459655e-10
9.313225746e-10
9.313225746e-10
0
-1.396983862e-09
-1.28056854e-09
0
1.047737896e-09
9.313225746e-10
0
-6.98491931e-10
-8.149072528e-10
-8.149072528e-10
-5.820766091e-10
-1.164153218e-10
-1.164153218e-10
-5.238689482e-10
-1.105945557e-09
-1.338776201e-09
-1.28056854e-09
-9.895302355e-10
-7.566995919e-10
-8.731149137e-10
-1.571606845e-09
-2.386514097e-09
-2.270098776e-09
-1.862645149e-09
-2.037268132e-09
-2.56113708e-09
-3.085006028e-09
-3.259629011e-09
-3.143213689e-09
-3.259629011e-09
-3.899913281e-09
-3.579771146e-09
-2.764863893e-09
-5.384208634e-09
-5.209585652e-09
-3.870809451e-09
-5.587935448e-09
-6.722984836e-09
-4.569301382e-09
-4.220055416e-09
-4.714820534e-09
-8.192728274e-09
-5.617039278e-09
-8.862116374e-09
0
)


101
(
0
2.328306437e-10
0
0
0
0
0
0
0
0
0
0
0
0
0
0
0
0
0
0
0
0
0
0
0
0
0
0
0
0
2.328306437e-10
2.328306437e-10
0
0
0
0
0
0
1.164153218e-10
1.164153218e-10
1.164153218e-10
0
0
0
0
0
1.164153218e-10
1.164153218e-10
1.164153218e-10
1.164153218e-10
0
-2.328306437e-10
-3.492459655e-10
-2.328306437e-10
4.656612873e-10
9.313225746e-10
6.98491931e-10
-5.820766091e-10
-1.746229827e-09
-9.313225746e-10
3.492459655e-10
1.28056854e-09
4.656612873e-10
-4.656612873e-10
-9.313225746e-10
-9.313225746e-10
-9.313225746e-10
-3.492459655e-10
-1.164153218e-10
-2.910383046e-10
-8.149072528e-10
-1.338776201e-09
-1.513399184e-09
-1.455191523e-09
-1.105945557e-09
-9.895302355e-10
-1.629814506e-09
-2.735760063e-09
-3.026798368e-09
-2.502929419e-09
-2.153683454e-09
-2.502929419e-09
-3.434251994e-09
-3.899913281e-09
-3.492459655e-09
-3.259629011e-09
-4.190951586e-09
-4.48198989e-09
-3.143213689e-09
-5.646143109e-09
-5.7334546e-09
-5.267793313e-09
-5.791662261e-09
-6.752088666e-09
-5.180481821e-09
-4.685716704e-09
-5.471520126e-09
-8.760252967e-09
-5.748006515e-09
-9.036739357e-09
0
)


101
(
0
0
0
0
0
0
0
0
0
0
0
0
0
0
0
0
0
0
0
0
0
0
0
0
0
0
0
0
0
2.328306437e-10
2.328306437e-10
0
0
1.164153218e-10
0
0
0
0
1.164153218e-10
0
0
1.164153218e-10
0
0
0
0
0
1.164153218e-10
2.328306437e-10
0
0
-1.164153218e-10
-3.492459655e-10
-4.656612873e-10
-1.164153218e-10
5.820766091e-10
9.313225746e-10
2.328306437e-10
-1.164153218e-09
-1.746229827e-09
-3.492459655e-10
1.047737896e-09
1.164153218e-09
0
-8.149072528e-10
-1.047737896e-09
-9.313225746e-10
-6.98491931e-10
-2.328306437e-10
-1.746229827e-10
-4.656612873e-10
-1.047737896e-09
-1.629814506e-09
-1.862645149e-09
-1.688022166e-09
-1.28056854e-09
-1.688022166e-09
-2.968590707e-09
-3.725290298e-09
-3.434251994e-09
-2.735760063e-09
-2.444721758e-09
-3.608874977e-09
-4.423782229e-09
-3.958120942e-09
-3.259629011e-09
-4.190951586e-09
-5.355104804e-09
-3.754394129e-09
-5.529727787e-09
-5.995389074e-09
-6.810296327e-09
-5.937181413e-09
-6.431946531e-09
-6.024492905e-09
-4.540197551e-09
-4.103640094e-09
-8.993083611e-09
-5.675246939e-09
-9.793438949e-09
0
)


101
(
0
0
2.328306437e-10
0
0
0
0
0
0
0
0
0
0
0
0
0
0
0
0
0
0
0
0
0
0
0
0
0
0
2.328306437e-10
0
0
1.164153218e-10
1.164153218e-10
0
0
0
0
0
0
0
1.164153218e-10
1.164153218e-10
0
0
0
0
1.164153218e-10
2.328306437e-10
1.164153218e-10
0
0
-2.328306437e-10
-3.492459655e-10
-4.656612873e-10
1.164153218e-10
8.149072528e-10
8.149072528e-10
-2.328306437e-10
-1.746229827e-09
-1.513399184e-09
1.164153218e-10
1.513399184e-09
8.149072528e-10
-4.656612873e-10
-1.047737896e-09
-1.047737896e-09
-1.047737896e-09
-5.820766091e-10
-1.746229827e-10
-1.746229827e-10
-6.4028427e-10
-1.571606845e-09
-2.270098776e-09
-2.270098776e-09
-1.688022166e-09
-1.629814506e-09
-2.910383046e-09
-4.249159247e-09
-4.48198989e-09
-3.492459655e-09
-2.619344741e-09
-3.550667316e-09
-4.831235856e-09
-4.598405212e-09
-3.317836672e-09
-4.016328603e-09
-5.995389074e-09
-4.627509043e-09
-5.151377991e-09
-5.937181413e-09
-8.207280189e-09
-6.111804396e-09
-5.878973752e-09
-5.587935448e-09
-4.190951586e-09
-5.893525667e-09
-8.760252967e-09
-4.336470738e-09
-8.920324035e-09
0
)


101
(
0
2.328306437e-10
2.328306437e-10
0
0
0
0
0
0
0
0
0
0
0
0
0
0
0
0
0
0
0
0
0
0
0
0
0
0
0
0
0
1.164153218e-10
0
0
0
0
0
0
0
0
0
1.164153218e-10
0
0
0
0
0
1.164153218e-10
2.328306437e-10
1.164153218e-10
0
-1.164153218e-10
-2.328306437e-10
-3.492459655e-10
-3.492459655e-10
3.492459655e-10
1.047737896e-09
4.656612873e-10
-9.313225746e-10
-1.979060471e-09
-1.164153218e-09
6.98491931e-10
1.513399184e-09
2.328306437e-10
-9.313225746e-10