/*--------------------------------*- C++ -*----------------------------------*\
| =========                 |                                                 |
| \\      /  F ield         | OpenFOAM: The Open Source CFD Toolbox           |
|  \\    /   O peration     | Version:  2.3.1                                 |
|   \\  /    A nd           | Web:      www.OpenFOAM.org                      |
|    \\/     M anipulation  |                                                 |
\*---------------------------------------------------------------------------*/
FoamFile
{
    version     2.0;
    format      ascii;
    class       dictionary;
    location    "constant";
    object      GRPSI9;
}
// * * * * * * * * * * * * * * * * * * * * * * * * * * * * * * * * * * * * * //

GRPSI9_table
101
(

101
(
0.0001172082336
0.0001763584949
0.0002483736092
0.0002555806785
0.0002378483848
0.0002108269346
0.0001790308123
0.0001449769738
0.0001108341232
7.669935696e-05
4.281829577e-05
1.034411245e-05
-2.11064091e-05
-5.052199097e-05
-7.61155397e-05
-9.763532792e-05
-0.0001142618084
-0.0001248383175
-0.0001294930344
-0.0001290245831
-0.0001243803398
-0.0001161995851
-0.0001056527298
-9.446123051e-05
-8.318598842e-05
-7.232025845e-05
-6.228488073e-05
-5.315824769e-05
-4.507382301e-05
-3.811659906e-05
-3.220768337e-05
-2.743788487e-05
-2.297265471e-05
-1.910452779e-05
-1.626043805e-05
-1.271273326e-05
-8.878009782e-06
-8.603329869e-06
-9.186882109e-06
-7.779847359e-06
-6.712498588e-06
-5.816608337e-06
-5.001934975e-06
-4.356219023e-06
-3.793014986e-06
-3.297604894e-06
-2.873243751e-06
-2.502791166e-06
-2.187091709e-06
-1.911254232e-06
-1.67610731e-06
-1.467985115e-06
-1.28638833e-06
-1.128411598e-06
-9.919769856e-07
-8.642992888e-07
-7.552070254e-07
-6.620227948e-07
-5.763069425e-07
-5.031989045e-07
-4.3674716e-07
-3.800742804e-07
-3.292166478e-07
-2.825740486e-07
-2.429757154e-07
-2.088367633e-07
-1.777964353e-07
-1.502041519e-07
-1.264705584e-07
-1.058841937e-07
-8.792639777e-08
-7.247196038e-08
-5.907678192e-08
-4.304262245e-08
-3.138503186e-08
-3.005449435e-08
-2.689706432e-08
-2.070173392e-08
-1.592339205e-08
-1.207964393e-08
-8.836173363e-09
-6.348450207e-09
-4.067576e-09
-2.612031211e-09
-2.272705515e-09
-1.742823923e-09
-1.140330122e-09
-7.273413385e-10
-3.963679885e-10
-2.433705186e-10
-2.0712775e-10
-1.195629206e-10
-6.273116165e-11
-3.50274611e-11
-2.123721752e-11
-1.346059693e-11
-4.262133071e-12
8.81880504e-19
-3.461256294e-29
-2.309786783e-29
6.922512486e-29
)


101
(
0.0001154976979
0.0001739293911
0.0002454335994
0.000253171447
0.0002360650336
0.0002096911832
0.0001786345773
0.000145380888
0.0001120307397
7.874698776e-05
4.572920477e-05
1.400758835e-05
-1.665262511e-05
-4.547061809e-05
-7.084736915e-05
-9.238104193e-05
-0.0001093448196
-0.0001207597914
-0.0001264443398
-0.0001270866663
-0.0001236061965
-0.0001165000854
-0.0001068652167
-9.625387692e-05
-8.536179095e-05
-7.470955981e-05
-6.472691495e-05
-5.557145597e-05
-4.736861654e-05
-4.021574628e-05
-3.408651765e-05
-2.904291485e-05
-2.455068819e-05
-2.059201007e-05
-1.746845871e-05
-1.424060662e-05
-1.07399943e-05
-9.098187197e-06
-8.921745631e-06
-8.173504236e-06
-7.170745032e-06
-6.234332571e-06
-5.382855296e-06
-4.666170615e-06
-4.058330049e-06
-3.533006931e-06
-3.082319854e-06
-2.691549528e-06
-2.354301844e-06
-2.061176219e-06
-1.808078658e-06
-1.587354063e-06
-1.395630612e-06
-1.228424131e-06
-1.081010509e-06
-9.474099936e-07
-8.293534447e-07
-7.272681173e-07
-6.367392385e-07
-5.57497055e-07
-4.872375897e-07
-4.256297314e-07
-3.714075343e-07
-3.22674455e-07
-2.790254131e-07
-2.408430718e-07
-2.074983616e-07
-1.77916686e-07
-1.516732315e-07
-1.284472275e-07
-1.081815849e-07
-9.067291877e-08
-7.576545132e-08
-6.138273219e-08
-4.792320409e-08
-3.886593379e-08
-3.270475849e-08
-2.688428679e-08
-2.154216619e-08
-1.691991354e-08
-1.300459525e-08
-9.816835828e-09
-7.166038264e-09
-5.030478805e-09
-3.573546724e-09
-2.594226573e-09
-1.86770244e-09
-1.303942558e-09
-8.587070709e-10
-5.493989348e-10
-3.545664513e-10
-2.287990674e-10
-1.468764832e-10
-8.733048667e-11
-5.182395666e-11
-3.892965654e-11
-1.801664324e-11
5.773071954e-13
4.175209821e-12
7.387640639e-12
7.394877417e-12
)


101
(
0.0001137916795
0.0001715085592
0.0002425036955
0.0002507770236
0.0002343144705
0.0002086101149
0.0001783136521
0.0001458826739
0.0001133504483
8.093385772e-05
4.879359458e-05
1.78419809e-05
-1.203361886e-05
-4.023520923e-05
-6.535451862e-05
-8.688268693e-05
-0.0001041519477
-0.0001163395154
-0.0001230392322
-0.0001248000878
-0.0001225029737
-0.0001165092485
-0.0001078461761
-9.792459484e-05
-8.749388403e-05
-7.712036217e-05
-6.725292411e-05
-5.810549712e-05
-4.982024456e-05
-4.250317103e-05
-3.616339933e-05
-3.086249382e-05
-2.624112981e-05
-2.219725947e-05
-1.888602414e-05
-1.571522246e-05
-1.244684457e-05
-1.018144916e-05
-9.210189715e-06
-8.49226809e-06
-7.64048712e-06
-6.735248139e-06
-5.86013576e-06
-5.090472705e-06
-4.428143187e-06
-3.858520245e-06
-3.373134547e-06
-2.955527915e-06
-2.594331696e-06
-2.280111112e-06
-2.006799008e-06
-1.767761324e-06
-1.559336232e-06
-1.378416881e-06
-1.22000637e-06
-1.07825659e-06
-9.514068053e-07
-8.390395472e-07
-7.398399012e-07
-6.524574973e-07
-5.751008318e-07
-5.071802238e-07
-4.468575716e-07
-3.925758719e-07
-3.439251147e-07
-3.010205021e-07
-2.632430882e-07
-2.293988937e-07
-1.993200613e-07
-1.724352626e-07
-1.484269057e-07
-1.27010335e-07
-1.08347605e-07
-9.200422536e-08
-7.671682979e-08
-6.330429881e-08
-5.230789588e-08
-4.317681044e-08
-3.549413173e-08
-2.890687744e-08
-2.322407046e-08
-1.841665608e-08
-1.438807502e-08
-1.103582754e-08
-8.287483928e-09
-6.043241206e-09
-4.343714137e-09
-3.190222761e-09
-2.302874183e-09
-1.607940516e-09
-1.113815042e-09
-7.291320163e-10
-4.735814427e-10
-3.166717462e-10
-2.049541006e-10
-1.743498923e-10
-7.039955612e-11
4.1700866e-11
8.047336259e-11
1.134537453e-10
1.117204443e-10
)


101
(
0.0001120901862
0.0001690959002
0.0002395834628
0.0002483961796
0.0002325941774
0.0002075797087
0.0001780621704
0.0001464742038
0.000114782677
8.324821244e-05
5.199845472e-05
2.183307356e-05
-7.260902886e-06
-3.482943533e-05
-5.965072669e-05
-8.114626529e-05
-9.86857062e-05
-0.0001115818253
-0.0001192676434
-0.0001221455469
-0.0001210448418
-0.0001161969213
-0.000108559359
-9.942483799e-05
-8.954178388e-05
-7.951740734e-05
-6.983076651e-05
-6.073851454e-05
-5.241009234e-05
-4.496512709e-05
-3.843467062e-05
-3.289204127e-05
-2.808112973e-05
-2.391416479e-05
-2.049704532e-05
-1.727271255e-05
-1.408594484e-05
-1.156294287e-05
-9.978192258e-06
-8.982700384e-06
-8.145407957e-06
-7.284825196e-06
-6.41626774e-06
-5.614977274e-06
-4.899877101e-06
-4.277363452e-06
-3.746934412e-06
-3.294334685e-06
-2.905291067e-06
-2.567079855e-06
-2.271956806e-06
-2.011583758e-06
-1.783392052e-06
-1.584745172e-06
-1.410620818e-06
-1.257000634e-06
-1.120567023e-06
-9.973855715e-07
-8.87672517e-07
-7.903132449e-07
-7.032504767e-07
-6.265513823e-07
-5.583282917e-07
-4.970759526e-07
-4.422608126e-07
-3.931915392e-07
-3.494423682e-07
-3.095836341e-07
-2.7348132e-07
-2.41534789e-07
-2.128140571e-07
-1.86446775e-07
-1.626302253e-07
-1.418112271e-07
-1.228912899e-07
-1.05484059e-07
-8.978469851e-08
-7.582218343e-08
-6.359188933e-08
-5.301497988e-08
-4.40288757e-08
-3.633402709e-08
-2.965411558e-08
-2.394745112e-08
-1.905395363e-08
-1.483703008e-08
-1.114994393e-08
-8.294575429e-09
-6.324661642e-09
-4.736814031e-09
-3.398018745e-09
-2.325995716e-09
-1.597092236e-09
-1.120149406e-09
-7.828931609e-10
-7.121771357e-10
-1.963455346e-10
3.913502459e-10
7.069716014e-10
1.023534218e-09
1.057086681e-09
)


101
(
0.0001103932301
0.0001666913185
0.0002366724754
0.0002460277149
0.0002309016968
0.0002065960696
0.000177874528
0.0001471477826
0.0001163174512
8.567908201e-05
5.533169204e-05
2.596796426e-05
-2.345008813e-06
-2.926565574e-05
-5.374847775e-05
-7.517845178e-05
-9.294926388e-05
-0.0001064886055
-0.0001151198212
-0.0001191046845
-0.000119206236
-0.0001155300523
-0.0001089653564
-0.0001007036428
-9.145756088e-05
-8.186094986e-05
-7.242423926e-05
-6.344098144e-05
-5.511347097e-05
-4.758259646e-05
-4.089218296e-05
-3.513023506e-05
-3.009916801e-05
-2.575508179e-05
-2.216564243e-05
-1.892979302e-05
-1.582917707e-05
-1.311983952e-05
-1.111036962e-05
-9.757578505e-06
-8.776559801e-06
-7.900271908e-06
-7.038252926e-06
-6.223841995e-06
-5.469447923e-06
-4.794740751e-06
-4.212536781e-06
-3.715891484e-06
-3.291447676e-06
-2.92438804e-06
-2.605108736e-06
-2.321692049e-06
-2.070556288e-06
-1.850564006e-06
-1.658912789e-06
-1.48899109e-06
-1.338596507e-06
-1.203795751e-06
-1.082968819e-06
-9.749203213e-07
-8.761556472e-07
-7.883763822e-07
-7.098946703e-07
-6.39319626e-07
-5.772161018e-07
-5.21576925e-07
-4.704410144e-07
-4.231852711e-07
-3.797644762e-07
-3.41563532e-07
-3.073224291e-07
-2.750446917e-07
-2.449596013e-07
-2.17826099e-07
-1.934399824e-07
-1.711965137e-07
-1.502683081e-07
-1.306098493e-07
-1.127751988e-07
-9.65085553e-08
-8.227206181e-08
-6.993372899e-08
-5.894692917e-08
-4.936487482e-08
-4.094221874e-08
-3.348535712e-08
-2.669419906e-08
-2.056333031e-08
-1.589958468e-08
-1.253387197e-08
-9.639606463e-09
-7.099334556e-09
-5.012320345e-09
-3.494887137e-09
-2.598954473e-09
-2.398836441e-09
-2.253585141e-10
2.182942641e-09
3.660732588e-09
4.923913944e-09
4.849077541e-09
)


101
(
0.0001087008244
0.0001642947221
0.0002337703171
0.0002436704569
0.0002292346331
0.0002056554219
0.0001777454604
0.0001478963381
0.000117945727
8.821675381e-05
5.878331507e-05
3.023608172e-05
2.706053977e-06
-2.355246505e-05
-4.765751667e-05
-6.898384135e-05
-8.69432784e-05
-0.0001010607638
-0.0001105873409
-0.0001156587534
-0.0001169614951
-0.0001144766214
-0.0001090256692
-0.000101712795
-9.319186353e-05
-8.410589858e-05
-7.499374869e-05
-6.618053075e-05
-5.790303001e-05
-5.032628919e-05
-4.35172711e-05
-3.757255724e-05
-3.231453039e-05
-2.776414996e-05
-2.399465175e-05
-2.067863423e-05
-1.760821316e-05
-1.481472256e-05
-1.25135553e-05
-1.081574748e-05
-9.602995005e-06
-8.627758984e-06
-7.737531365e-06
-6.911003331e-06
-6.130685607e-06
-5.411366222e-06
-4.773880653e-06
-4.223210532e-06
-3.754973387e-06
-3.3543576e-06
-3.008525755e-06
-2.701041196e-06
-2.425142467e-06
-2.179838241e-06
-1.966260579e-06
-1.778047247e-06
-1.611595768e-06
-1.461638057e-06
-1.327428657e-06
-1.208781854e-06
-1.097666638e-06
-9.97144165e-07
-9.069682712e-07
-8.242975167e-07
-7.519700711e-07
-6.886150658e-07
-6.305267877e-07
-5.762809916e-07
-5.239178109e-07
-4.769071169e-07
-4.363243374e-07
-3.983045444e-07
-3.619734025e-07
-3.277014519e-07
-2.962287151e-07
-2.672020326e-07
-2.40160662e-07
-2.150057135e-07
-1.909785571e-07
-1.676947229e-07
-1.460670136e-07
-1.27208744e-07
-1.104497641e-07
-9.510514861e-08
-8.141362437e-08
-6.922107769e-08
-5.792557396e-08
-4.692734908e-08
-3.7251939e-08
-3.00024703e-08
-2.416959752e-08
-1.866181861e-08
-1.415647079e-08
-1.035040087e-08
-7.804480358e-09
-7.356993705e-09
-2.435385129e-10
8.16498962e-09
1.797913192e-08
2.683362927e-08
2.691020306e-08
)


101
(
0.0001070129874
0.0001619060245
0.0002308765819
0.0002413232593
0.0002275906479
0.0002047540939
0.0001776698766
0.0001487130887
0.0001196588122
9.085180757e-05
6.234374549e-05
3.46273025e-05
7.884331512e-06
-1.769804612e-05
-4.13875398e-05
-6.256817206e-05
-8.066947657e-05
-9.529968505e-05
-0.0001056639721
-0.0001117910551
-0.0001142862957
-0.0001130050676
-0.0001087013488
-0.0001024045379
-9.469395819e-05
-8.620317486e-05
-7.749478069e-05
-6.892030095e-05
-6.074891009e-05
-5.317353047e-05
-4.628489229e-05
-4.019522557e-05
-3.47276988e-05
-2.995653818e-05
-2.599150263e-05
-2.254893136e-05
-1.945369953e-05
-1.661214075e-05
-1.411975431e-05
-1.213124581e-05
-1.065689799e-05
-9.515068839e-06
-8.542934435e-06
-7.683353301e-06
-6.8792689e-06
-6.124129943e-06
-5.434296134e-06
-4.823663278e-06
-4.302411861e-06
-3.85958845e-06
-3.4820838e-06
-3.149488965e-06
-2.848750144e-06
-2.575861754e-06
-2.335997441e-06
-2.126418174e-06
-1.941851458e-06
-1.775731403e-06
-1.626327871e-06
-1.493317263e-06
-1.368568503e-06
-1.254954743e-06
-1.152722458e-06
-1.057573003e-06
-9.721071902e-07
-8.984061585e-07
-8.326414321e-07
-7.715480121e-07
-7.119610845e-07
-6.552491493e-07
-6.047557457e-07
-5.59526601e-07
-5.173959304e-07
-4.770106151e-07
-4.383655388e-07
-4.012016277e-07
-3.668223839e-07
-3.358009424e-07
-3.056583016e-07
-2.753447743e-07
-2.451834542e-07
-2.179832512e-07
-1.940287221e-07
-1.710831592e-07
-1.50208269e-07
-1.317647028e-07
-1.145141874e-07
-9.694662876e-08
-7.967713278e-08
-6.603228699e-08
-5.548259516e-08
-4.45884258e-08
-3.501475256e-08
-2.701143877e-08
-2.197783478e-08
-2.135098671e-08
4.917902314e-09
3.503802879e-08
6.914268352e-08
9.834532973e-08
9.699051518e-08
)


101
(
0.0001053297399
0.0001595251398
0.0002279908687
0.000238985029
0.0002259675902
0.0002038888208
0.0001776432809
0.0001495915227
0.0001214480989
9.357533465e-05
6.600401557e-05
3.913234983e-05
1.318230108e-05
-1.170987467e-05
-3.494744754e-05
-5.593867587e-05
-7.4131839e-05
-8.920792317e-05
-0.0001003458638
-0.0001074876238
-0.0001111584735
-0.000111087252
-0.0001079576424
-0.0001027349275
-9.591520356e-05
-8.810318943e-05
-7.987871931e-05
-7.161635697e-05
-6.361389992e-05
-5.609248519e-05
-4.916750792e-05
-4.297339752e-05
-3.732577093e-05
-3.233709208e-05
-2.81637872e-05
-2.455900295e-05
-2.139073846e-05
-1.850099379e-05
-1.588128147e-05
-1.366755192e-05
-1.194283576e-05
-1.059473539e-05
-9.4870849e-06
-8.557871826e-06
-7.716147778e-06
-6.927784216e-06
-6.193529493e-06
-5.524314597e-06
-4.94245531e-06
-4.447311973e-06
-4.030458304e-06
-3.667829359e-06
-3.340184038e-06
-3.040477671e-06
-2.77254303e-06
-2.535696967e-06
-2.329442183e-06
-2.14610059e-06
-1.981157536e-06
-1.834090834e-06
-1.694789864e-06
-1.566357779e-06
-1.449585394e-06
-1.340632353e-06
-1.241135199e-06
-1.154789357e-06
-1.078932395e-06
-1.009974731e-06
-9.441184733e-07
-8.787758098e-07
-8.185183939e-07
-7.647708343e-07
-7.157871575e-07
-6.696047753e-07
-6.248205203e-07
-5.799313376e-07
-5.367233824e-07
-4.981405165e-07
-4.622594324e-07
-4.268255426e-07
-3.894775342e-07
-3.523735696e-07
-3.198103472e-07
-2.887422248e-07
-2.586531755e-07
-2.322631805e-07
-2.082409619e-07
-1.82775766e-07
-1.560818664e-07
-1.327523908e-07
-1.151510169e-07
-9.730674323e-08
-7.881587558e-08
-6.389784019e-08
-5.423604841e-08
-5.397055061e-08
2.476981729e-08
1.167451595e-07
2.218097009e-07
3.112386138e-07
3.065609746e-07
)


101
(
0.000103651107
0.00015715199
0.0002251127887
0.0002366547057
0.0002243634327
0.0002030567033
0.0001776618571
0.0001505254803
0.0001233051094
9.63788154e-05
6.975607545e-05
4.37430779e-05
1.859319371e-05
-5.594856018e-06
-2.834588252e-05
-4.910324739e-05
-6.733624781e-05
-8.279024093e-05
-9.463232297e-05
-0.0001027376605
-0.0001075578622
-0.0001086971563
-0.0001067615816
-0.0001026602893
-9.68058962e-05
-8.97548224e-05
-8.209432622e-05
-7.42201203e-05
-6.645536496e-05
-5.904684779e-05
-5.213369479e-05
-4.587775212e-05
-4.00866072e-05
-3.490000409e-05
-3.051862595e-05
-2.672788433e-05
-2.344440515e-05
-2.048527945e-05
-1.776892717e-05
-1.538644407e-05
-1.344184711e-05
-1.187729506e-05
-1.059883636e-05
-9.560309209e-06
-8.653899282e-06
-7.822527454e-06
-7.046260351e-06
-6.322196082e-06
-5.677988469e-06
-5.125431295e-06
-4.660246889e-06
-4.258412315e-06
-3.902272186e-06
-3.575793847e-06
-3.276405743e-06
-3.009750612e-06
-2.778973446e-06
-2.573825674e-06
-2.39011447e-06
-2.227973759e-06
-2.074623121e-06
-1.933331163e-06
-1.802387505e-06
-1.677361822e-06
-1.56097211e-06
-1.457805369e-06
-1.369799709e-06
-1.293261742e-06
-1.223468339e-06
-1.152408798e-06
-1.08243128e-06
-1.016870695e-06
-9.573291433e-07
-9.064050096e-07
-8.580800294e-07
-8.073866364e-07
-7.561461063e-07
-7.090771534e-07
-6.673397886e-07
-6.271359694e-07
-5.842572849e-07
-5.380194263e-07
-4.961916765e-07
-4.574597813e-07
-4.192003723e-07
-3.826729237e-07
-3.504898758e-07
-3.178949138e-07
-2.802032048e-07
-2.463367894e-07
-2.200255889e-07
-1.912101683e-07
-1.59608457e-07
-1.352734401e-07
-1.183925904e-07
-1.233983478e-07
8.079187708e-08
3.235378695e-07
5.856004591e-07
8.246886558e-07
8.294019528e-07
)


101
(
0.0001019771152
0.0001547864972
0.0002222419696
0.0002343312605
0.0002227761645
0.0002022548707
0.0001777219861
0.0001515091591
0.0001252215984
9.92537817e-05
7.359201466e-05
4.845161294e-05
2.411029821e-05
6.402999525e-07
-2.159122539e-05
-4.207021263e-05
-6.028966266e-05
-7.605274664e-05
-8.852507524e-05
-9.753345179e-05
-0.0001034663109
-0.0001058101339
-0.000105081425
-0.0001021363569
-9.731256157e-05
-9.110320674e-05
-8.408980632e-05
-7.668377896e-05
-6.923078738e-05
-6.20007812e-05
-5.515387376e-05
-4.888085157e-05
-4.298496314e-05
-3.763216362e-05
-3.305664203e-05
-2.906448103e-05
-2.562832862e-05
-2.256961094e-05
-1.976398345e-05
-1.725615992e-05
-1.513528888e-05
-1.336466399e-05
-1.189338466e-05
-1.071034306e-05
-9.706676262e-06
-8.813205925e-06
-7.989493792e-06
-7.214637853e-06
-6.511960721e-06
-5.896791135e-06
-5.37235279e-06
-4.92213509e-06
-4.531481943e-06
-4.177420785e-06
-3.850916252e-06
-3.552340438e-06
-3.293024592e-06
-3.062907987e-06
-2.854235312e-06
-2.674766511e-06
-2.50676661e-06
-2.351759328e-06
-2.208127796e-06
-2.068942963e-06
-1.936910859e-06
-1.81517397e-06
-1.710639219e-06
-1.622977095e-06
-1.545844966e-06
-1.469787447e-06
-1.393220984e-06
-1.319825409e-06
-1.250775277e-06
-1.190462195e-06
-1.136859573e-06
-1.083981435e-06
-1.028130234e-06
-9.712604625e-07
-9.226257034e-07
-8.8107225e-07
-8.340691743e-07
-7.799274309e-07
-7.282839804e-07
-6.833121328e-07
-6.41394843e-07
-5.930179305e-07
-5.512220909e-07
-5.134424647e-07
-4.654884247e-07
-4.211469363e-07
-3.844209688e-07
-3.430737842e-07
-2.968904309e-07
-2.607724542e-07
-2.376750872e-07
-2.496718474e-07
2.184473441e-07
7.632662605e-07
1.283034156e-06
1.808943752e-06
1.871344965e-06
)


101
(
0.0001003078003
0.0001524285964
0.0002193780736
0.000232013753
0.0002212038773
0.0002014804409
0.0001778199262
0.0001525374296
0.0001271906877
0.000102192192
7.750330885e-05
5.324933064e-05
2.97261425e-05
6.988340103e-06
-1.46922331e-05
-3.484896024e-05
-5.300084553e-05
-6.900365711e-05
-8.20292459e-05
-9.187158551e-05
-9.886779681e-05
-0.0001023975749
-0.0001028826333
-0.0001011206005
-9.738149623e-05
-9.209160018e-05
-8.581136437e-05
-7.895790394e-05
-7.189485776e-05
-6.491415104e-05
-5.819618647e-05
-5.19581323e-05
-4.599675527e-05
-4.051129011e-05
-3.576643679e-05
-3.157133333e-05
-2.795449719e-05
-2.476586424e-05
-2.186318926e-05
-1.925238481e-05
-1.699418296e-05
-1.504149627e-05
-1.337260561e-05
-1.202037715e-05
-1.088723971e-05
-9.907146418e-06
-9.026742965e-06
-8.202713739e-06
-7.443530385e-06
-6.762532963e-06
-6.171485575e-06
-5.662469999e-06
-5.227798227e-06
-4.845783245e-06
-4.493271084e-06
-4.159815658e-06
-3.868742824e-06
-3.610795046e-06
-3.374336681e-06
-3.173582489e-06
-2.990845688e-06
-2.820926614e-06
-2.663768831e-06
-2.514246682e-06
-2.370751333e-06
-2.229534059e-06
-2.102630137e-06
-1.997541463e-06
-1.910041555e-06
-1.83092294e-06
-1.751492695e-06
-1.671043161e-06
-1.591536879e-06
-1.521418768e-06
-1.463118834e-06
-1.409673644e-06
-1.350452225e-06
-1.287128306e-06
-1.231649063e-06
-1.187162074e-06
-1.138806689e-06
-1.08070206e-06
-1.020295438e-06
-9.687481586e-07
-9.291064578e-07
-8.746341102e-07
-8.195526204e-07
-7.76268245e-07
-7.196038335e-07
-6.672298986e-07
-6.234066557e-07
-5.675648312e-07
-5.050787123e-07
-4.547974499e-07
-4.310468565e-07
-4.675923386e-07
4.970448628e-07
1.591487091e-06
2.419024402e-06
3.147097667e-06
3.136908473e-06
)


101
(
9.864319735e-05
0.0001500782209
0.0002165207629
0.0002297012545
0.0002196446929
0.0002007305832
0.0001779520378
0.0001536054379
0.0001292061133
0.0001051863237
8.148139985e-05
5.812753412e-05
3.543290232e-05
1.344190063e-05
-7.657543776e-06
-2.744947635e-05
-4.548019444e-05
-6.165279454e-05
-7.515162892e-05
-8.575199037e-05
-9.375112318e-05
-9.843397165e-05
-0.0001001320319
-9.9572521e-05
-9.696089329e-05
-9.266437827e-05
-8.720493747e-05
-8.09903064e-05
-7.439777928e-05
-6.774071439e-05
-6.121961679e-05
-5.507615578e-05
-4.909361694e-05
-4.351111778e-05
-3.862931505e-05
-3.424549527e-05
-3.043533012e-05
-2.708866121e-05
-2.406804827e-05
-2.135710423e-05
-1.898838946e-05
-1.688427357e-05
-1.502843253e-05
-1.349455641e-05
-1.22069846e-05
-1.111470677e-05
-1.016180494e-05
-9.283557406e-06
-8.468294674e-06
-7.722283091e-06
-7.062079112e-06
-6.485667714e-06
-5.996408455e-06
-5.577994044e-06
-5.192610801e-06
-4.8273335e-06
-4.507753685e-06
-4.220452896e-06
-3.952563788e-06
-3.722388389e-06
-3.521469252e-06
-3.337765159e-06
-3.168394375e-06
-3.0069634e-06
-2.852266453e-06
-2.699889272e-06
-2.551894946e-06
-2.42191717e-06
-2.318030164e-06
-2.230989277e-06
-2.149658032e-06
-2.067432594e-06
-1.981678124e-06
-1.901905312e-06
-1.835978339e-06
-1.779471634e-06
-1.717982048e-06
-1.654707323e-06
-1.59592727e-06
-1.544759342e-06
-1.496690729e-06
-1.438946239e-06
-1.371567885e-06
-1.314857683e-06
-1.281410767e-06
-1.22951841e-06
-1.159851709e-06
-1.105396352e-06
-1.050251864e-06
-9.961626776e-07
-9.410671757e-07
-8.736626899e-07
-7.986098422e-07
-7.303534812e-07
-7.057756031e-07
-7.761257287e-07
9.479137061e-07
2.879483687e-06
4.111969336e-06
5.237137276e-06
5.271292733e-06
)


101
(
9.69833475e-05
0.000147735314
0.0002136697136
0.0002273928509
0.0002180967384
0.0002000024333
0.0001781147215
0.000154708824
0.0001312621111
0.0001082283859
8.551774596e-05
6.307775617e-05
4.122259891e-05
1.999336303e-05
-4.959263535e-07
-1.98816174e-05
-3.773852142e-05
-5.401128978e-05
-6.790106797e-05
-7.917975178e-05
-8.811395456e-05
-9.390494942e-05
-9.680564595e-05
-9.746310073e-05
-9.601237769e-05
-9.276780804e-05
-8.820693048e-05
-8.271631377e-05
-7.667846131e-05
-7.04244571e-05
-6.417218e-05
-5.818722683e-05
-5.223684076e-05
-4.660151527e-05
-4.162190384e-05
-3.707678234e-05
-3.307768771e-05
-2.955331503e-05
-2.638442602e-05
-2.355869145e-05
-2.109360722e-05
-1.886779586e-05
-1.68476707e-05
-1.513457287e-05
-1.367690854e-05
-1.244566252e-05
-1.139550303e-05
-1.045129929e-05
-9.579065898e-06
-8.770918179e-06
-8.042432647e-06
-7.393365574e-06
-6.838956108e-06
-6.370868958e-06
-5.94959741e-06
-5.553070383e-06
-5.205066652e-06
-4.88910823e-06
-4.587706233e-06
-4.323876838e-06
-4.09745239e-06
-3.89651426e-06
-3.71420359e-06
-3.544130832e-06
-3.377263405e-06
-3.213893113e-06
-3.053357736e-06
-2.899490252e-06
-2.773514764e-06
-2.672145552e-06
-2.583487442e-06
-2.503249862e-06
-2.418751318e-06
-2.332204593e-06
-2.254775534e-06
-2.190954184e-06
-2.130326447e-06
-2.067459362e-06
-2.008212677e-06
-1.957441593e-06
-1.90929816e-06
-1.852717454e-06
-1.785293938e-06
-1.721272559e-06
-1.688563034e-06
-1.653244737e-06
-1.581147558e-06
-1.509696012e-06
-1.454942262e-06
-1.407476291e-06
-1.341782951e-06
-1.259882789e-06
-1.180006748e-06
-1.09754517e-06
-1.07147895e-06
-1.179768449e-06
1.645304512e-06
4.749147815e-06
6.343418355e-06
7.734568664e-06
7.71694087e-06
)


101
(
9.532829761e-05
0.0001453998241
0.0002108246072
0.0002250876446
0.0002165581597
0.0001992930179
0.000178304225
0.0001558440617
0.0001333542539
0.0001113100986
8.960295181e-05
6.80915561e-05
4.708630034e-05
2.663379377e-05
6.783460089e-06
-1.215388903e-05
-2.978359558e-05
-4.608879699e-05
-6.028868463e-05
-7.21666522e-05
-8.196535387e-05
-8.880895792e-05
-9.288524313e-05
-9.475989997e-05
-9.449452915e-05
-9.235028724e-05
-8.875621403e-05
-8.40700098e-05
-7.86718174e-05
-7.290482899e-05
-6.699800244e-05
-6.123900248e-05
-5.537983175e-05
-4.974470232e-05
-4.471552589e-05
-4.004773241e-05
-3.587804479e-05
-3.21666795e-05
-2.882079886e-05
-2.585509844e-05
-2.329135884e-05
-2.096478645e-05
-1.880868511e-05
-1.693310857e-05
-1.530184132e-05
-1.391044055e-05
-1.273509071e-05
-1.170396948e-05
-1.076615669e-05
-9.899257507e-06
-9.108841469e-06
-8.383669659e-06
-7.754409967e-06
-7.227222685e-06
-6.764750063e-06
-6.330131924e-06
-5.95006876e-06
-5.607355946e-06
-5.274310271e-06
-4.974965012e-06
-4.717528706e-06
-4.497410072e-06
-4.298237492e-06
-4.113521566e-06
-3.937534399e-06
-3.769874838e-06
-3.599817559e-06
-3.430250141e-06
-3.280224969e-06
-3.154893595e-06
-3.052838165e-06
-2.971703564e-06
-2.894588495e-06
-2.810762846e-06
-2.728256232e-06
-2.652701608e-06
-2.582400403e-06
-2.522911767e-06
-2.469902762e-06
-2.422317594e-06
-2.376325904e-06
-2.323683548e-06
-2.263560966e-06
-2.193771258e-06
-2.154603671e-06
-2.139743428e-06
-2.081318087e-06
-1.997402888e-06
-1.933840261e-06
-1.896324575e-06
-1.829944575e-06
-1.7367081e-06
-1.648455742e-06
-1.552787203e-06
-1.529698173e-06
-1.66803865e-06
2.583323737e-06
7.173183209e-06
9.055076956e-06
1.071784776e-05
1.072099824e-05
)


101
(
9.367809779e-05
0.0001430717029
0.00020798513
0.0002227847415
0.0002150271289
0.0001985994243
0.000178516804
0.0001570076773
0.0001354786682
0.0001144236563
9.372758333e-05
7.316062853e-05
5.301514182e-05
3.335398776e-05
1.417091737e-05
-4.275729529e-06
-2.162383258e-05
-3.789549547e-05
-5.232546341e-05
-6.472467567e-05
-7.531763169e-05
-8.315082656e-05
-8.836055652e-05
-9.14356416e-05
-9.236693592e-05
-9.13617343e-05
-8.879653141e-05
-8.49922472e-05
-8.03164827e-05
-7.511847015e-05
-6.96359317e-05
-6.417718748e-05
-5.847498996e-05
-5.289745014e-05
-4.787134385e-05
-4.31271286e-05
-3.881818987e-05
-3.49254178e-05
-3.138388343e-05
-2.825031114e-05
-2.557064867e-05
-2.314921042e-05
-2.088281347e-05
-1.887182319e-05
-1.707637722e-05
-1.551421999e-05
-1.419063994e-05
-1.304684544e-05
-1.20284592e-05
-1.110048934e-05
-1.024975561e-05
-9.448366173e-06
-8.739870627e-06
-8.143484025e-06
-7.626620834e-06
-7.149138923e-06
-6.7345815e-06
-6.368232837e-06
-6.009404427e-06
-5.671968833e-06
-5.377671996e-06
-5.13584727e-06
-4.917579273e-06
-4.711769255e-06
-4.527838307e-06
-4.356746903e-06
-4.18459658e-06
-4.005220067e-06
-3.832421728e-06
-3.686956056e-06
-3.565691404e-06
-3.474288303e-06
-3.400754242e-06
-3.327987659e-06
-3.255157866e-06
-3.172638106e-06
-3.089173996e-06
-3.026422117e-06
-2.976751692e-06
-2.942816616e-06
-2.908920678e-06
-2.858542945e-06
-2.805647458e-06
-2.745086231e-06
-2.69981592e-06
-2.689016172e-06
-2.657312384e-06
-2.578178436e-06
-2.495569074e-06
-2.469272061e-06
-2.405298268e-06
-2.313391856e-06
-2.22210472e-06
-2.099669845e-06
-2.077018519e-06
-2.259630283e-06
3.686007461e-06
1.004296889e-05
1.217121779e-05
1.424484125e-05
1.444534922e-05
)


101
(
9.203280639e-05
0.00014075091
0.0002051509788
0.0002204832502
0.0002135017979
0.0001979187947
0.0001787487507
0.0001581962655
0.0001376319505
0.0001175627174
9.788175683e-05
7.827552203e-05
5.900133795e-05
4.014585764e-05
2.165718037e-05
3.741125991e-06
-1.327278625e-05
-2.944705623e-05
-4.403314261e-05
-5.687337687e-05
-6.817998902e-05
-7.692877289e-05
-8.321915811e-05
-8.746842724e-05
-8.95943595e-05
-8.975535544e-05
-8.827462864e-05
-8.542614019e-05
-8.155279449e-05
-7.700183912e-05
-7.202055978e-05
-6.694190408e-05
-6.146969872e-05
-5.601169403e-05
-5.10449731e-05
-4.627565148e-05
-4.18696762e-05
-3.781663563e-05
-3.407514614e-05
-3.074964522e-05
-2.792882266e-05
-2.540488705e-05
-2.304121181e-05
-2.092016138e-05
-1.898179819e-05
-1.725335661e-05
-1.57656762e-05
-1.448528315e-05
-1.336804848e-05
-1.236534577e-05
-1.145011368e-05
-1.057904422e-05
-9.790659476e-06
-9.114660979e-06
-8.532002022e-06
-8.003087277e-06
-7.548611893e-06
-7.157524346e-06
-6.779158272e-06
-6.41410321e-06
-6.080175421e-06
-5.80421091e-06
-5.560542897e-06
-5.33305894e-06
-5.141973621e-06
-4.970549307e-06
-4.797790926e-06
-4.612067053e-06
-4.428526859e-06
-4.268714063e-06
-4.126399991e-06
-4.019780646e-06
-3.940415269e-06
-3.875145933e-06
-3.828018395e-06
-3.762112361e-06
-3.672560631e-06
-3.591619465e-06
-3.538830753e-06
-3.523608071e-06
-3.508347659e-06
-3.47442054e-06
-3.429578311e-06
-3.375077749e-06
-3.337169111e-06
-3.332064078e-06
-3.321795215e-06
-3.26546252e-06
-3.169871673e-06
-3.147453136e-06
-3.089239048e-06
-2.996196988e-06
-2.90886459e-06
-2.757656253e-06
-2.732168606e-06
-2.974066496e-06
4.931474315e-06
1.331778587e-05
1.566279006e-05
1.762182153e-05
1.75153948e-05
)


101
(
9.039248901e-05
0.0001384374127
0.0002023218552
0.0002181822969
0.0002119803609
0.000197248321
0.0001789963264
0.0001594063993
0.0001398110927
0.0001207220455
0.0001020555142
8.342588022e-05
6.503772396e-05
4.700222458e-05
2.923336154e-05
1.188397073e-05
-4.748020621e-06
-2.076382154e-05
-3.543810775e-05
-4.863543076e-05
-6.056294094e-05
-7.014327067e-05
-7.745189557e-05
-8.284164991e-05
-8.61479368e-05
-8.748989644e-05
-8.714010272e-05
-8.531327826e-05
-8.231773166e-05
-7.849312655e-05
-7.409240977e-05
-6.947270049e-05
-6.430574402e-05
-5.903326197e-05
-5.41834842e-05
-4.944331758e-05
-4.499219e-05
-4.081716191e-05
-3.688777198e-05
-3.335897712e-05
-3.037214452e-05
-2.772157608e-05
-2.525777372e-05
-2.304793124e-05
-2.099295418e-05
-1.911094426e-05
-1.745224911e-05
-1.601903025e-05
-1.478380996e-05
-1.368669024e-05
-1.269703044e-05
-1.176101298e-05
-1.089580419e-05
-1.013564399e-05
-9.483079028e-06
-8.889257543e-06
-8.379882783e-06
-7.960665844e-06
-7.569598238e-06
-7.183846721e-06
-6.813113091e-06
-6.496544632e-06
-6.218747624e-06
-5.976093796e-06
-5.77092251e-06
-5.592496121e-06
-5.432190437e-06
-5.252361447e-06
-5.067056929e-06
-4.89430494e-06
-4.735997045e-06
-4.615257956e-06
-4.522603385e-06
-4.458680064e-06
-4.436607337e-06
-4.415482461e-06
-4.340445661e-06
-4.244929369e-06
-4.183593306e-06
-4.168511277e-06
-4.180616926e-06
-4.189144688e-06
-4.160081593e-06
-4.112497915e-06
-4.087360499e-06
-4.092440774e-06
-4.102282974e-06
-4.0819672e-06
-3.990588785e-06
-3.956752062e-06
-3.913210632e-06
-3.818829179e-06
-3.731341837e-06
-3.561930067e-06
-3.516687679e-06
-3.798743119e-06
6.296817615e-06
1.695096595e-05
1.964386474e-05
2.200384756e-05
2.199370739e-05
)


101
(
8.875720783e-05
0.0001361312819
0.0001994974514
0.0002158808932
0.0002104610475
0.0001965852603
0.0001792557773
0.0001606340363
0.0001420127834
0.0001238979082
0.0001062401345
8.860085921e-05
7.111644295e-05
5.391541954e-05
3.689024828e-05
2.014044703e-05
3.933957954e-06
-1.186439702e-05
-2.656619759e-05
-4.003606617e-05
-5.248156749e-05