/*--------------------------------*- C++ -*----------------------------------*\
| =========                 |                                                 |
| \\      /  F ield         | OpenFOAM: The Open Source CFD Toolbox           |
|  \\    /   O peration     | Version:  2.3.1                                 |
|   \\  /    A nd           | Web:      www.OpenFOAM.org                      |
|    \\/     M anipulation  |                                                 |
\*---------------------------------------------------------------------------*/
FoamFile
{
    version     2.0;
    format      ascii;
    class       dictionary;
    location    "constant";
    object      GRPSI20;
}
// * * * * * * * * * * * * * * * * * * * * * * * * * * * * * * * * * * * * * //

GRPSI20_table
101
(

101
(
1.208820079e-07
7.349432245e-07
3.013291225e-06
7.402447095e-06
1.371547659e-05
2.163532173e-05
3.167073381e-05
4.426541386e-05
5.988157828e-05
7.975469631e-05
0.000105581938
0.0001389666409
0.0001833239662
0.0002405840216
0.0003101153549
0.0003923620518
0.0004867317253
0.0005827608191
0.0006812891369
0.000775560301
0.0008533775951
0.0009218408478
0.0009765319521
0.001013224074
0.001035316405
0.001044865792
0.001043656712
0.001033317136
0.001015473439
0.0009916527506
0.0009633725107
0.0009337828955
0.0008969819226
0.0008561110352
0.0008171269593
0.0007763154052
0.0007361079447
0.0006943495968
0.0006480246547
0.0005999983221
0.0005562277624
0.000512331891
0.0004655877792
0.0004218355316
0.0003775040657
0.0003326352341
0.0002878624252
0.0002428214948
0.0001981737261
0.0001540017624
0.000111128995
6.816581493e-05
2.611675322e-05
-1.473424548e-05
-5.45519321e-05
-9.618709602e-05
-0.0001353607421
-0.0001730152274
-0.0002111497483
-0.0002475729519
-0.0002836017638
-0.0003177996049
-0.0003514300413
-0.000384207636
-0.0004159514941
-0.0004465688669
-0.0004758166388
-0.0005046623404
-0.0005322982129
-0.0005585017364
-0.0005839900526
-0.0006089270014
-0.0006322785412
-0.0006535527424
-0.0006731317779
-0.0006923043048
-0.0007113780339
-0.0007285401756
-0.0007441218969
-0.0007585990375
-0.0007728000518
-0.0007858768564
-0.0007976516439
-0.000808145858
-0.0008170487953
-0.0008253668798
-0.0008329137167
-0.0008396635277
-0.000845891584
-0.0008506713148
-0.0008543312156
-0.0008580472666
-0.0008609833249
-0.0008632023582
-0.0008646853817
-0.000865129907
-0.0004325893459
4.336038896e-12
-2.180402701e-21
-2.322535986e-22
4.360805402e-21
)


101
(
1.126724286e-07
7.058336584e-07
2.911011977e-06
7.161770659e-06
1.32715408e-05
2.092275648e-05
3.056734396e-05
4.262382847e-05
5.750130993e-05
7.631596221e-05
0.0001006231429
0.0001319419922
0.0001733226958
0.0002268071526
0.000292100243
0.0003695174436
0.0004586550291
0.0005513562639
0.0006461885557
0.0007385267227
0.000817919922
0.0008866072782
0.0009430948313
0.0009838556995
0.001009856434
0.001023188124
0.001025748171
0.001019004967
0.001004590742
0.000984036561
0.0009587313439
0.0009314184809
0.0008980542656
0.000860355764
0.000823176739
0.0007845118639
0.0007458340699
0.0007061884299
0.0006632324517
0.0006180623256
0.0005748246039
0.0005323555139
0.0004883099555
0.0004452676549
0.0004024756356
0.0003593442707
0.0003161427147
0.0002727508656
0.0002295026723
0.000186560041
0.0001444301566
0.0001026784
6.144469528e-05
2.105511275e-05
-1.839171542e-05
-5.811350625e-05
-9.720766329e-05
-0.0001349634756
-0.0001721941422
-0.0002085905602
-0.0002442192929
-0.0002787633797
-0.0003123337255
-0.0003451017842
-0.0003770066562
-0.0004079553953
-0.0004377971844
-0.000466771325
-0.0004949050925
-0.0005219344716
-0.0005479148615
-0.0005730449484
-0.0005971372931
-0.0006198549231
-0.0006411574986
-0.0006614337077
-0.0006810456555
-0.0006995764136
-0.0007167001956
-0.00073263568
-0.0007477594098
-0.0007620147664
-0.0007752359267
-0.0007874354667
-0.0007983949961
-0.0008081869425
-0.0008170720746
-0.0008251628944
-0.0008324993745
-0.0008391239902
-0.0008446676049
-0.0008492379254
-0.0008534096017
-0.0008569077837
-0.0008587298301
-0.0008578619024
-0.0003975410403
6.191389367e-05
6.491745096e-05
6.759997176e-05
6.760094604e-05
)


101
(
1.047622442e-07
6.775142676e-07
2.811161352e-06
6.926706141e-06
1.283841118e-05
2.022913903e-05
2.949813907e-05
4.103938995e-05
5.52148674e-05
7.303026224e-05
9.590785465e-05
0.000125279954
0.0001638710224
0.000213771493
0.000274985468
0.0003477546318
0.0004318161523
0.0005208809256
0.0006121307377
0.0007021637085
0.000782307553
0.0008514428356
0.0009093324722
0.0009534559093
0.0009832357176
0.001000297438
0.001006550987
0.001003375661
0.0009923694479
0.0009750600914
0.0009527550535
0.0009279112323
0.0008975245084
0.000862946342
0.0008280387849
0.0007914739196
0.0007545368214
0.0007167517205
0.0006764821452
0.0006341397494
0.0005924469257
0.0005512675256
0.0005092707734
0.0004676716231
0.0004262261855
0.000384654371
0.0003430109705
0.0003011968624
0.0002594150306
0.0002177937531
0.0001766843145
0.0001359967275
9.574013577e-05
5.606502188e-05
1.713146707e-05
-2.150422886e-05
-5.981836954e-05
-9.730913752e-05
-0.000134063617
-0.0001701097721
-0.0002054233539
-0.0002399038863
-0.0002734708804
-0.0003062139095
-0.0003381668823
-0.0003692914141
-0.0003994924367
-0.0004287680546
-0.0004572431386
-0.000484832441
-0.0005114196559
-0.000537021172
-0.000561632478
-0.000585163588
-0.0006076129438
-0.0006291111734
-0.0006497613445
-0.0006694342602
-0.0006878584139
-0.0007051341269
-0.0007214954199
-0.0007369494265
-0.0007514194018
-0.000765003921
-0.000777662322
-0.0007892449223
-0.0007997305803
-0.0008092710352
-0.000817919346
-0.0008259118189
-0.0008331209647
-0.0008392540863
-0.0008446165191
-0.0008493235337
-0.0008512931759
-0.0008486383629
-0.0003615183906
0.000123806178
0.0001297358803
0.0001350307465
0.0001350308514
)


101
(
9.714714059e-08
6.499744303e-07
2.713705063e-06
6.697159478e-06
1.241585821e-05
1.955394986e-05
2.846191929e-05
3.950985491e-05
5.301800964e-05
6.989010391e-05
9.142386807e-05
0.0001189635923
0.0001549424608
0.0002014498787
0.0002587487993
0.0003270500734
0.0004061979983
0.0004914085011
0.0005791080218
0.0006665702574
0.0007467426309
0.0008163184972
0.0008753473276
0.0009222275989
0.000955518679
0.0009762164538
0.0009860896244
0.0009864410859
0.0009788195064
0.0009647356581
0.0009454425154
0.0009231948755
0.0008955580939
0.0008639386355
0.000831533541
0.0007971671335
0.0007621237784
0.000726136247
0.0006881168927
0.0006483534219
0.0006086724139
0.000569006988
0.0005287508655
0.000488780297
0.0004487679455
0.000408660079
0.0003685176336
0.0003282252557
0.0002879174448
0.000247667529
0.0002077340285
0.0001681334023
0.00012891242
9.012127343e-05
5.187594271e-05
1.40606628e-05
-2.340887445e-05
-6.032729758e-05
-9.661051772e-05
-0.0001322386452
-0.0001671970818
-0.0002014501057
-0.0002349040284
-0.0002675735884
-0.0002994979331
-0.0003306833971
-0.0003610802811
-0.0003906182003
-0.0004193828082
-0.0004473630589
-0.0004744541017
-0.0005005816636
-0.0005257221115
-0.000549875493
-0.0005731192149
-0.0005955743396
-0.0006172516723
-0.00063803448
-0.0006576763505
-0.0006762204881
-0.0006938392474
-0.0007105296966
-0.0007262395537
-0.0007410965375
-0.0007551484993
-0.0007683411284
-0.0007805531566
-0.0007917288024
-0.0008018068575
-0.000811194675
-0.0008198158793
-0.0008274824872
-0.0008343390089
-0.0008401531043
-0.0008420691401
-0.000837449104
-0.0003243932681
0.0001857453431
0.0001946020328
0.0002025086076
0.000202506307
)


101
(
8.982280994e-08
6.232035703e-07
2.618609301e-06
6.473039068e-06
1.200366023e-05
1.889669015e-05
2.745753812e-05
3.80330797e-05
5.090669891e-05
6.688831623e-05
8.715940454e-05
0.0001129763018
0.0001465112437
0.0001898143991
0.0002433663992
0.0003073793066
0.0003817812897
0.0004629954081
0.0005471301746
0.0006318234435
0.0007114066926
0.0007812602417
0.0008412152585
0.0008903462163
0.0009268067163
0.0009509870735
0.0009643918189
0.0009682179981
0.0009639520734
0.0009530741656
0.0009367961376
0.0009172280137
0.0008922387047
0.0008634170459
0.0008336105218
0.0008015324184
0.0007684897709
0.0007343498663
0.0006983443569
0.0006608867411
0.0006233491389
0.0005854260865
0.0005468469926
0.0005085296026
0.0004700356626
0.0004313864857
0.0003927030297
0.0003538840151
0.0003150349544
0.0002761794719
0.000237508746
0.0001990529032
0.0001609103763
0.0001231040027
8.56948589e-05
4.867420472e-05
1.202813304e-05
-2.41765703e-05
-5.988217171e-05
-9.501814403e-05
-0.0001295613072
-0.0001634906822
-0.0001967282459
-0.0002292491072
-0.0002610700343
-0.0002922173382
-0.0003226802944
-0.0003523842626
-0.0003813728051
-0.0004096391461
-0.000437109138
-0.000463690166
-0.0004893209942
-0.0005140200452
-0.0005379063222
-0.0005611191246
-0.0005836516076
-0.000605407449
-0.0006261535096
-0.0006458981025
-0.0006647593926
-0.0006826748277
-0.0006996100262
-0.0007157117267
-0.0007310374065
-0.0007456280337
-0.0007594131408
-0.0007722927357
-0.000783962969
-0.0007948053698
-0.000804785606
-0.0008137947732
-0.0008221873557
-0.0008292559453
-0.0008309266202
-0.0008241785357
-0.0002861664012
0.0002478018696
0.0002595724592
0.000270085724
0.0002700885289
)


101
(
8.278490738e-08
5.971911433e-07
2.525840707e-06
6.254255436e-06
1.160160274e-05
1.825688108e-05
2.648390047e-05
3.660701801e-05
4.887709595e-05
6.401805152e-05
8.310314345e-05
0.0001073018525
0.0001385523232
0.0001788366784
0.0002288129078
0.000288716885
0.0003585448155
0.0004356833169
0.0005162170328
0.0005979867026
0.0006764606604
0.0007463318055
0.0008070042169
0.0008579612997
0.0008972201378
0.0009246733149
0.0009414941149
0.000948728255
0.0009477805054
0.0009400872416
0.0009268209899
0.000909985164
0.0008876065879
0.000861453965
0.0008342311705
0.000804521693
0.0007735888459
0.0007413589764
0.0007072679161
0.0006719065982
0.0006364776378
0.0006004241685
0.0005635574412
0.0005269029216
0.000489978492
0.0004528163496
0.0004155819384
0.0003782049852
0.0003407919492
0.0003033366494
0.0002659797082
0.0002287263499
0.0001917050501
0.0001549454352
0.0001184752272
8.23027628e-05
4.649189724e-05
1.106808156e-05
-2.396016336e-05
-5.850989106e-05
-9.25572877e-05
-0.0001260779317
-0.0001590080574
-0.0001913033584
-0.0002229513422
-0.0002539735525
-0.0002843859562
-0.0003141394324
-0.0003432639486
-0.0003717326316
-0.0003994776444
-0.0004264080958
-0.000452441024
-0.0004775962795
-0.0005020225475
-0.0005258789682
-0.0005491268128
-0.0005716815128
-0.0005933629368
-0.0006141801569
-0.0006342319356
-0.0006533568118
-0.0006714847322
-0.000688798089
-0.0007053399469
-0.0007212021371
-0.0007363919559
-0.0007508425901
-0.0007641528361
-0.0007765681714
-0.0007879220475
-0.000798208116
-0.0008080043446
-0.0008163591533
-0.0008177178435
-0.0008086232816
-0.0002467081576
0.0003099732091
0.0003245122571
0.0003374946302
0.0003374944997
)


101
(
7.602908324e-08
5.719266675e-07
2.43536641e-06
6.040721316e-06
1.120947855e-05
1.763406345e-05
2.553996077e-05
3.522971721e-05
4.6925552e-05
6.127277818e-05
7.924421006e-05
0.0001019244293
0.0001310413594
0.0001684880448
0.0002150615653
0.0002710360749
0.0003364652504
0.0004095010413
0.0004863931654
0.0005651145256
0.0006420450717
0.0007116212518
0.0007727853662
0.0008252022211
0.000866886033
0.0008973582211
0.0009174455763
0.0009280010457
0.0009303220125
0.0009257855256
0.0009155233716
0.0009014538416
0.0008816813188
0.0008581114292
0.0008334184631
0.0008061040712
0.0007773604205
0.0007471172027
0.0007149231378
0.0006815278544
0.0006481189124
0.0006139697558
0.0005788589713
0.0005438856341
0.0005085643102
0.0004729233747
0.0004371488655
0.0004012003252
0.000365203253
0.0003291450319
0.0002931328367
0.0002571316089
0.0002212772553
0.0001856125267
0.0001501518949
0.0001148897823
7.995082452e-05
4.535752242e-05
1.108329353e-05
-2.278820013e-05
-5.624731294e-05
-8.926615127e-05
-0.0001217963033
-0.0001537855
-0.0001851941725
-0.0002160197788
-0.000246283041
-0.0002759678947
-0.0003051151393
-0.000333691666
-0.0003616225227
-0.000388808102
-0.0004151450619
-0.0004406500732
-0.0004655025767
-0.0004898951001
-0.0005137559495
-0.0005369787463
-0.0005594282373
-0.0005811482285
-0.0006022607852
-0.0006225350656
-0.0006418243076
-0.0006603111217
-0.0006780273369
-0.0006950804021
-0.0007115322032
-0.000727390503
-0.0007422742399
-0.0007563019192
-0.0007690664708
-0.0007806228577
-0.0007917069717
-0.0008013174224
-0.0008022886944
-0.0007906441956
-0.000206058235
0.000372049647
0.0003893704349
0.0004048521025
0.0004048687718
)


101
(
6.955097884e-08
5.473996528e-07
2.347153809e-06
5.832351141e-06
1.082708676e-05
1.702779622e-05
2.462472047e-05
3.389931281e-05
4.50485987e-05
5.864627688e-05
7.557218174e-05
9.682866447e-05
0.0001239547221
0.000158739667
0.0002020843385
0.0002543087961
0.000315517144
0.0003844659051
0.0004576834825
0.0005332552799
0.0006082822478
0.0006772297981
0.0007386368374
0.0007921844377
0.0008359313505
0.0008691392846
0.0008923094806
0.0009060752719
0.0009116000559
0.000910183534
0.000902910805
0.0008916267219
0.0008744708786
0.000853434349
0.0008312106691
0.0008062784647
0.0007797659566
0.000751576965
0.0007213053884
0.0006898137501
0.0006583408142
0.0006260765007
0.0005927415603
0.000559465957
0.0005257711836
0.0004916836651
0.0004573921773
0.0004228739168
0.0003882783001
0.0003536051816
0.0003189520059
0.0002842460806
0.0002496081075
0.0002150846719
0.0001806902934
0.0001463991216
0.0001123725207
7.864827938e-05
4.518875017e-05
1.207481371e-05
-2.070347517e-05
-5.312054315e-05
-8.514857026e-05
-0.000116740354
-0.0001478387183
-0.0001784073853
-0.0002084458481
-0.0002379561063
-0.0002670044577
-0.0002955758899
-0.0003235930776
-0.0003509415211
-0.0003774932665
-0.0004032481882
-0.0004284071407
-0.0004532118578
-0.0004775820592
-0.000501370346
-0.0005244469264
-0.0005469013543
-0.0005689120838
-0.0005902167294
-0.0006105953131
-0.0006302003418
-0.0006490432554
-0.0006672463057
-0.0006848630497
-0.0007019797263
-0.0007182774157
-0.0007338971627
-0.0007481109331
-0.0007608985
-0.0007731944611
-0.0007839887731
-0.0007845314682
-0.0007701803306
-0.0001641480065
0.0004340233441
0.0004539202448
0.0004717320371
0.0004717837497
)


101
(
6.334620581e-08
5.235996711e-07
2.261170822e-06
5.629061507e-06
1.045423344e-05
1.64376572e-05
2.373722857e-05
3.261402893e-05
4.324294806e-05
5.613264187e-05
7.207710922e-05
9.19996886e-05
0.0001172695362
0.0001495627648
0.0001898521144
0.0002385057095
0.0002956730351
0.0003605856658
0.0004301104437
0.0005024519269
0.0005752793908
0.0006432650791
0.0007046453109
0.0007590163059
0.0008044804962
0.0008401238084
0.0008661626072
0.0008830011865
0.0008916459845
0.0008933003844
0.0008889936685
0.0008805017191
0.0008659773943
0.000847451836
0.0008276470241
0.0008050635134
0.0007807897357
0.0007546990753
0.0007263900833
0.0006967887469
0.0006671968266
0.0006367799168
0.0006052154675
0.0005736418294
0.0005415851655
0.0005090748309
0.0004762938926
0.0004432233667
0.000410029549
0.0003767279495
0.0003434277365
0.0003100411871
0.0002766674273
0.0002433371454
0.0002100624692
0.0001767999179
0.0001437349996
0.0001109183279
7.83157776e-05
4.601844363e-05
1.400131322e-05
-1.771717548e-05
-4.913467765e-05
-8.022157582e-05
-0.0001109215174
-0.0001411701015
-0.0001709275063
-0.0002001833851
-0.0002290177875
-0.0002574540066
-0.0002854413858
-0.0003128569328
-0.0003395388744
-0.0003654551834
-0.0003908113722
-0.0004158963681
-0.0004406514641
-0.0004649000718
-0.0004884844258
-0.0005115159277
-0.0005342574118
-0.0005564529868
-0.0005778202622
-0.0005984621858
-0.0006183519218
-0.0006376558761
-0.0006563572616
-0.0006746107347
-0.0006921709768
-0.0007092806655
-0.0007249528975
-0.0007389335306
-0.0007523812024
-0.0007642746719
-0.0007642850192
-0.0007471253799
-0.0001210506099
0.000495674206
0.0005177526741
0.0005375393714
0.0005376324409
)


101
(
5.741034813e-08
5.00516274e-07
2.177385543e-06
5.430770382e-06
1.009072991e-05
1.586323952e-05
2.287657498e-05
3.137216968e-05
4.150547836e-05
5.372626289e-05
6.874949534e-05
8.742313668e-05
0.0001109636902
0.0001409287755
0.0001783348743
0.0002235961946
0.0002769035299
0.0003378594254
0.0004036924774
0.0004727425625
0.0005431290672
0.0006098354406
0.0006709057093
0.0007258033391
0.0007726547952
0.000810425703
0.0008390936126
0.0008588402755
0.0008704997254
0.0008751607193
0.000873785402
0.0008680802436
0.0008562003513
0.0008401801764
0.0008227600147
0.0008024887733
0.0007804388876
0.0007564646051
0.0007301519666
0.0007024515515
0.0006747147471
0.0006461122507
0.0006163018836
0.0005864249662
0.0005560075604
0.0005250855965
0.0004938370037
0.0004622362969
0.0004304567813
0.0003985272921
0.0003665724098
0.0003345048654
0.0003024213034
0.0002703342297
0.0002382350851
0.0002060613801
0.0001740150577
0.0001421497358
0.0001104416207
7.900393434e-05
4.780708324e-05
1.686669518e-05
-1.383730365e-05
-4.430092649e-05
-7.449045118e-05
-0.0001043361147
-0.0001337572524
-0.0001627049566
-0.0001912426595
-0.000219421291
-0.0002472417045
-0.0002746029717
-0.0003013214274
-0.000327321226
-0.0003527849113
-0.0003780268284
-0.0004030257199
-0.0004276160227
-0.0004516052725
-0.0004750735627
-0.0004983655296
-0.0005212930069
-0.0005435408378
-0.0005651260766
-0.0005859507123
-0.0006062704359
-0.0006260032978
-0.0006452738755
-0.000663951475
-0.0006824277005
-0.000699512993
-0.0007146573701
-0.0007291794263
-0.0007420766464
-0.0007414550429
-0.000721425916
-7.694626411e-05
0.0005566165348
0.000580268815
0.0006013121305
0.0006012906362
)


101
(
5.173899692e-08
4.781390776e-07
2.095766588e-06
5.23739793e-06
9.7363943e-06
1.530415351e-05
2.204189186e-05
3.017212273e-05
3.983324012e-05
5.142183438e-05
6.558031328e-05
8.308518679e-05
0.0001050158391
0.000132809482
0.0001675019573
0.0002095484906
0.0002591774289
0.0003162788774
0.000378442226
0.0004441599613
0.0005119122663
0.0005770471736
0.000637518744
0.0006926509439
0.0007405732273
0.0007801629184
0.0008112015109
0.0008336657796
0.0008482113608
0.000855797093
0.0008573048374
0.0008543677447
0.0008451389642
0.0008316279401
0.0008165738301
0.0007985851338
0.0007787343637
0.0007568712994
0.0007325720114
0.0007067908389
0.0006809058319
0.0006540988468
0.0006260254233
0.0005978332393
0.0005690475181
0.0005397137073
0.0005100102631
0.0004799010315
0.000449554485
0.0004190065317
0.0003883971213
0.0003576460441
0.0003268574345
0.0002960397431
0.0002651671772
0.0002341452468
0.0002031804829
0.0001723205232
0.0001415485609
0.0001110067218
8.067244053e-05
5.056871935e-05
2.066075403e-05
-9.069642321e-06
-3.862139683e-05
-6.795037405e-05
-9.696072727e-05
-0.0001255531898
-0.0001537400685
-0.000181569331
-0.0002090907004
-0.0002362580215
-0.0002628964767
-0.0002888910048
-0.0003143812447
-0.0003396816567
-0.000364795406
-0.0003895813742
-0.0004138580969
-0.0004376589563
-0.0004613359076
-0.000484802883
-0.0005077933316
-0.0005302423387
-0.0005518900696
-0.0005730820366
-0.0005937918012
-0.0006139935146
-0.0006336271846
-0.0006532992903
-0.0006717388395
-0.0006880452417
-0.0007035374541
-0.0007173294244
-0.0007159815841
-0.000692991147
-3.215582804e-05
0.0006161164741
0.0006406051965
0.0006628187553
0.0006633001073
)


101
(
4.632768819e-08
4.564576594e-07
2.016282687e-06
5.04886542e-06
9.391049311e-06
1.476002321e-05
2.123234796e-05
2.901234803e-05
3.822343632e-05
4.921433247e-05
6.256098497e-05
7.897257824e-05
9.940542642e-05
0.0001251771212
0.0001573222487
0.0001963298047
0.000242461724
0.0002958294431
0.0003543661906
0.000416730758
0.0004816982753
0.0005450010619
0.0006045887814
0.0006596660787
0.0007083525999
0.0007494545888
0.0007825928459
0.0008075621366
0.000824842124
0.0008352514059
0.0008395789005
0.0008393770731
0.000832796053
0.0008217997683
0.0008091041547
0.0007933778818
0.0007757008536
0.0007559315537
0.0007336462835
0.000709796216
0.0006857686429
0.0006607528479
0.0006344066107
0.0006078877336
0.0005807240722
0.000552968857
0.0005248076159
0.0004962044119
0.0004673145483
0.0004381661227
0.0004089085654
0.0003794723729
0.0003499782999
0.0003204386464
0.0002908232281
0.000261005593
0.0002311876943
0.000201397868
0.0001716131657
0.0001420076413
0.0001125709124
8.33435853e-05
5.428950253e-05
2.537911189e-05
-3.415844258e-06
-3.209312401e-05
-6.058038458e-05
-8.875106133e-05
-0.0001165470235
-0.0001439739151
-0.0001710965805
-0.0001979273146
-0.0002243415433
-0.0002502177949
-0.0002756513713
-0.000300932726
-0.0003260617658
-0.0003509017356
-0.0003753163942
-0.0003993452638
-0.0004232821243
-0.0004470880414
-0.0004706353986
-0.0004938486505
-0.0005162494385
-0.0005381598526
-0.0005597282105
-0.0005808287093
-0.0006012526028
-0.0006219229348
-0.0006416441698
-0.0006590684158
-0.0006754189169
-0.000689998652
-0.0006878564139
-0.0006618623821
1.289635356e-05
0.0006733248858
0.0006972973776
0.0007188717724
0.0007192764789
)


101
(
4.117193917e-08
4.354616092e-07
1.938902891e-06
4.865095736e-06
9.05452309e-06
1.423048721e-05
2.044714929e-05
2.789137871e-05
3.667341963e-05
4.709901082e-05
5.968338973e-05
7.507263882e-05
9.411274323e-05
0.0001180045494
0.0001477643913
0.0001839064831
0.0002267220454
0.0002764908468
0.0003314645047
0.0003904756237
0.0004525449045
0.0005137893213
0.0005722198857
0.0006269561283
0.0006761075641
0.0007184202537
0.0007533809826
0.0007806252947
0.0008004656689
0.0008135764394
0.0008206439224
0.000823130678
0.0008191813443
0.0008107000366
0.0008003604184
0.0007868856175
0.0007713626229
0.0007536658585
0.00073338302
0.000711465168
0.000689300243
0.0006660788819
0.0006414578888
0.0006166036767
0.0005910523581
0.0005648672263
0.0005382411031
0.0005111426408
0.0004837224283
0.0004559960162
0.0004281084042
0.000399994175
0.0003717919322
0.0003435306523
0.0003151831667
0.0002866020725
0.0002579865447
0.0002293343971
0.0002006016578
0.0001719806017
0.000143478398
0.0001151605313
8.699801698e-05
5.896556791e-05
3.102055546e-05
3.123779216e-06
-2.470242308e-05
-5.234516119e-05
-7.969409571e-05
-0.0001066849621
-0.0001333510059
-0.0001597340882
-0.0001857750708
-0.0002113906384
-0.0002366625789
-0.0002618457846
-0.0002869118064
-0.0003117047119
-0.0003361126841
-0.000360227633
-0.0003843203039
-0.0004083082461
-0.000432182868
-0.0004560015779
-0.0004791220422
-0.0005016387737
-0.0005238743973
-0.0005458103596
-0.000566937028
-0.0005883857917
-0.000609266428
-0.0006277772492
-0.000644870616
-0.0006601074471
-0.0006571014146
-0.0006281192052
5.736460255e-05
0.0007267074937
0.0007489014925
0.0007692640075
0.0007702008873
)


101
(
3.626724884e-08
4.151405114e-07
1.863596492e-06
4.686013145e-06
8.726648685e-06
1.371519753e-05
1.96855363e-05
2.680781738e-05
3.518068684e-05
4.507138682e-05
5.693984948e-05
7.137329029e-05
8.911892597e-05
0.0001112653485
0.0001387969746
0.0001722442053
0.0002119227745
0.0002582383979
0.0003097307606
0.0003654080858
0.0004244998821
0.0004834947582
0.0005405133375
0.0005946302034
0.0006439538878
0.0006871801261
0.0007236828003
0.0007529593635
0.0007751666308
0.0007908358388
0.0008005451732
0.0008056586779
0.0008043121305
0.0007983372462
0.0007903495989
0.0007791205631
0.0007657393518
0.0007500976257
0.0007318011808
0.0007118060277
0.0006915000021
0.0006700754115
0.0006471847701
0.0006239940354
0.0006000481882
0.0005754243733
0.0005503228371
0.0005247230783
0.0004987769793
0.0004724850404
0.0004459843332
0.0004192098502
0.0003923075311
0.0003653206251
0.0003382397081
0.0003109115446
0.0002835336522
0.0002560766313
0.0002284644687
0.0002008870489
0.000173365889
0.0001459928235
0.0001187510884
9.162893377e-05
6.459195006e-05
3.757820266e-05
1.055063923e-05
-1.642862107e-05
-4.323786435e-05
-6.974863378e-05
-9.592864084e-05
-0.0001218009226
-0.0001473481875
-0.0001725472167
-0.000197512178
-0.0002224988171
-0.0002474416823
-0.0002721169666
-0.0002964014929
-0.0003204540431
-0.0003445874033
-0.0003686440355
-0.0003926374731
-0.0004168362988
-0.0004406013618
-0.0004636852977
-0.0004864106587
-0.0005090211851
-0.0005308233988
-0.0005528874819
-0.0005747100038
-0.0005942201484
-0.0006119879745
-0.0006277749051
-0.0006238383986
-0.0005919400312
0.00010042438
0.0007747168511
0.0007937857846
0.0008109489779
0.0008116015863
)


101
(
3.160906698e-08
3.95483928e-07
1.790332955e-06
4.511543079e-06
8.407263593e-06
1.321381884e-05
1.894678213e-05
2.576032985e-05
3.374286737e-05
4.312723246e-05
5.432311671e-05
6.786306296e-05
8.440598733e-05
0.0001049338964
0.0001303887488
0.0001613081521
0.0001980270928
0.0002410433493
0.0002891527694
0.0003415351021
0.000397600629
0.0004541902011
0.0005095659865
0.0005627970296
0.0006120078088
0.0006558552815
0.0006936181027
0.0007246743555
0.000749038353
0.0007671035828
0.0007793378613
0.0007869993554
0.0007882120225
0.0007847247728
0.0007790808158
0.000770093133
0.0007588470227
0.0007452495441
0.0007289241187
0.0007108349337
0.0006923758487
0.0006727451986
0.000651589649
0.0006300655491
0.0006077221052
0.0005846537207
0.0005610695459
0.0005369567578
0.0005124777254
0.0004876280449
0.0004625291634
0.0004371097216
0.0004115213886
0.0003858133925
0.0003599948908
0.0003339208116
0.0003077993806
0.0002815766608
0.0002551426109
0.0002286736636
0.0002021883978
0.0001758026185
0.0001495140056
0.0001233264331
9.722691079e-05
7.115677653e-05
4.503729079e-05
1.886172488e-05
-7.28106601e-06
-3.323575743e-05
-5.889965282e-05
-8.42366714e-05
-0.0001092253927
-0.0001338783553
-0.000158368681
-0.0001830162384
-0.000207754112
-0.0002322731063
-0.0002563731756
-0.0002802238112
-0.0003042472652
-0.0003282865631
-0.0003522675032
-0.0003765878686
-0.0004008271285
-0.0004244899744
-0.0004475929929
-0.0004706618391
-0.0004930968986
-0.0005156403818
-0.0005382029581
-0.0005585805581
-0.0005769029598
-0.000593164048
-0.000588293356
-0.0005534927674
0.0001413466672
0.0008159437199
0.0008308310839
0.0008418357023
0.0008400994161
)


101
(
2.719281853e-08
3.764814352e-07
1.719082058e-06
4.341612454e-06
8.096210192e-06
1.272602896e-05
1.823019266e-05
2.474764445e-05
3.235771848e-05
4.126257194e-05
5.18263693e-05
6.453108954e-05
7.995684086e-05
9.898550623e-05
0.0001225088776
0.0001510631685
0.0001849971836
0.0002248733074
0.000269711962
0.000318856443
0.0003718755942
0.0004259393255
0.0004794690102
0.0005315632131
0.0005803852915
0.0006245675823
0.0006633090209
0.0006958856042
0.0007221826618
0.0007424639826
0.0007570876573
0.0007672001803
0.0007709130536
0.0007698829171
0.0007665670069
0.0007598139273
0.0007506979436
0.0007391389567
0.0007247744862
0.0007085755356
0.0006919438063
0.0006740937221
0.0006546732638
0.0006348227294
0.0006140858842
0.0005925669609
0.000570491783
0.0005478587457
0.0005248350647
0.0005014218056
0.0004777348795
0.0004536856005
0.0004294241001
0.0004050064846
0.0003804490252
0.0003556209118
0.0003307591237
0.000305793054
0.000280582054
0.0002552805965
0.0002298877857
0.0002045357883
0.0001792379031
0.0001540118379
0.0001288680222
0.0001037689978
7.862207797e-05
5.336166293e-05
2.802167837e-05
2.735420604e-06
-2.235711803e-05
-4.714310371e-05
-7.155900083e-05
-9.560353011e-05
-0.0001194736254
-0.0001435950806
-0.0001679931887
-0.0001923235292
-0.0002162270258
-0.0002397914901
-0.0002635563035
-0.0002874466836
-0.0003113378136
-0.00033561352
-0.0003600685631
-0.0003842345226
-0.0004077052963
-0.0004310199154
-0.0004539635148
-0.0004769049476
-0.000499992915
-0.000521163021
-0.0005399267662
-0.0005565001824
-0.0005507187279
-0.0005131222207
0.0001791820681
0.0008489933132
0.0008596177304
0.0008698715934
0.0008710928134
)


101
(
2.301390049e-08
3.581226028e-07
1.649813805e-06
4.176149437e-06
7.793335274e-06
1.225151786e-05
1.753510429e-05
2.376854784e-05
3.10231167e-05
3.947366505e-05
4.944319138e-05
6.136710348e-05
7.575530163e-05
9.339648571e-05
0.0001151270868
0.0001414740381
0.0001727943731
0.0002096931338
0.000251384512
0.0002973648499
0.0003473437702
0.0003987950204
0.0004503058115
0.0005010319662
0.0005492010006
0.0005934385132
0.000632879177
0.0006667134187
0.0006947100856
0.000717011123
0.0007338693596
0.000746317919
0.0007524557607
0.0007538393563
0.0007528275719
0.0007482974505
0.0007413045629
0.0007317796657
0.0007193716729
0.0007050504653
0.0006902249103
0.0006741367011
0.0006564423645
0.0006382657001
0.0006191414793
0.0005991748316
0.0005786042568
0.0005574407806
0.0005358609495
0.0005138755322
0.0004915972985
0.0004689253737
0.000446005214
0.0004228890328
0.000399596495
0.0003760073838
0.0003523933168
0.0003286882823
0.0003047280668
0.0002806410337
0.0002563953105
0.0002321254164
0.0002078564757
0.0001836214642
0.000159450307
0.0001353315189
0.0001111854008
8.691171581e-05
6.248614412e-05
3.79886474e-05
1.355869934e-05
-1.063996067e-05
-3.448878159e-05
-5.792687602e-05
-8.111175024e-05
-0.000104529529
-0.0001284008387
-0.0001524410714
-0.0001761504065
-0.0001994548388
-0.0002228483657
-0.000246405141
-0.0002701217164
-0.0002942467831
-0.0003186819894
-0.0003431947455
-0.0003670409969
-0.0003904472101
-0.0004136888304
-0.0004370250549
-0.000460391737
-0.000482239146
-0.0005014254058
-0.0005180630391
-0.0005114945078
-0.0004715525883
0.0002134850489
0.0008738564743
0.000880310081
0.0008854415047
0.000884982629
)


101
(
1.906765233e-08
3.403965951e-07
1.582498065e-06
4.015082846e-06
7.498488297e-06
1.178998473e-05
1.686087893e-05
2.282187545e-05
2.973704212e-05
3.775698551e-05
4.716755004e-05
5.836141556e-05
7.178605577e-05
8.814416055e-05
0.0001082137236
0.0001325056443
0.0001613795582
0.0001954653466
0.0002341421921
0.000277046994
0.0003240147324
0.0003727985733
0.0004221496892
0.0004713002337
0.0005185666286
0.0005625884948
0.0006024534562
0.0006372820491
0.0006667382799
0.000690849019
0.0007097680736
0.0007244189307
0.0007328895515
0.0007366292318
0.0007378878988
0.0007355628818
0.0007306818175
0.0007231835922
0.0007127285955
0.0007002794338
0.0006872445909
0.0006728955618
0.0006569082139
0.0006403984141
0.0006228921495
0.0006044839027
0.0005854150862
0.0005657144245
0.0005455690359
0.0005249975189
0.0005041188321
0.0004828243278
0.0004612516687
0.0004394477888
0.0004174253885
0.0003950713257
0.000372690769
0.0003502315869
0.0003275264237
0.0003046832529
0.0002816316815
0.0002584893018
0.0002352860465
0.0002120706451
0.0001888885138
0.0001657560633
0.0001426135481
0.0001193540022
9.591216092e-05
7.230721022e-05
4.865140164e-05
2.511100793e-05