/*--------------------------------*- C++ -*----------------------------------*\
| =========                 |                                                 |
| \\      /  F ield         | OpenFOAM: The Open Source CFD Toolbox           |
|  \\    /   O peration     | Version:  2.3.1                                 |
|   \\  /    A nd           | Web:      www.OpenFOAM.org                      |
|    \\/     M anipulation  |                                                 |
\*---------------------------------------------------------------------------*/
FoamFile
{
    version     2.0;
    format      ascii;
    class       dictionary;
    location    "constant";
    object      GRPSI14;
}
// * * * * * * * * * * * * * * * * * * * * * * * * * * * * * * * * * * * * * //

GRPSI14_table
101
(

101
(
8.185886287e-06
8.193480536e-05
0.0004070095686
0.001098206013
0.002096415274
0.003266484362
0.004573846264
0.005960598792
0.007346414217
0.00872199838
0.01007110229
0.01137127952
0.01264389783
0.01388231489
0.01505064425
0.01617887678
0.01729044378
0.01832461139
0.01935509858
0.02037269733
0.02129642687
0.02225389463
0.02321860254
0.02412866235
0.02501679893
0.02589258646
0.02674931638
0.02759754368
0.02843392162
0.02925004173
0.03004278811
0.03077005063
0.0315700411
0.03238038407
0.03309065462
0.03379422043
0.03445523033
0.03511484404
0.03581564261
0.03651047157
0.03712093111
0.03771303051
0.0383260269
0.03888352138
0.03943348434
0.03997739741
0.04050652436
0.04102708419
0.04153178796
0.04202117953
0.04248688612
0.04294544222
0.04338656287
0.04380847227
0.04421357526
0.04463067798
0.04501816484
0.04538539263
0.04575314326
0.04610033032
0.04643988684
0.04675862785
0.04706924732
0.04736922906
0.04765717406
0.04793272214
0.04819375218
0.04844898949
0.04869176371
0.04892031542
0.04914119828
0.0493560723
0.04955576175
0.04973351776
0.04989954595
0.05006867742
0.05023360736
0.05037800215
0.05050890047
0.05062998105
0.05074813283
0.050856319
0.05095099199
0.05104083621
0.05112202345
0.0511930668
0.05125589262
0.05131170842
0.05135979685
0.05140304223
0.05144044362
0.05146923219
0.05149335074
0.05151232931
0.0515272834
0.05152310022
0.02575577061
-1.934001848e-10
0
0
0
)


101
(
7.188750972e-06
7.798370941e-05
0.000391873608
0.001061221683
0.002029493971
0.003166155822
0.004434452452
0.005780576595
0.007127480904
0.008463478806
0.009773483652
0.01103751932
0.01227026982
0.01347056273
0.01460813763
0.01570116137
0.01677199738
0.01778396278
0.01877171819
0.01975136705
0.0206660828
0.02157261426
0.02249211656
0.02338436573
0.02424664949
0.02509230467
0.02592274479
0.02674085169
0.02754953719
0.02834405794
0.02911924706
0.02985650518
0.03058499604
0.03134754839
0.03208769635
0.03277983622
0.0334467498
0.03409131737
0.03473738782
0.03539848794
0.03604465344
0.03664177178
0.03722161613
0.03779850317
0.03834523143
0.03887904204
0.03940320532
0.03991584843
0.04041835256
0.04090772797
0.04138255038
0.04183936044
0.04228573791
0.04271845529
0.04313469908
0.04353461732
0.04393679835
0.04432161519
0.04468788068
0.04504830328
0.04539400888
0.04573070721
0.04605182745
0.04636238359
0.04666317156
0.04695389912
0.04723369887
0.04750025357
0.04775977164
0.04800940838
0.04824591269
0.0484721681
0.04869129175
0.0489007257
0.04909781914
0.04928427822
0.0494643631
0.04964000814
0.04980327808
0.04995449054
0.05009546458
0.0502309415
0.05035904533
0.050480032
0.05059621799
0.05070353011
0.05080130307
0.05089137862
0.05097225417
0.05105150663
0.05112563479
0.05118685675
0.05124339027
0.05129292981
0.0512892497
0.05119552263
0.02501703539
-0.001094467671
-0.001099407087
-0.001103821063
-0.001103820947
)


101
(
6.236346593e-06
7.415469681e-05
0.0003771076957
0.001025043777
0.001963937245
0.003067782007
0.004297882147
0.00560410223
0.006912738425
0.008209960956
0.009481653771
0.01071005312
0.01190434355
0.01306715653
0.01417383416
0.01523323349
0.01626540981
0.0172525004
0.01820271072
0.01914443737
0.02004451755
0.02091064006
0.02178575675
0.02265376503
0.02349202262
0.0243097063
0.02511358994
0.02590333778
0.02668433197
0.02745580371
0.02821235958
0.02894954107
0.02963661285
0.03034926071
0.03108801482
0.03177706574
0.03244455446
0.03308222653
0.03369442902
0.03431951583
0.03496888617
0.03557530712
0.0361409517
0.03671748646
0.03726573215
0.03779434012
0.03831296478
0.03881919772
0.03931745751
0.03980497142
0.0402832262
0.0407416746
0.04119038438
0.04162945615
0.04205475247
0.0424528348
0.0428576118
0.04325358445
0.04362659742
0.04399502535
0.04434876031
0.0446969747
0.04503005834
0.04535140283
0.04566362865
0.04596750759
0.04626282152
0.04654373815
0.0468179933
0.04708512389
0.0473394972
0.04758170307
0.04781717601
0.04804787636
0.04827016158
0.0484803346
0.04868112887
0.04888156412
0.04907397379
0.04925476827
0.04942369305
0.04958654297
0.04974428863
0.04989644
0.05004449615
0.05018752479
0.05032309424
0.0504496002
0.05056376547
0.05067855235
0.05078724173
0.05088209532
0.05097407493
0.05105243108
0.051028006
0.05083908085
0.02426113562
-0.002188932704
-0.002198819083
-0.002207653692
-0.002207651835
)


101
(
5.327944354e-06
7.044628893e-05
0.0003627082908
0.0009896652398
0.001899733657
0.002971346614
0.004164101875
0.005431149102
0.006702155014
0.00796139531
0.009195553304
0.01038884295
0.01154595601
0.01267203398
0.01374775596
0.01477484311
0.01577031474
0.01673073979
0.01764699697
0.01855188961
0.01943292354
0.02026549718
0.02109907262
0.02193854628
0.02275267462
0.02354414507
0.02432189213
0.025084513
0.025838273
0.02658567302
0.02732239104
0.02805275132
0.02871413161
0.02938431956
0.03010405028
0.03078595816
0.03145079018
0.03208427592
0.03267632671
0.03327138827
0.03390785229
0.03451600345
0.03507615887
0.03564766115
0.03619496589
0.03672088183
0.03723508635
0.03773594126
0.03822944082
0.03871385482
0.03919228256
0.03965205592
0.04010223128
0.04054472796
0.04097616963
0.04137754325
0.041784181
0.04218611055
0.04256635794
0.0429420855
0.04330358176
0.04366097373
0.04400465637
0.04433650529
0.04465939002
0.04497498739
0.0452836418
0.04557868768
0.04586724077
0.04614969115
0.04642083711
0.04668027633
0.04693257488
0.04718138487
0.04742435239
0.04765702027
0.04787978809
0.04810341712
0.04832252091
0.0485320334
0.04873009738
0.04892122765
0.04910775192
0.04929044875
0.04946918364
0.04964507414
0.0498176219
0.04998322021
0.05013243233
0.05028288792
0.05042577181
0.05055226571
0.05068017168
0.05078830875
0.05073952778
0.0504500459
0.02348751998
-0.00328335795
-0.003298252889
-0.003311561404
-0.00331155875
)


101
(
4.462809746e-06
6.685698957e-05
0.0003486718209
0.0009550790273
0.0018368718
0.002876833319
0.004033078502
0.005261689486
0.006495699249
0.00771773324
0.008915123279
0.01007384793
0.01119495894
0.01228511608
0.01332991556
0.01432578143
0.01528636303
0.01621902946
0.01710382468
0.01797347547
0.01883223097
0.01963554856
0.02043115345
0.02123976779
0.02202881164
0.02279514971
0.02354748775
0.02428402172
0.02501123085
0.02573398846
0.02644969087
0.0271684676
0.02781185502
0.02844867552
0.02914180792
0.02981005806
0.03046825186
0.03109689636
0.03167652635
0.03224916989
0.03286730022
0.03346913224
0.03402493746
0.03459076521
0.03513479554
0.0356580804
0.03616876381
0.03666519144
0.03715404344
0.03763465383
0.03811131428
0.03857122221
0.03902216014
0.03946639921
0.0399015191
0.04030690129
0.0407160947
0.04112177441
0.04150771037
0.04188984892
0.04225849331
0.04262385945
0.04297684181
0.04331840037
0.04365118267
0.04397734359
0.04429767319
0.04460571326
0.0449079252
0.04520447583
0.0454909296
0.04576697921
0.04603595299
0.04630180978
0.04656335686
0.04681678765
0.04706068511
0.04730613021
0.04754963289
0.04778626717
0.04801364256
0.04823367556
0.04844888059
0.04866152218
0.04887035228
0.04907800953
0.04928462821
0.0494885822
0.04967540422
0.04986263997
0.05003935867
0.05019604225
0.05035929699
0.05049788892
0.05042115565
0.05002578197
0.02269535113
-0.004377899675
-0.004397695625
-0.00441537608
-0.004415367316
)


101
(
3.640197255e-06
6.338528327e-05
0.0003349946793
0.0009212780638
0.00177534026
0.002784225802
0.003904779222
0.005095694569
0.006293339767
0.007478926843
0.008640305352
0.009765023979
0.01085121568
0.01190631085
0.01292031244
0.0138858724
0.01481322578
0.01571758364
0.01657266688
0.01740883316
0.01824311929
0.01901974699
0.01978093389
0.02055793351
0.0213208022
0.02206246874
0.0227901354
0.02350154624
0.02420302037
0.02490096714
0.0255946548
0.02629834779
0.02692692666
0.02753811813
0.02820375052
0.02885297625
0.0294996125
0.03012111585
0.03069170063
0.03124812257
0.0318479941
0.03243856142
0.03298804005
0.03354751854
0.03408672703
0.03460649071
0.03511374775
0.03560633962
0.03609089869
0.03656741163
0.03704107637
0.03749982893
0.03795068405
0.03839561379
0.03883271407
0.03924136261
0.0396531593
0.04006166054
0.04045180482
0.04083903993
0.04121382527
0.04158612769
0.04194730246
0.04229772216
0.04263968969
0.04297543704
0.04330600866
0.04362560107
0.0439404566
0.04425015494
0.04455070717
0.04484223325
0.04512704127
0.045408966
0.04568775044
0.04596072223
0.04622479883
0.0464907216
0.04675650885
0.04701788591
0.04727353625
0.04752282029
0.04776693006
0.0480092
0.04824738255
0.04848595322
0.04872534774
0.04896500371
0.04918927796
0.04941548681
0.04962631539
0.04981269269
0.05000926841
0.0501776396
0.05007088103
0.04956474211
0.02188388769
-0.005472605102
-0.005497148721
-0.005519090567
-0.005519100116
)


101
(
2.859354367e-06
6.002963995e-05
0.0003216732342
0.0008882552701
0.001715127674
0.002693507836
0.003779171673
0.004933134671
0.00609504529
0.007244929133
0.008371041907
0.009462325377
0.01051460097
0.01153551872
0.01251893512
0.01345496724
0.01435059858
0.01522651207
0.01605315399
0.01685756535
0.01766603941
0.01841744949
0.01914738211
0.01989311598
0.02062898924
0.02134602515
0.02204959635
0.02273677236
0.02341341205
0.02408674404
0.02475769389
0.02544360813
0.02605807336
0.02664911551
0.02728942423
0.02791711009
0.02854797885
0.02915900302
0.02972086649
0.03026489064
0.03084857117
0.03142591822
0.03196686432
0.03251881027
0.0330519045
0.0335669866
0.03407032083
0.034559219
0.03503978968
0.03551213448
0.03598200493
0.03643843847
0.03688820214
0.03733290708
0.03777079494
0.03818177376
0.03859574298
0.03900642171
0.039399667
0.03979064661
0.04017028353
0.04054829322
0.04091649618
0.04127485776
0.04162534514
0.04196993772
0.04230958105
0.04263924776
0.04296536283
0.04328710528
0.04360071648
0.04390663912
0.04420622227
0.04450306323
0.04479774594
0.04508901079
0.04537237426
0.04565784168
0.04594437387
0.04622816752
0.04650981049
0.04678750422
0.04706071394
0.04733265049
0.04759983851
0.04786847549
0.04813937483
0.04841264464
0.048672829
0.04893858756
0.04918455421
0.04940055182
0.04962861311
0.04982590652
0.04968710486
0.04906540506
0.02105232822
-0.006567058745
-0.006596542611
-0.006622897347
-0.006622905979
)


101
(
2.119521297e-06
5.678850544e-05
0.0003087037986
0.0008560034934
0.001656222601
0.002604663098
0.003656223668
0.004773978978
0.005900784105
0.007015693596
0.008107275594
0.009165704142
0.01018499847
0.01117263335
0.01212575944
0.01303293861
0.0138982019
0.01474583836
0.01554501357
0.01631928351
0.01710125559
0.01782826429
0.01852957628
0.0192450836
0.01995359219
0.02064585599
0.02132569656
0.02198938576
0.02264210627
0.02329131519
0.02393918655
0.02460533143
0.02520500731
0.02577910681
0.02639719686
0.02700325281
0.02761569324
0.02821293306
0.02876462485
0.02929778666
0.02986731864
0.03043131904
0.03096234185
0.03150554054
0.03203133978
0.03254049177
0.03303898806
0.03352388618
0.03400061398
0.03446891483
0.03493455312
0.0353876273
0.03583516466
0.03627865575
0.03671627857
0.03712859928
0.03754421513
0.03795661655
0.03835211587
0.03874567495
0.03912880558
0.03951109885
0.03988493887
0.04025009959
0.04060835499
0.04096123664
0.04130914198
0.04164758029
0.04198341101
0.04231581657
0.04264131836
0.04296056332
0.04327391438
0.04358455614
0.04389375124
0.04420186244
0.04450343114
0.04480761306
0.04511373845
0.04541817135
0.0457234408
0.0460275653
0.04632910227
0.04663056974
0.04692658728
0.04722506061
0.04752655844
0.04783181362
0.04812535564
0.04843006238
0.04871220457
0.04895766291
0.0492159654
0.04944083286
0.04926865044
0.0485264712
0.02019919755
-0.007661323697
-0.007695705728
-0.007726383958
-0.007726348592
)


101
(
1.419928424e-06
5.366031107e-05
0.0002960826681
0.000824515594
0.001598613686
0.002517675432
0.00353590355
0.00461819606
0.005710524546
0.00679117471
0.00784895016
0.008875111078
0.009862300042
0.01081754493
0.01174074964
0.01261967677
0.01345578206
0.01427552691
0.01504803285
0.01579362253
0.01654889948
0.01725196
0.0179267409
0.01861342403
0.01929467121
0.01996202954
0.02061833079
0.02125911609
0.02188877632
0.02251454883
0.02313936219
0.02378437739
0.02436805678
0.02492659496
0.02552516642
0.02611093225
0.02670402901
0.02728507932
0.0278244624
0.02834651127
0.02890299841
0.02945414675
0.02997469202
0.03050831091
0.03102589438
0.03152799059
0.03202052345
0.03250064304
0.03297324413
0.03343760844
0.03389901664
0.03434810386
0.03479227315
0.03523337631
0.03566964601
0.03608226288
0.03649874784
0.03691238584
0.03730962566
0.03770494811
0.0380903845
0.0384755199
0.03885342274
0.03922389982
0.03958884024
0.03994939869
0.04030508201
0.04065140968
0.04099549287
0.04133688269
0.04167284925
0.04200430388
0.04233046408
0.04265390018
0.04297633015
0.04329971236
0.04361806929
0.04393994948
0.04426465944
0.04458824572
0.04491514574
0.04524359077
0.04557196503
0.04590224098
0.04622655349
0.04655462891
0.04688605183
0.04722207556
0.04754683444
0.04788881625
0.04820743518
0.04848226007
0.04877002324
0.04902091421
0.04881235382
0.04794721885
0.01932554507
-0.00875560251
-0.008794715187
-0.008829621863
-0.008829590508
)


101
(
7.597967775e-07
5.064346321e-05
0.000283806073
0.0007937843345
0.001542289463
0.00243252856
0.003418179798
0.004465753402
0.005524234217
0.006571327094
0.007596009468
0.008590495236
0.009546404629
0.01047014212
0.01136385805
0.01221508343
0.0130231095
0.01381549341
0.01456203577
0.01528025147
0.01600898512
0.01668838959
0.01733825375
0.01799762632
0.01865211764
0.01929458415
0.01992744523
0.02054574207
0.02115309024
0.02175621248
0.02235832028
0.02298143077
0.02354782062
0.02409094083
0.02467176128
0.02523900221
0.0258131795
0.02637683568
0.02690200185
0.02741176568
0.02795521468
0.02849383591
0.02900376478
0.02952730108
0.03003603575
0.03053023623
0.03101575636
0.03149011163
0.03195791374
0.03241805442
0.03287522947
0.03332022135
0.03376034805
0.03419787549
0.0346315381
0.03504324769
0.03545957972
0.03587379187
0.03627232196
0.03666887211
0.03705578857
0.03744259163
0.03782300495
0.0381970405
0.03856709745
0.03893434442
0.0392973345
0.03965110507
0.04000249495
0.04035127606
0.04069591511
0.04103807282
0.04137596246
0.04171132753
0.04204594728
0.0423830917
0.0427165207
0.04305479831
0.04339718829
0.04373866105
0.04408524326
0.04443592729
0.04478949891
0.04514744081
0.04549898507
0.04585595085
0.04621705678
0.04658273401
0.04693691514
0.04731417215
0.04766862223
0.04797293738
0.04828939194
0.04856465445
0.04831727243
0.04732662329
0.0184305796
-0.00984970759
-0.009893297836
-0.009932090927
-0.009931951814
)


101
(
1.383421415e-07
4.773635405e-05
0.000271870229
0.0007638025119
0.001487238608
0.002349206477
0.003303021584
0.004316618171
0.005341880705
0.00635610648
0.007348398877
0.008311805255
0.009237217284
0.01013031383
0.0109950287
0.01181907068
0.01259997934
0.01336562265
0.01408686074
0.01477887332
0.01548146259
0.01613745257
0.01676361816
0.01739715058
0.01802568987
0.01864349598
0.01925301979
0.01984910605
0.02043473763
0.02101599594
0.02159598249
0.02219694836
0.02274500499
0.02327215377
0.02383598009
0.02438615247
0.02494252125
0.02548877847
0.02599859383
0.0264946736
0.02702427064
0.02755013861
0.02804930925
0.02856249269
0.02906202573
0.029547784
0.03002539634
0.0304929212
0.0309550454
0.03141040837
0.03186308867
0.03230386787
0.03273972627
0.03317296925
0.03360281477
0.03401227054
0.0344272029
0.03484102805
0.03524023217
0.03563756726
0.03602542102
0.0364130646
0.03679475399
0.03717065784
0.03754390096
0.03791623638
0.03828569652
0.03864657556
0.03900479871
0.03935984523
0.03971139334
0.04006242364
0.04041061106
0.04075688289
0.04110275368
0.04145245851
0.04179934472
0.04215222516
0.04251105502
0.04286956976
0.04323417828
0.04360479652
0.04398163371
0.04436615339
0.04474374883
0.04512806969
0.04551854156
0.04591326296
0.04629506577
0.04670509881
0.04709453364
0.04742859509
0.04777273639
0.04807072495
0.04778244158
0.04666365041
0.0175138419
-0.01094324234
-0.01099098902
-0.01103377242
-0.01103392351
)


101
(
-4.452320317e-07
4.493734876e-05
0.000260271281
0.0007345628068
0.001433449662
0.002267693032
0.003190398184
0.004170756558
0.005163430631
0.006145468514
0.007106063685
0.008038988574
0.00893464738
0.009797948402
0.01063419655
0.01143155625
0.01218620605
0.01292578038
0.01362235156
0.01428921232
0.01496622515
0.01559906528
0.01620245453
0.01681147889
0.01741503923
0.01800864319
0.0185950225
0.01916910272
0.01973345582
0.02029355255
0.02085213469
0.02143113201
0.02196021091
0.02247061456
0.0230174187
0.02355135515
0.02409109663
0.02462069127
0.02511491492
0.02559634007
0.02611102214
0.02662331228
0.0271112308
0.02761375311
0.02810379181
0.0285808442
0.02905008167
0.02950983669
0.0299651806
0.03041491704
0.03086262262
0.03129898912
0.03173041029
0.03215903088
0.03258427757
0.0329902413
0.0334023488
0.03381450151
0.03421349116
0.034611034
0.03499938509
0.03538734555
0.03576947014
0.03614591697
0.03652048697
0.03689581684
0.03727015289
0.03763743486
0.03800225216
0.03836307339
0.03872024192
0.03907819163
0.03943476707
0.03979055471
0.04014670323
0.04050802925
0.04086710358
0.04123275707
0.04160618147
0.04198073411
0.04236227541
0.04275055268
0.04314820323
0.04355788783
0.04396082927
0.04437080985
0.04478932685
0.04521310558
0.04562094767
0.04606123035
0.0464842829
0.04684760687
0.04721866886
0.04753777374
0.04720671212
0.04595754597
0.01657532209
-0.01203583803
-0.01208715456
-0.01213300905
-0.01213304224
)


101
(
-9.917303421e-07
4.224479179e-05
0.0002490053349
0.0007060578716
0.001380911196
0.002187972187
0.003080279348
0.004028134298
0.004988850168
0.00593936933
0.006868950034
0.007771992166
0.00863860926
0.009472935892
0.01028128879
0.01105246106
0.01178162563
0.01249581791
0.01316835263
0.01381102016
0.01446312419
0.01507314096
0.0156544732
0.01624014763
0.0168197717
0.01738981704
0.01795337844
0.01850565531
0.01904903991
0.01958853724
0.02012644983
0.02068397899
0.02119386599
0.02168684104
0.02221615574
0.02273400644
0.02325790363
0.02377183802
0.02425104219
0.02471752873
0.02521637077
0.02571397392
0.0261897521
0.02668110782
0.02716133384
0.0276294198
0.02808998224
0.0285414532
0.02898911459
0.02943214729
0.02987402091
0.0303054985
0.03073232114
0.03115613691
0.03157634426
0.03197794514
0.03238592912
0.03279494966
0.03319244962
0.03358936497
0.03397768244
0.03436552139
0.03474756723
0.03512368047
0.03549810472
0.03587436072
0.03625139363
0.03662356527
0.03699441592
0.03736083038
0.03772297745
0.03808632347
0.03844921318
0.0388126213
0.03917772972
0.03954968047
0.03991992488
0.04029697689
0.04068305839
0.04107196434
0.0414695122
0.04187383649
0.04228942417
0.04272195487
0.04314979614
0.04358439663
0.04402870008
0.04448094299
0.04491419141
0.04538216462
0.04583690085
0.04622896715
0.04662603595
0.04696460951
0.04658874164
0.04520760903
0.01561539287
-0.01312689248
-0.01318107684
-0.01322969301
-0.01322994239
)


101
(
-1.501965197e-06
3.965700492e-05
0.0002380684469
0.0006782803027
0.00132961176
0.002110027957
0.002972635216
0.003888716599
0.004818104838
0.005737765294
0.006637004687
0.007510762403
0.008349021099
0.009155169069
0.009936225823
0.01068170716
0.01138609027
0.01207558464
0.01272470374
0.01334405926
0.01397199541
0.01455958741
0.0151194442
0.01568275002
0.01623947144
0.01678673204
0.01732794562
0.01785868337
0.01838134178
0.0189006593
0.01941855189
0.01995525581
0.02044614094
0.02092132751
0.02143257447
0.02193398384
0.02244226203
0.02294134621
0.02340643778
0.02385839792
0.02434109779
0.02482305152
0.0252854501
0.02576470263
0.02623460647
0.02669346789
0.02714521658
0.02758806757
0.02802734666
0.02846276121
0.02889785104
0.0293236229
0.0297453656
0.03016422073
0.03057916955
0.03097583535
0.03137875053
0.03178326876
0.03217778237
0.03257289156
0.03296035445
0.03334750799
0.03372906256
0.03410439514
0.03447775114
0.03485322216
0.03523065901
0.03560553883
0.03598110128
0.03635268547
0.03671959647
0.03708750916
0.03745496899
0.03782378123
0.03819588128
0.03857714621
0.03895768658
0.03934511269
0.0397421664
0.04014339149
0.04055564638
0.04097497448
0.0414060694
0.0418582841
0.04230972937
0.04276871183
0.04323684538
0.0437155217
0.04417404203
0.04466807958
0.04515158659
0.04557132558
0.04599354572
0.04635017617
0.04592791666
0.04441318683
0.014634036
-0.01421552863
-0.01427193628
-0.01432234013
-0.01432240293
)


101
(
-1.976760312e-06
3.717228543e-05
0.0002274566154
0.0006512226157
0.001279539839
0.002033844348
0.002867436246
0.003752468149
0.004651159402
0.005540612693
0.006410174567
0.007255245329
0.008065804333
0.008844542006
0.009598922164
0.01031921676
0.01099946581
0.01166493025
0.01229124639
0.01288810298
0.01349264512
0.01405829102
0.01459718468
0.01513894052
0.01567372271
0.01619904366
0.01671852168
0.01722809357
0.01773025775
0.01822968554
0.01872807908
0.01924464957
0.01971697784
0.02017435607
0.02066713155
0.02115153436
0.02164389886
0.02212841418
0.02258026468
0.02301863873
0.02348552491
0.02395130638
0.0243991353
0.02486503512
0.02532381023
0.02577299523
0.02621566778
0.02664980271
0.02708034882
0.02750728764
0.02793461551
0.02835382786
0.02876976571
0.02918324554
0.02959277105
0.02998417735
0.03038131409
0.03078021775
0.03117032842
0.03156220563
0.03194770388
0.03233336869
0.03271385719
0.03308801631
0.03345982646
0.03383347576
0.03420940368
0.03458454729
0.03496270484
0.03533835347
0.03570972427
0.03608190906
0.03645292184
0.03682514166
0.03720179912
0.03759033475
0.0379799711
0.03837705825
0.03878393099
0.03919538271
0.03962034092
0.04005372963
0.04049886828
0.04096752333
0.04143995814
0.04192305358
0.04241400533
0.04291648882
0.04339942015
0.04391841085
0.04442793462
0.04487388172
0.04532013212
0.04569335298
0.04522342631
0.0435736653
0.01363126242
-0.01530110619
-0.01535890279
-0.01540956099
-0.01540867773
)


101
(
-2.416947855e-06
3.478891082e-05
0.0002171658016
0.0006248773028
0.001230683965
0.001959405525
0.002764653447
0.003619353502
0.004487978196
0.005347868061
0.006188407474
0.007005386985
0.007788883543
0.008540951746
0.009269288635
0.009964910849
0.01062163186
0.01126370961
0.01186782368
0.01244293801
0.01302486973
0.01356911863
0.01408753567
0.01460842926
0.01512213397
0.01562637365
0.01612483406
0.01661374155
0.01709570132
0.01757545562
0.01805470377
0.01855174782
0.01900613417
0.01944601116
0.01992019696
0.02038708116
0.02086294395
0.02133265824
0.02177171101
0.02219745446
0.02264945345
0.02309926916
0.02353171928
0.02398286413
0.02442923279
0.02486809326
0.02530141138
0.02572660268
0.02614823941
0.02656628469
0.02698492283
0.02739653477
0.02780586197
0.02821332534
0.0286171279
0.02900312429
0.02939403419
0.02978645587
0.03017084914
0.03055797062
0.03094019734
0.03132339033
0.03170201821
0.03207441457
0.03244427782
0.03281556284
0.03318875616
0.03356206544
0.03394031629
0.03431806168
0.0346929871
0.03506919337
0.03544339355
0.03581780832
0.03619670328
0.03658974882
0.03698645907
0.03739238828
0.03780847164
0.03822852002
0.03866373829
0.03910954121
0.03956786671
0.04005062283
0.04054052044
0.04104642217
0.04155994884
0.0420838312
0.0425893591
0.04313242432
0.04366547832
0.04413605239
0.04460520988
0.04499318476
0.04447467143
0.04268878556
0.01260724538
-0.01638287416
-0.01644127054
-0.01649434567
-0.01649537655
)


101
(
-2.823368545e-06
3.250513619e-05
0.0002071919189
0.0005992368013
0.001183032656
0.001886695744
0.002664258294
0.00348933703
0.004328524999
0.005159487943
0.005971651583
0.006761133463
0.007518186071
0.008244298193
0.00894723268
0.009618708674
0.01025247641
0.01087178787
0.01145428401
0.01200835604
0.01256845315
0.01309191175
0.01359035027
0.0140909812
0.0145843528
0.01506832763
0.01554654691
0.01601541621
0.01647757375
0.01693787325
0.01739820467
0.01787616879
0.01831321576
0.01873613368
0.01919195564
0.01964105072
0.0200997656
0.02055404877
0.02098020505
0.02139400916
0.02183224639
0.02226688975
0.02268383413
0.02311915699
0.02355165513
0.02397903155
0.0244024206
0.02481847476
0.02523106991
0.02563993585
0.02604930793
0.02645236648
0.0268540517
0.02725472675
0.02765226412
0.02803264177
0.02841720697
0.02880255696
0.02918010977
0.02956101732
0.02993847954
0.03031796421
0.03069376561
0.03106361245
0.03143097291
0.03179950217
0.03216925852
0.03253921734
0.03291529431
0.03329271568
0.03366942236
0.03404886948
0.03442607305
0.03480230594
0.03518193642
0.03557667574
0.03597750319
0.03639051678
0.03681536995
0.03724334432
0.03768656865
0.03814222762
0.0386125663
0.03910799277
0.03961195038
0.040138125
0.04067400811
0.04121764139
0.04174319302
0.0423094923
0.04286378385
0.04335704907
0.04384833431
0.04424897061
0.04368028512
0.0417581457
0.01156286222
-0.01745992882
-0.01751804873
-0.01757012301
-0.01757042659
)


101
(
-3.196874147e-06
3.031912453e-05
0.0001975307812
0.0005742934199
0.001136574174
0.001815698988
0.002566222201
0.003362382319
0.004172762284
0.004975427803
0.005759854191
0.006522429658
0.007253640427
0.007954483109
0.008632656166
0.009280524781
0.009891893936
0.0104890326
0.01105047943
0.01158416051
0.01212316711
0.01262648665
0.01310547846
0.01358639844
0.01406008424
0.01452452789
0.01498328007
0.0154328255
0.01587571606
0.01631685772
0.01675843931
0.01721760371
0.0176377903
0.01804437173
0.01848233574
0.01891369446
0.01935483605
0.01979296354
0.0202056041
0.02060756393
0.02103296097
0.02145362467
0.02185572237
0.02227476265
0.02269197919
0.02310636358
0.02351891051
0.02392541404
0.02432881529
0.02472840888
0.02512809929
0.02552180004
0.02591486303
0.02630778842
0.02669838741
0.02707274289
0.0274507762
0.02782886512
0.02819887401
0.02857224733
0.02894332331
0.02931765901
0.02968947425
0.03005581224
0.03041992861
0.03078516736
0.0311510307
0.03151671621
0.03188882774
0.03226354073
0.03263968947
0.03302074976
0.03340029158
0.03377830027
0.03415827986
0.03455278896
0.03495436844
0.03537147969
0.03580388785
0.03623961274
0.03668959505
0.03715229813
0.0376325441
0.03813964273
0.03865499207
0.03919787955
0.03975525298
0.04031788124
0.04086072082
0.04144899087
0.04202253324
0.04253602024
0.04304873354
0.04346026199
0.04284010091
0.040781672
0.01049812952
-0.01853157362
-0.01858833694
-0.01863852978
-0.01863813624
)


101
(
-3.5383239e-06
2.822913986e-05
0.0001881781893
0.0005500393844
0.001091296929
0.001746399608
0.002470517436
0.003238453442
0.004020652749
0.004795643652
0.00555296348
0.006289221182
0.006995178268
0.0076714133
0.008325462321
0.008950271495
0.009539784549
0.01011532255
0.01065626499
0.0111701616
0.01168879117
0.01217264244
0.01263275764
0.01309450813
0.01354908357
0.01399463407
0.0144346349
0.01486560848
0.01528989739
0.01571231529
0.01613533379
0.01657584753
0.01697946666
0.01737026542
0.01779105555
0.01820509251
0.01862854668
0.01904986147
0.01944813489
0.01983779848
0.02025077114
0.02065858977
0.02104698783
0.0214501131
0.02185124011
0.02225102957
0.02265125626
0.02304750586
0.02344147817
0.02383167544
0.02422156229
0.02460536251
0.02498881074
0.02537293304
0.02575567853
0.02612347076
0.02649482686
0.02686554026
0.02722757879
0.02759245085
0.02795568281
0.02832326102
0.02868972212
0.02905146853
0.02941137356
0.02977256207
0.03013401611
0.03049481389
0.03086174625
0.03123174133
0.03160489866
0.03198529859
0.03236563684
0.0327449584
0.03312549802
0.03351916165
0.03391891954
0.03433644996
0.03477372028
0.03521644928
0.03567296152
0.03614068636
0.03662781158
0.03714508511
0.03767028212
0.03822621357
0.03880281942
0.0393841565
0.03994201989
0.04055023193
0.04114146974
0.04167244705
0.04220541009
0.04262658189
0.04195342399
0.03975899659
0.009413640219
-0.01959684496
-0.01965099484
-0.01970023453
-0.01970119206
)


101
(
-3.848587223e-06
2.623336216e-05
0.0001791298843
0.000526466889
0.001047189257
0.001678781895
0.002377116643
0.003117514442
0.003872158538
0.004620091224
0.005350927485
0.006061453379
0.006742733118
0.007394998355
0.008025553239
0.008627857469
0.009196049208
0.009750543644
0.01027150686
0.01076618082
0.01126510441
0.01173016041
0.01217200608
0.01261514207
0.01305114287
0.0134783602
0.01390024175
0.01431336545
0.01471979304
0.0151240749
0.01552883214
0.01595080094
0.01633797755
0.01671336762
0.01711765135
0.0175150082
0.01792104434
0.01832525946
0.01870833989
0.01908482148
0.01948514328
0.01988080614
0.02025679318
0.02064510639
0.02103011621
0.02141408893
0.02180033105
0.02218503069
0.02256904466
0.02294976066
0.02332976342
0.02370339713
0.02407651526
0.02445071388
0.02482449935
0.0251848714
0.02554916653
0.02591256192
0.02626664007
0.02662237763
0.02697644639
0.02733563309
0.02769515943
0.02805108189
0.02840573425
0.02876193777
0.02911827886
0.02947361081
0.02983452281
0.03019832906
0.03056630798
0.03094351322
0.03132237871
0.03170162165
0.03208259909
0.03247576709
0.03287264145
0.03328730226
0.03372563088
0.0341732791
0.03463606961
0.0351079252
0.03559890997
0.03612391915
0.03665784914
0.03722387306
0.03781643223
0.03841589802
0.03898715959
0.03961265788
0.04022010331
0.04076623245
0.04131773694
0.04174717779
0.04101992961
0.03868995149
0.008309962785
-0.02065436039
-0.02070467234
-0.02075041339
-0.02075126586
)


101
(
-4.128544246e-06
2.432993505e-05
0.0001703815074
0.0005035679358
0.001004239221
0.001612829896
0.002285992425
0.002999528755
0.003727240605
0.004448725335
0.00515369314
0.005839070092
0.006496238804
0.007125150069
0.007732829817
0.008313186244
0.008860586731
0.009394581551
0.009896079636
0.01037205909
0.0108518924
0.01129880485
0.01172301378
0.01214812343
0.0125660809
0.01297546454
0.01337976547
0.01377568309
0.0141649978
0.01455186627
0.01493883233
0.01534243036
0.01571317536