/*--------------------------------*- C++ -*----------------------------------*\
| =========                 |                                                 |
| \\      /  F ield         | OpenFOAM: The Open Source CFD Toolbox           |
|  \\    /   O peration     | Version:  2.3.1                                 |
|   \\  /    A nd           | Web:      www.OpenFOAM.org                      |
|    \\/     M anipulation  |                                                 |
\*---------------------------------------------------------------------------*/
FoamFile
{
    version     2.0;
    format      ascii;
    class       dictionary;
    location    "constant";
    object      GRPSI36;
}
// * * * * * * * * * * * * * * * * * * * * * * * * * * * * * * * * * * * * * //

GRPSI36_table
101
(

101
(
-2.231361135e-05
-0.0007372592656
-0.001504619888
-0.002267169823
-0.002990161296
-0.003657667891
-0.004262761522
-0.004793745842
-0.005257481389
-0.005649813896
-0.005972912243
-0.006225337623
-0.00641484377
-0.006522930513
-0.006570304075
-0.006553858955
-0.006466960364
-0.006304358077
-0.006124120886
-0.005823823556
-0.005526476498
-0.005192319524
-0.00476608351
-0.004325524001
-0.003866511869
-0.003378788833
-0.00286624974
-0.002336113622
-0.001775317326
-0.001203523492
-0.0006149322904
-2.344095429e-05
0.000533892444
0.001245223834
0.001876528712
0.002518067303
0.003158325808
0.003779720975
0.004435675224
0.005138816873
0.005839789386
0.00647391349
0.007157257963
0.00783646545
0.008481312301
0.00915811782
0.009812102272
0.01048958463
0.01114929108
0.01182373453
0.01247782592
0.01313348358
0.01378525776
0.01442884623
0.01506108871
0.01568517319
0.01633815273
0.01693869313
0.01756413657
0.01816446063
0.01876944473
0.01935951258
0.01993841716
0.02051302908
0.02107662684
0.02163315002
0.02217594821
0.02270718075
0.0232349934
0.02374447515
0.02424503375
0.024734873
0.02522192549
0.02568796817
0.0261353752
0.02656293139
0.02699048326
0.02740127039
0.02779131538
0.02816372486
0.02851867836
0.02886616843
0.02919066407
0.02949999962
0.02978990906
0.03005957225
0.03030881642
0.03054018633
0.03075245292
0.03094825674
0.03112172284
0.03127718708
0.03141454754
0.03153505899
0.03163938642
0.03181310267
0.03209519094
0.03305972407
0.03402357163
0.03498178145
0.03593999109
)


101
(
-2.23136113e-05
-0.0007372968187
-0.001504803684
-0.002267719655
-0.002991373581
-0.003659836355
-0.00426618903
-0.004799069289
-0.005264850648
-0.00565982088
-0.005985991574
-0.006242137295
-0.006435565423
-0.006549356666
-0.006601789412
-0.006591221161
-0.006511462959
-0.006357261402
-0.00618046198
-0.00589433358
-0.005599469021
-0.005271327587
-0.004859151458
-0.004424205596
-0.003970308681
-0.003489377056
-0.00298360842
-0.002459306035
-0.001906503635
-0.00134001426
-0.000757434819
-0.0001699011423
0.0003908231863
0.00107069035
0.00170799452
0.002347083404
0.00298533401
0.003608561695
0.004255583669
0.004943357172
0.00563787672
0.006283439641
0.006956712176
0.007631936773
0.008282287651
0.008951348208
0.009606857507
0.01027714414
0.01093718861
0.01160605273
0.01226175422
0.01291592177
0.01356669346
0.01421077018
0.01484503985
0.01547091996
0.01611502979
0.01672565883
0.01734665365
0.0179511409
0.01855516698
0.0191479603
0.01973015574
0.02030634144
0.02087293646
0.02143185096
0.0219788652
0.02251451566
0.02304437718
0.02355944355
0.02406426536
0.02455805513
0.0250462402
0.02551812564
0.02597335089
0.02641045546
0.02684154825
0.02725816391
0.0276558625
0.02803609781
0.02839895762
0.02875084126
0.0290831402
0.02939933138
0.02969703819
0.02997560156
0.03023297238
0.0304713337
0.03069031622
0.0308928566
0.03107343366
0.03123716505
0.03138097089
0.03150786507
0.03161983938
0.03180152804
0.03209507085
0.03305960138
0.03402344797
0.03498166575
0.03593988213
)


101
(
-2.23136113e-05
-0.0007373715238
-0.001505169818
-0.002268815566
-0.002993790214
-0.00366415936
-0.004273020603
-0.004809665199
-0.005279534764
-0.005679741455
-0.006012023346
-0.006275548814
-0.006476800057
-0.006601782915
-0.006664426129
-0.006665503694
-0.006599824459
-0.0064622118
-0.006293256702
-0.006033345855
-0.005745817609
-0.005429149183
-0.005043008842
-0.004621247805
-0.00417804271
-0.003710287057
-0.003218015324
-0.002705704237
-0.002168283232
-0.001613186248
-0.001042466794
-0.0004634294177
0.0001012756811
0.0007308388656
0.001368353333
0.00200274741
0.002636855322
0.003262197583
0.003895757048
0.004557050824
0.005235948181
0.005895305966
0.006555584769
0.007222103128
0.00787860145
0.008537089003
0.009192713304
0.00985209084
0.01051026089
0.01117023835
0.01182623578
0.01247794443
0.01312653746
0.0137706367
0.01440771983
0.01503685149
0.01566915455
0.01629168984
0.01690881075
0.01751880061
0.01812278026
0.01871968322
0.01930753364
0.01988746153
0.02045946469
0.02102332682
0.02157779632
0.02212173772
0.02265690654
0.02318157199
0.02369519501
0.02419751594
0.02469038165
0.02517223896
0.02564076436
0.02609436468
0.02653515678
0.02696361692
0.02737606938
0.02777163913
0.0281499598
0.02851286147
0.02885983588
0.02919001645
0.02950278287
0.0297981681
0.03007279581
0.03032657664
0.03055962054
0.03077617612
0.03097119512
0.03115080711
0.03130980456
0.03145051137
0.03157836844
0.03177812279
0.03209492178
0.03305942976
0.03402326381
0.0349815204
0.03593977511
)


101
(
-2.23136113e-05
-0.000737445422
-0.001505533014
-0.002269903938
-0.002996190993
-0.00366845456
-0.004279805385
-0.004820159795
-0.005294109146
-0.005699476877
-0.006037802276
-0.006308587546
-0.006517615495
-0.006653377111
-0.006726372183
-0.006738907092
-0.006686917297
-0.006565466243
-0.006406072365
-0.006168750743
-0.005892386997
-0.005586654429
-0.005222823976
-0.004817154716
-0.004385829021
-0.003930732447
-0.003451800928
-0.002951992974
-0.002429022696
-0.001886507197
-0.001327619537
-0.0007580487243
-0.0001940395835
0.000404874858
0.001027305165
0.001654979518
0.002283781688
0.002908378721
0.003534725252
0.004177426397
0.004838326276
0.005497210173
0.00615245229
0.006810555873
0.007466008983
0.008119756573
0.008772174441
0.009425181958
0.01007858114
0.01073249452
0.01138512921
0.01203450891
0.01268069119
0.01332338256
0.01396110673
0.01459238032
0.01522098495
0.01584540763
0.01646375619
0.01707610329
0.01768212287
0.01828170827
0.01887373153
0.01945786909
0.0200344893
0.02060332459
0.02116388252
0.02171509766
0.02225700137
0.02278936959
0.02331166648
0.0238230693
0.02432387644
0.02481431527
0.02529327145
0.02575951153
0.02621241289
0.02665301325
0.02707930899
0.02748990934
0.02788346726
0.02826029432
0.02862130813
0.02896589279
0.02929341937
0.02960435879
0.02989634214
0.03016809395
0.03041716909
0.03064882197
0.03085912133
0.03105448321
0.0312312458
0.031387996
0.03153283546
0.03175392203
0.0320948857
0.03305943058
0.0340232988
0.0349815487
0.03593979316
)


101
(
-2.231361338e-05
-0.0007375185673
-0.001505893364
-0.002270984909
-0.002998576179
-0.003672722352
-0.004286543973
-0.004830554826
-0.00530857252
-0.005719030637
-0.006063330773
-0.006341259928
-0.006558008561
-0.006704176666
-0.006787587356
-0.006811434403
-0.006772774748
-0.006667055467
-0.006518538054
-0.00630123537
-0.006038346702
-0.005743871887
-0.005399502661
-0.005011195568
-0.004593168434
-0.004150755602
-0.003684975717
-0.003197950517
-0.002688929491
-0.002159609399
-0.001612913471
-0.001053556918
-0.0004934434975
8.569644945e-05
0.0006894088227
0.001305839697
0.001927191065
0.00254845191
0.003169845826
0.003799958084
0.004444703858
0.005095718303
0.005745695337
0.006396776236
0.007047936459
0.007697627885
0.008346301675
0.008994392197
0.009642789914
0.01029138318
0.01093971951
0.01158605672
0.01222966412
0.01287028506
0.01350718778
0.01413911585
0.01476669813
0.01539101277
0.0160102838
0.01662438112
0.01723258238
0.01783475755
0.01843021419
0.01901829823
0.01959918414
0.02017268354
0.02073867332
0.02129636768
0.02184516715
0.02238484893
0.02291519561
0.0234353791
0.02394509119
0.02444466401
0.02493357467
0.02541092463
0.0258754434
0.02632807505
0.02676753375
0.02719283498
0.0276019478
0.02799383033
0.02836954958
0.02872890291
0.02907157199
0.02939805789
0.02970644542
0.02999651637
0.03026420873
0.03051254241
0.03073923091
0.03095140519
0.03114605499
0.03132155941
0.03148457141
0.03172864846
0.03209485006
0.03305953575
0.0340235164
0.03498168117
0.03593985488
)


101
(
-2.231361135e-05
-0.0007375907371
-0.001506250404
-0.002272057761
-0.003000944865
-0.003676961725
-0.004293235376
-0.004840850207
-0.005322921802
-0.005738403578
-0.006088609005
-0.006373569802
-0.006597975073
-0.006754212362
-0.00684804108
-0.006883080847
-0.006857423571
-0.006767010473
-0.006630354497
-0.006431274603
-0.006183178119
-0.005900655094
-0.005573725972
-0.005203065279
-0.00479956261
-0.004370243543
-0.003917547372
-0.003443436147
-0.002948082737
-0.002432267878
-0.001898236454
-0.001349808353
-0.0007958610468
-0.000230668865
0.0003553113278
0.00095733009
0.001568673565
0.002183922602
0.002800332911
0.003421462486
0.004053077422
0.004693569923
0.005336297033
0.005980459506
0.006625924989
0.007270917698
0.007915450296
0.00855908737
0.009202706106
0.009846274225
0.01049004172
0.01113279513
0.01177356785
0.0124118547
0.01304718382
0.01367863463
0.01430561588
0.0149295018
0.01554904329
0.01616428157
0.01677435972
0.01737900147
0.01797761843
0.01856944036
0.01915440559
0.01973229372
0.02030324726
0.02086681599
0.02142227925
0.02196918055
0.02250728952
0.02303589825
0.0235545407
0.02406349145
0.02456243361
0.02505062599
0.02552650778
0.02599091366
0.02644296555
0.02688219597
0.02730676162
0.02771453646
0.0281058245
0.02848058176
0.02883878872
0.02918121446
0.02950615119
0.02981383147
0.03010121363
0.03036827439
0.03061276465
0.03084273373
0.03105568173
0.03125180065
0.0314343452
0.03170224726
0.0320948606
0.03305951232
0.03402346505
0.03498165425
0.03593985417
)


101
(
-2.23136113e-05
-0.0007376621257
-0.001506604504
-0.002273123042
-0.003003297807
-0.003681173711
-0.004299880991
-0.004851048524
-0.005337157031
-0.005757599384
-0.006113640728
-0.00640552425
-0.006637516361
-0.006803516068
-0.006907716644
-0.006953844531
-0.00694089215
-0.006865371017
-0.006741284894
-0.006559192141
-0.006326576245
-0.006056782824
-0.005745968928
-0.005392704972
-0.0050046033
-0.004588978453
-0.004149481457
-0.003688363989
-0.003206491652
-0.002704308304
-0.002183385025
-0.001646624079
-0.001100609083
-0.0005464563895
2.418579815e-05
0.0006109671062
0.001209928428
0.001816490494
0.002426595145
0.003040259389
0.003661327916
0.004291166696
0.004925246178
0.005561868289
0.00620074773
0.006840212991
0.00748005499
0.008119238305
0.008758244316
0.009396950082
0.01003599165
0.01067473302
0.01131234059
0.01194811011
0.01258154494
0.01321192732
0.01383818346
0.01446146155
0.01508082817
0.01569660204
0.01630803104
0.01691480282
0.01751634276
0.01811177549
0.01870078959
0.01928296508
0.01985856122
0.02042747906
0.02098919353
0.02154315158
0.02208891105
0.02262577325
0.0231532116
0.02367149043
0.02418042429
0.02467943292
0.02516677251
0.02564299491
0.02610738144
0.02655992984
0.02699927237
0.0274231817
0.02783088535
0.0282219519
0.02859642009
0.02895527287
0.02929698458
0.02962241184
0.02992900643
0.03021654914
0.03048027258
0.03072925366
0.03096153526
0.03117892458
0.03138253679
0.03167458186
0.0320951273
0.03305958918
0.03402338089
0.03498157486
0.03593972713
)


101
(
-2.23136113e-05
-0.0007377326485
-0.001506955475
-0.002274180448
-0.003005634633
-0.003685357958
-0.004306480612
-0.004861150533
-0.005351276402
-0.005776619334
-0.006138427465
-0.006437128003
-0.00667663179
-0.006852113565
-0.006966600348
-0.007023717109
-0.007023201023
-0.006962171914
-0.006851141167
-0.006685184398
-0.006468356817
-0.006212022553
-0.005916524002
-0.005580178862
-0.005207998207
-0.004806699113
-0.004380682428
-0.003932672221
-0.003464154101
-0.002975606412
-0.00246811173
-0.001943715394
-0.001407145637
-0.0008629004496
-0.0003053062033
0.0002668615936
0.0008522146833
0.001447837486
0.002049709834
0.002655854244
0.00326793504
0.003887903254
0.004512884586
0.005141384511
0.005772959373
0.006406070803
0.007040533698
0.007674978739
0.008309433903
0.008943467188
0.009577718755
0.01021203818
0.01084602104
0.01147897868
0.01211028746
0.01273928535
0.01336470563
0.01398732608
0.0146063026
0.01522215162
0.01583435583
0.01644275067
0.01704681308
0.01764565589
0.01823871984
0.01882527215
0.01940541979
0.01997930268
0.02054677061
0.02110745844
0.021660767
0.0222058274
0.0227419959
0.02326949561
0.02378827358
0.02429795759
0.0247968172
0.02528504477
0.02576186424
0.02622755155
0.02668119532
0.02712084485
0.02754529732
0.02795338115
0.02834495553
0.02872106249
0.0290799446
0.02942345657
0.02974899002
0.03005772411
0.03034194107
0.03061120657
0.03086398031
0.03110305812
0.03132941468
0.03164650223
0.0320952494
0.03305970335
0.03402348213
0.03498163433
0.0359397509
)


101
(
-2.231361546e-05
-0.000737802425
-0.001507303545
-0.002275230305
-0.003007955801
-0.003689515136
-0.004313035251
-0.004871158378
-0.005365279781
-0.005795466115
-0.006162972398
-0.006468387465
-0.006715323475
-0.006900030794
-0.007024688177
-0.007092692538
-0.007104370033
-0.007057450276
-0.006959782105
-0.006809375166
-0.006608413472
-0.006366152681
-0.006085553832
-0.005765611853
-0.005409570756
-0.005023147826
-0.004610995837
-0.004176279282
-0.003721062433
-0.003246090273
-0.002752209665
-0.002240755712
-0.001714916857
-0.001180530975
-0.0006344026833
-7.556749365e-05
0.0004960598735
0.001079277389
0.001671010434
0.002268625594
0.002872163899
0.003483021332
0.004099027654
0.004719150101
0.005342966175
0.005969047878
0.006597389932
0.007226571227
0.007856305731
0.008485806618
0.009115436422
0.009745157997
0.01037499018
0.01100462508
0.01163345251
0.01226074643
0.01288518048
0.01350721719
0.01412582005
0.01474154233
0.01535410037
0.01596355836
0.01656957265
0.01717140593
0.01776839793
0.01835948367
0.01894435965
0.01952312552
0.02009593163
0.02066285822
0.02122344905
0.02177664683
0.02232157906
0.02285829776
0.0233868017
0.02390694999
0.02441725982
0.02491769154
0.02540716665
0.02588601131
0.02635382503
0.02680893434
0.02725003844
0.02767540241
0.02808464702
0.02847886904
0.02885579708
0.02921776171
0.02956265949
0.02989236325
0.03019842097
0.03048894537
0.03076339908
0.03102465092
0.03127508664
0.03161829327
0.03209512722
0.03305968051
0.03402354533
0.03498172114
0.03593987799
)


101
(
-2.231361546e-05
-0.0007378711665
-0.001507648097
-0.002276271658
-0.003010260072
-0.003693643834
-0.004319543496
-0.004881071485
-0.005379164169
-0.005814138843
-0.006187275244
-0.006499305298
-0.006753590481
-0.006947287143
-0.007081977321
-0.007160762269
-0.007184412074
-0.007151239484
-0.007067094844
-0.006931827757
-0.00674667983
-0.006518973644
-0.006253118435
-0.005949121796
-0.005609220719
-0.00523808775
-0.004840228307
-0.004419075675
-0.003977187686
-0.003515712285
-0.003035507946
-0.002537420619
-0.002023394509
-0.001499402668
-0.0009639913672
-0.0004172117008
0.0001413397534
0.00071161281
0.001291755341
0.001879458027
0.002474017441
0.003076060028
0.003683331674
0.004295080686
0.004910935842
0.005529538764
0.006151111284
0.006774431293
0.007399063853
0.008023933167
0.008649097331
0.009274347095
0.009899815344
0.01052557398
0.01115137343
0.01177653065
0.01239969468
0.01302109877
0.01363941925
0.01425505656
0.01486780072
0.01547791549
0.01608529929
0.01668950527
0.01729001572
0.01788562729
0.01847551617
0.01905939848
0.01963744147
0.02021015577
0.02077755142
0.02133867107
0.02189238185
0.02243842737
0.02297669081
0.02350720225
0.02402876672
0.02454143768
0.02504387524
0.02553604726
0.02601789931
0.02648839656
0.0269461189
0.0273889412
0.02781603774
0.02822898432
0.02862501153
0.02900579663
0.02937063643
0.02972132565
0.03005027635
0.03036286653
0.03065994709
0.03094421308
0.03121959156
0.03158939657
0.03209515862
0.03305972164
0.0340235931
0.03498172418
0.03593995165
)


101
(
-2.231360719e-05
-0.0007379387183
-0.001507988792
-0.00227730397
-0.003012546755
-0.003697743321
-0.004326004739
-0.004890890189
-0.005392927751
-0.005832637489
-0.006211336879
-0.006529885116
-0.006791434061
-0.006993900329
-0.00713846903
-0.007227920495
-0.007263338559
-0.00724357098
-0.007173002997
-0.007052565139
-0.006883109673
-0.006670319114
-0.006419212172
-0.006130811132
-0.005806922718
-0.005451335973
-0.005068176255
-0.004660925818
-0.004232489187
-0.003784454036
-0.003317893574
-0.002833417023
-0.002332031575
-0.001819249979
-0.00129449802
-0.0007588995174
-0.000212486917
0.0003450493104
0.0009128232989
0.001489368303
0.002074001857
0.002666925848
0.003265558024
0.003869004214
0.004476878884
0.005087813185
0.005702136905
0.00631895666
0.006938006486
0.007557982074
0.008178667082
0.008799575069
0.009420757173
0.01004240438
0.0106646284
0.01128708002
0.01190848676
0.01252902756
0.0131470713
0.01376273722
0.0143757162
0.01498633307
0.01559468521
0.01620062953
0.01680398207
0.01740371575
0.01799873177
0.01858811389
0.01917168082
0.01975006865
0.0203237953
0.02089238233
0.02145470845
0.02201019191
0.02255840634
0.0230993512
0.02363200183
0.02415670548
0.02467228935
0.02517818878
0.02567407278
0.02615978119
0.02663422399
0.02709482451
0.02754000753
0.02797174479
0.02838776618
0.02878816663
0.02917308373
0.02954530317
0.02989749656
0.03023315434
0.03055372213
0.03086198341
0.031162994
0.03156004726
0.03209522612
0.03305972943
0.03402352994
0.03498152002
0.03593959563
)


101
(
-2.231360714e-05
-0.0007380056109
-0.001508326696
-0.002278328819
-0.003014817953
-0.003701816286
-0.004332422378
-0.00490061935
-0.00540657387
-0.005850967302
-0.006235163819
-0.006560136282
-0.006828862325
-0.007039893859
-0.007194174731
-0.007294169731
-0.007341164807
-0.007334483037
-0.00727745675
-0.007171601655
-0.007017676093
-0.006820040249
-0.00658378382
-0.006310750869
-0.006002699661
-0.005662776378
-0.005294651392
-0.004901669261
-0.004486899267
-0.004052309241
-0.003599309217
-0.003128533663
-0.002640365323
-0.002139627108
-0.001625957956
-0.001101206916
-0.0005661196122
-2.06545284e-05
0.0005346826171
0.001099228592
0.00167288529
0.002255949236
0.002845691805
0.003440805661
0.004040718324
0.004643966268
0.005250836856
0.00586066177
0.006473502781
0.007088146616
0.007704176655
0.008320796245
0.008937813388
0.009555370882
0.0101737582
0.01079296747
0.01141202897
0.01203124566
0.01264883154
0.01326457987
0.01387791809
0.01448909171
0.01509826655
0.01570550776
0.01631100827
0.01691413122
0.01751393591
0.01810904092
0.0186986164
0.01928295139
0.01986283142
0.02043838799
0.02100894799
0.02157381464
0.02213219
0.0226837673
0.02322758434
0.02376414373
0.02429269613
0.02481260708
0.02532288149
0.02582358769
0.02631464288
0.02679340685
0.02725733112
0.02770771992
0.02814405716
0.02856522907
0.02897055397
0.02936464086
0.02974030304
0.03010000072
0.0304448344
0.03077808894
0.03110540454
0.03153050832
0.03209520245
0.03305962418
0.03402332502
0.03498103541
0.03593874209
)


101
(
-2.231360713e-05
-0.0007380715532
-0.001508661181
-0.002279345236
-0.00301707239
-0.003705861274
-0.004338794979
-0.004910258381
-0.005420099986
-0.005869126906
-0.006258755573
-0.006590060939
-0.006865875821
-0.00708528243
-0.007249101366
-0.007359505914
-0.007417896302
-0.007424003757
-0.007380417984
-0.007288928788
-0.007150349606
-0.006968013772
-0.006746747773
-0.006488961513
-0.006196576738
-0.005872339948
-0.005519488608
-0.005141123309
-0.004740304116
-0.00431925338
-0.00387974288
-0.003422627057
-0.002947997908
-0.002460011886
-0.001958106347
-0.001444369116
-0.0009201503816
-0.0003860044162
0.0001573201869
0.0007096079
0.001271485444
0.001843752048
0.002423936117
0.003010482846
0.003602383623
0.004197957503
0.004797347856
0.005399922363
0.006006045324
0.006614808948
0.007225769261
0.007837958891
0.008450900149
0.009064483602
0.009678998715
0.01029467468
0.01091087943
0.01152815606
0.01214487657
0.0127605789
0.01337433734
0.01398623037
0.01459632483
0.01520472757
0.01581186738
0.0164176116
0.01702145984
0.01762203822
0.01821792556
0.01880870982
0.0193949864
0.01997726481
0.02055553313
0.02112943075
0.02169800848
0.02226053749
0.02281580876
0.02336428685
0.02390558331
0.02443948264
0.02496459969
0.02548039666
0.02598769055
0.0264846866
0.02696809982
0.02743754586
0.0278939544
0.02833672839
0.02876358486
0.02917942598
0.02957898787
0.02996348264
0.03033337897
0.03069260083
0.03104679261
0.03150061304
0.03209508866
0.03305931111
0.0340227985
0.03498007955
0.03593729969
)


101
(
-2.23136155e-05
-0.0007381368011
-0.001508992747
-0.002280353942
-0.003019311026
-0.003709879567
-0.004345124314
-0.004919810332
-0.005433507736
-0.00588711918
-0.006282116127
-0.006619665665
-0.006902480752
-0.007130084305
-0.007303262373
-0.007423932451
-0.007493543407
-0.007512161285
-0.007481873954
-0.00740454127
-0.007281107294
-0.00711413622
-0.006908002652
-0.006665428801
-0.006388568608
-0.006079975933
-0.005742543222
-0.00537909868
-0.004992556756
-0.004585233639
-0.004159203165
-0.003715652987
-0.003254673858
-0.002779925136
-0.002290489457
-0.001788286867
-0.001274943773
-0.0007515985977
-0.0002195878142
0.0003207214799
0.0008704291656
0.001431055819
0.002000770564
0.00257820372
0.003161898566
0.003749750186
0.004341681261
0.004936941323
0.005536020089
0.006138404613
0.006743833016
0.007351234834
0.007959965955
0.008569675315
0.009180376247
0.009792419133
0.01040543192
0.01102025779
0.01163556055
0.01225085671
0.01286495447
0.0134776526
0.01408886
0.01469855828
0.01530719439
0.01591500993
0.01652206129
0.01712740968
0.01772945097
0.01832708162
0.01892023359
0.01950938281
0.020094986
0.02067734482
0.02125583033
0.02182950484
0.02239664189
0.0229573503
0.02351136843
0.02405907281
0.02459929922
0.02513070579
0.0256540435
0.02616885227
0.02667215395
0.02716161973
0.02763794557
0.02810245224
0.02855204258
0.02898995655
0.02941362528
0.02982361443
0.03021933515
0.03060549529
0.03098715195
0.03147010779
0.03209489393
0.03305874049
0.03402184592
0.03497845996
0.03593487295
)


101
(
-2.231362376e-05
-0.0007382010583
-0.001509320764
-0.002281353951
-0.003021532556
-0.003713869659
-0.004351408899
-0.004929274562
-0.005446794902
-0.005904942547
-0.006305244608
-0.006648951935
-0.006938678331
-0.007174311183
-0.007356666134
-0.007487449792
-0.007568109013
-0.007598978409
-0.007581813642
-0.007518435884
-0.007409930606
-0.007258313514
-0.007067434663
-0.006840101792
-0.006578668607
-0.006285643866
-0.005963695053
-0.005615409465
-0.005243477185
-0.004850151727
-0.004437680053
-0.00400760403
-0.003560247878
-0.003098994825
-0.002622597698
-0.002132600028
-0.001630529358
-0.00111785809
-0.0005965456215
-6.76195652e-05
0.0004700647669
0.001018543679
0.001576884596
0.002144326156
0.00271936821
0.003299368279
0.003883804358
0.004471775929
0.005063686941
0.005659286369
0.00625867733
0.00686091306
0.007465155636
0.008070895431
0.008677893451
0.009286276773
0.009895897604
0.01050789431
0.01112124033
0.01173566591
0.0123498691
0.01296329926
0.01357570599
0.0141869076
0.01479723297
0.01540696892
0.01601661197
0.01662585857
0.01723341856
0.01783788043
0.01843836028
0.01903483421
0.01962781087
0.02021813427
0.02080588734
0.02139046127
0.0219698139
0.02254327831
0.02311022598
0.02367155499
0.02422685952
0.0247744682
0.02531420064
0.02584636002
0.0263693576
0.02687982264
0.02737651974
0.02786257744
0.0283356153
0.02879656702
0.02924457495
0.02968061314
0.03010263877
0.0305165361
0.03092641726
0.03143883331
0.0320943305
0.03305767072
0.0340202263
0.0349758715
0.0359318044
)


101
(
-2.231360713e-05
-0.0007382634808
-0.001509643476
-0.002282342573
-0.003023733403
-0.003717827245
-0.004357643971
-0.004938646718
-0.00545995533
-0.00592259092
-0.006328135293
-0.006677916024
-0.006974464521
-0.007217968283
-0.007409317155
-0.007550054795
-0.00764159024
-0.007684468723
-0.007680233548
-0.007630605045
-0.007536800885
-0.007400467225
-0.007224923694
-0.007012899557
-0.006766850226
-0.006489311856
-0.006182847423
-0.005849870773
-0.005492846509
-0.00511384685
-0.004715127885
-0.004298501688
-0.003864647053
-0.003416951173
-0.002953964846
-0.002476806499
-0.001986637326
-0.001484909853
-0.0009740276344
-0.0004558092955
7.03836836e-05
0.0006066808915
0.001152991644
0.001709455677
0.002275051741
0.002846856459
0.00342370661
0.004004381357
0.004589136876
0.005177752134
0.005770648548
0.006367227337
0.006966661098
0.0075682317
0.00817150984
0.008776336287
0.009382460764
0.009991286433
0.01060220342
0.01121524477
0.01182916355
0.01244314532
0.01305670875
0.01366952743
0.01428178666
0.01489361647
0.01550565155
0.01611814059
0.01673039983
0.01734117975
0.01794911426
0.0185534273
0.01915422755
0.01975244305
0.02034880262
0.02094357673
0.02153502134
0.02212174027
0.02270219301
0.02327716394
0.02384719791
0.02441122544
0.02496807663
0.02551759114
0.02605980477
0.02659178866
0.02710982361
0.0276173741
0.02811417391
0.0285992612
0.0290718
0.02953460116
0.02998330252
0.03042543976
0.03086439951
0.03140688963
0.03209316024
0.03305575891
0.03401749075
0.03497185217
0.03592641325
)


101
(
-2.231360713e-05
-0.0007383254233
-0.001509963553
-0.002283323914
-0.003025918993
-0.003721759075
-0.004363837746
-0.004947937125
-0.005472999277
-0.005940075896
-0.006350801204
-0.006706573595
-0.007009856311
-0.007261081586
-0.00746124344
-0.007611766833
-0.007714007953
-0.00776866434
-0.007777156141
-0.007741068107
-0.007661728395
-0.00754054574
-0.007380371717
-0.007183733847
-0.006953083888
-0.006690975081
-0.006399954231
-0.006082351727
-0.005740461835
-0.005376126628
-0.004991455028
-0.004588381538
-0.004167929142
-0.003733683758
-0.003284256966
-0.002820399102
-0.002342796746
-0.001852601902
-0.001352309905
-0.0008443439021
-0.0003289621748
0.000195637342
0.0007297081098
0.001274350272
0.001829455909
0.002392380621
0.002961433568
0.00353476728
0.004112369393
0.004693937656
0.005280056038
0.005870506126
0.006464703616
0.007061834609
0.007661264411
0.008262574537
0.008865273005
0.009470766185
0.01007881397
0.0106898786
0.01130297816
0.01191721982
0.01253179372
0.01314622998
0.0137605507
0.0143747178
0.0149892741
0.01560472178
0.01622100825
0.01683735842
0.01745240485
0.01806483445
0.01867407093
0.01928064632
0.01988540816
0.02048952841
0.02109230461
0.02169235071
0.02228701651
0.02287610516
0.02346061027
0.02404076515
0.02461528409
0.02518268436
0.02574375076
0.02629721829
0.02683769571
0.02736705622
0.02788760283
0.02839776815
0.02889514513
0.02938530467
0.02986139235
0.0303320449
0.0308008864
0.03137398856
0.03209114404
0.03305273535
0.03401333217
0.03496604061
0.03591833792
)


101
(
-2.231362376e-05
-0.0007383868647
-0.001510280992
-0.002284297822
-0.003028089101
-0.003725664951
-0.004369990308
-0.00495714689
-0.005485927015
-0.005957398213
-0.00637324352
-0.00673492765
-0.007044857363
-0.007303662811
-0.007512460456
-0.007672595225
-0.007785368974
-0.007851583608
-0.007872591181
-0.007849829314
-0.007784713828
-0.007678506746
-0.007533678365
-0.007352491073
-0.007137296385
-0.00689060971
-0.006614980603
-0.006312745291
-0.005986120353
-0.005636749028
-0.005266482526
-0.004877188703
-0.004470138757
-0.004049186355
-0.00361325933
-0.00316294611
-0.002698486961
-0.002220554921
-0.001731366198
-0.001233623094
-0.0007284508857
-0.0002148288638
0.0003073083973
0.000839692115
0.001383316852
0.001936355337
0.002497071899
0.003062944463
0.003633379041
0.004207900869
0.00478708005
0.005371009586
0.005959496223
0.006551826407
0.007147222466
0.007744986197
0.00834434548
0.008946496725
0.00955139071
0.01015994532
0.01077161264
0.01138562245
0.01200093907
0.01261684789
0.01323319681
0.01384985673
0.01446716565
0.0150856023
0.01570553069
0.01632677095
0.01694829607
0.01756866151
0.0181867591
0.01880244867
0.01941607848
0.02002911155
0.02064218556
0.02125488201
0.02186404641
0.02246809638
0.02306740145
0.02366319339
0.02425539632
0.0248414442
0.02542140108
0.02599587692
0.02655958976
0.02711158346
0.02765571661
0.0281915842
0.02871447126
0.02923217392
0.029736683
0.03023617527
0.03073554519
0.0313396483
0.03208799783
0.0330482661
0.03400740837
0.03495804323
0.03590876357
)


101
(
-2.231360718e-05
-0.0007384461323
-0.001510592411
-0.002285259035
-0.003030236716
-0.003729536313
-0.004376091831
-0.004966266011
-0.005498726637
-0.005974545311
-0.00639544921
-0.006762965885
-0.007079455479
-0.007345706645
-0.007562966659
-0.007732535674
-0.007855663028
-0.007933223706
-0.007966536619
-0.007956880319
-0.007905745109
-0.007814309308
-0.007684738828
-0.007519037126
-0.007319366412
-0.007088140416
-0.006827879884
-0.006540968817
-0.006229645514
-0.005895449006
-0.00553994868
-0.005164776988
-0.004771270177
-0.004363527181
-0.003940915171
-0.003504161817
-0.003053201414
-0.002588195954
-0.002110857133
-0.001623759066
-0.001128566131
-0.0006252295113
-0.0001143037339
0.0004059467877
0.0009373883952
0.001479421911
0.002030876055
0.00258890697
0.003152122172
0.003719619049
0.004291813495
0.004868937147
0.005451211625
0.006038279901
0.00662934406
0.007223506667
0.007819616319
0.008418528506
0.00902015815
0.009625750058
0.01023536492
0.01084851374
0.01146417479
0.01208131161
0.01269953269
0.013318675
0.01393886972
0.01456046225
0.01518393529
0.0158095888
0.0164368877
0.01706464656
0.01769157275
0.018316965
0.01894035246
0.01956268373
0.02018537571
0.02080954894
0.02143276103
0.0220523594
0.02266729534
0.02327865627
0.02388812608
0.02449339675
0.02509279458
0.02568780506
0.02627490501
0.02685063959
0.02741832866
0.02798024511
0.02852955962
0.02907488994
0.02960858706
0.03013752169
0.03066804441
0.03130359737
0.03208342844
0.0330418895
0.03399915647
0.03494726269
0.03589571156
)


101
(
-2.231360713e-05
-0.0007385048538
-0.001510901032
-0.002286212499
-0.003032368354
-0.003733381234
-0.004382152032
-0.004975306579
-0.005511410787
-0.005991531135
-0.006417433926
-0.006790705799
-0.00711367001
-0.007387239614
-0.007612794044
-0.007791618173
-0.007924915788
-0.008013612964
-0.008059018998
-0.00806225577
-0.00802485873
-0.007947958395
-0.00783350333
-0.007683269927
-0.0074991881
-0.007283494951
-0.007038625995
-0.006767001346
-0.006470942225
-0.006152010189
-0.005811574462
-0.005450922554
-0.005071260835
-0.00467678077
-0.004267304185
-0.003843932412