/*--------------------------------*- C++ -*----------------------------------*\
| =========                 |                                                 |
| \\      /  F ield         | OpenFOAM: The Open Source CFD Toolbox           |
|  \\    /   O peration     | Version:  2.3.1                                 |
|   \\  /    A nd           | Web:      www.OpenFOAM.org                      |
|    \\/     M anipulation  |                                                 |
\*---------------------------------------------------------------------------*/
FoamFile
{
    version     2.0;
    format      ascii;
    class       dictionary;
    location    "constant";
    object      GRPSI26;
}
// * * * * * * * * * * * * * * * * * * * * * * * * * * * * * * * * * * * * * //

GRPSI26_table
101
(

101
(
2.981142992e-13
3.331851052e-11
6.677907172e-10
4.9592496e-09
2.041770904e-08
5.755712582e-08
1.335417653e-07
2.655610116e-07
4.691529584e-07
7.604218576e-07
1.154302516e-06
1.654607915e-06
2.281750505e-06
3.032629366e-06
3.875196913e-06
4.802295579e-06
5.798616548e-06
6.759080399e-06
7.689792054e-06
8.525400048e-06
9.14703424e-06
9.595125141e-06
9.812167174e-06
9.756889675e-06
9.44493235e-06
8.890594631e-06
8.122052493e-06
7.158690027e-06
6.04404522e-06
4.833114998e-06
3.582056671e-06
2.402740752e-06
1.118381664e-06
-1.038157611e-07
-9.820360009e-07
-1.016259935e-06
-5.615676625e-07
-2.390003932e-06
-4.665274092e-06
-5.265145999e-06
-5.688219177e-06
-6.002143776e-06
-6.23673107e-06
-6.367361824e-06
-6.420545173e-06
-6.406729029e-06
-6.326562121e-06
-6.19380524e-06
-6.012023484e-06
-5.791201836e-06
-5.544471428e-06
-5.269907382e-06
-4.978455586e-06
-4.680582177e-06
-4.379429618e-06
-4.053922973e-06
-3.742176086e-06
-3.440972839e-06
-3.137537285e-06
-2.851124345e-06
-2.569834668e-06
-2.309547385e-06
-2.061074492e-06
-1.824260679e-06
-1.605900213e-06
-1.405171283e-06
-1.220655555e-06
-1.0487037e-06
-8.938553261e-07
-7.561120669e-07
-6.322955633e-07
-5.216455162e-07
-4.249276354e-07
-3.189944201e-07
-2.387081495e-07
-2.138723591e-07
-1.816692446e-07
-1.3718819e-07
-1.026269908e-07
-7.509448594e-08
-5.237102715e-08
-3.532745956e-08
-2.159874641e-08
-1.265264304e-08
-9.436876039e-09
-6.235537827e-09
-3.317636956e-09
-1.620365051e-09
-6.65280333e-10
-2.566951629e-10
-1.343037808e-10
-4.008459611e-11
-7.939902594e-12
-1.123570512e-12
-2.812288865e-13
-5.060983649e-14
-6.272347399e-15
5.619457481e-20
-3.407054971e-30
-5.608750488e-30
6.814108984e-30
)


101
(
-7.405069871e-13
2.189133021e-11
5.785686935e-10
4.533623418e-09
1.897597045e-08
5.382113242e-08
1.251777417e-07
2.493524437e-07
4.409594485e-07
7.151473659e-07
1.085963673e-06
1.557839569e-06
2.14829026e-06
2.85745456e-06
3.658191805e-06
4.540875322e-06
5.492222273e-06
6.429496671e-06
7.336184716e-06
8.168169925e-06
8.82459719e-06
9.304954804e-06
9.579488381e-06
9.610537261e-06
9.393597338e-06
8.940936215e-06
8.276232162e-06
7.418126287e-06
6.400891035e-06
5.271757973e-06
4.080070395e-06
2.911942396e-06
1.689920657e-06
4.78091286e-07
-5.068383331e-07
-8.948424071e-07
-7.389277187e-07
-1.66096064e-06
-3.460106633e-06
-4.630006587e-06
-5.282438935e-06
-5.69512879e-06
-5.975379518e-06
-6.157171838e-06
-6.253946349e-06
-6.282569572e-06
-6.249796127e-06
-6.16077708e-06
-6.021555017e-06
-5.839034776e-06
-5.624187631e-06
-5.380689381e-06
-5.117526967e-06
-4.841219638e-06
-4.554099807e-06
-4.250020433e-06
-3.94474659e-06
-3.646453678e-06
-3.350629791e-06
-3.064144644e-06
-2.785652751e-06
-2.520351167e-06
-2.268623199e-06
-2.028888306e-06
-1.801768882e-06
-1.590347989e-06
-1.396272223e-06
-1.21673494e-06
-1.051148278e-06
-9.00403662e-07
-7.650183053e-07
-6.44213528e-07
-5.380680497e-07
-4.370354395e-07
-3.438194764e-07
-2.765621375e-07
-2.275074525e-07
-1.833146358e-07
-1.43860073e-07
-1.098566303e-07
-8.126957539e-08
-5.847745282e-08
-4.060936245e-08
-2.696152722e-08
-1.763215923e-08
-1.138319386e-08
-7.080618963e-09
-4.156095143e-09
-2.226754959e-09
-1.123220053e-09
-5.247781491e-10
-2.018511795e-10
-7.323228327e-11
-2.555903479e-11
-6.110895518e-12
-1.868475083e-12
-4.425925147e-13
1.761332019e-13
1.01832215e-12
1.605174238e-12
1.439834442e-12
)


101
(
-1.586041348e-12
1.171217183e-11
4.966343955e-10
4.136243391e-09
1.761872608e-08
5.029127318e-08
1.172643222e-07
2.339969669e-07
4.142403075e-07
6.722396321e-07
1.021215251e-06
1.466086105e-06
2.021951738e-06
2.691366519e-06
3.45181372e-06
4.292173421e-06
5.200580079e-06
6.112387214e-06
6.997234349e-06
7.823136645e-06
8.507374742e-06
9.021842175e-06
9.349680274e-06
9.460543997e-06
9.336870215e-06
8.985291386e-06
8.425224021e-06
7.673586735e-06
6.758155121e-06
5.718761941e-06
4.598479415e-06
3.464540457e-06
2.291992122e-06
1.104700064e-06
5.702529134e-08
-5.559453058e-07
-6.744204683e-07
-1.211430933e-06
-2.500296469e-06
-3.777830283e-06
-4.684307563e-06
-5.267565472e-06
-5.640486133e-06
-5.886884476e-06
-6.035935227e-06
-6.110227503e-06
-6.125478805e-06
-6.085271451e-06
-5.993722985e-06
-5.856292053e-06
-5.681496382e-06
-5.473820256e-06
-5.241231666e-06
-4.991865723e-06
-4.729531636e-06
-4.451688987e-06
-4.165823815e-06
-3.878706868e-06
-3.592859337e-06
-3.312578054e-06
-3.038662029e-06
-2.775193006e-06
-2.521939385e-06
-2.278561286e-06
-2.046730829e-06
-1.829383792e-06
-1.627482113e-06
-1.438982192e-06
-1.264141959e-06
-1.10259497e-06
-9.549588884e-07
-8.209881168e-07
-7.015564581e-07
-5.942251742e-07
-4.939242799e-07
-4.053178708e-07
-3.319061648e-07
-2.714921853e-07
-2.211279846e-07
-1.776788828e-07
-1.39688085e-07
-1.076050586e-07
-8.141930181e-08
-6.034957545e-08
-4.364679e-08
-3.042431703e-08
-2.05536878e-08
-1.390553508e-08
-9.135401774e-09
-5.720821391e-09
-3.498057288e-09
-1.933418034e-09
-9.782277169e-10
-5.126679611e-10
-2.252747602e-10
-1.062606914e-10
-2.644288366e-11
3.736700859e-11
1.275344231e-10
2.035502086e-10
1.993693255e-10
)


101
(
-2.255476292e-12
2.699603018e-12
4.21586733e-10
3.765711344e-09
1.634203503e-08
4.695813648e-08
1.097808482e-07
2.194556916e-07
3.889261099e-07
6.315836268e-07
9.59875305e-07
1.379094008e-06
1.902326318e-06
2.533883651e-06
3.255508371e-06
4.055388098e-06
4.922678397e-06
5.807292925e-06
6.671266476e-06
7.489251253e-06
8.194917063e-06
8.742922255e-06
9.120671134e-06
9.305118834e-06
9.271326113e-06
9.019325336e-06
8.563767231e-06
7.919196783e-06
7.108493492e-06
6.164857545e-06
5.1258994e-06
4.045073803e-06
2.923516009e-06
1.771875049e-06
6.812688466e-07
-7.481205681e-08
-4.066238639e-07
-8.3608147e-07
-1.745692164e-06
-2.898651942e-06
-3.931850331e-06
-4.690584835e-06
-5.199833161e-06
-5.539262259e-06
-5.753343889e-06
-5.879482512e-06
-5.943506987e-06
-5.95408816e-06
-5.914467957e-06
-5.827650457e-06
-5.700353962e-06
-5.535368617e-06
-5.341209141e-06
-5.125303921e-06
-4.891539733e-06
-4.642856112e-06
-4.384923287e-06
-4.11843599e-06
-3.848984423e-06
-3.581361832e-06
-3.316233251e-06
-3.058732467e-06
-2.80899942e-06
-2.567271038e-06
-2.335308301e-06
-2.114946539e-06
-1.908087017e-06
-1.712476321e-06
-1.528442909e-06
-1.357677509e-06
-1.19961941e-06
-1.053451612e-06
-9.20325847e-07
-8.01116741e-07
-6.914312825e-07
-5.898253458e-07
-4.980398946e-07
-4.176440409e-07
-3.488400616e-07
-2.899391989e-07
-2.389603962e-07
-1.945862668e-07
-1.563681319e-07
-1.241560172e-07
-9.711770199e-08
-7.433419773e-08
-5.487463647e-08
-3.978782927e-08
-2.916772961e-08
-2.086353974e-08
-1.420667419e-08
-9.117720006e-09
-5.733190198e-09
-3.599552143e-09
-2.082504874e-09
-1.401011271e-09
-1.861066365e-10
1.064534452e-09
2.447085763e-09
3.943513474e-09
4.218021563e-09
)


101
(
-2.765002255e-12
-5.224667476e-12
3.530389391e-10
3.420678793e-09
1.514210031e-08
4.381266911e-08
1.027075064e-07
2.056914273e-07
3.649509321e-07
5.930707024e-07
9.017730208e-07
1.296626378e-06
1.789039866e-06
2.384559311e-06
3.068777227e-06
3.829822529e-06
4.657637347e-06
5.513800453e-06
6.357064048e-06
7.165586052e-06
7.88697374e-06
8.466324197e-06
8.890771982e-06
9.143049906e-06
9.194753974e-06
9.039790653e-06
8.68782361e-06
8.150447915e-06
7.446435235e-06
6.602871562e-06
5.652828411e-06
4.639710069e-06
3.5766296e-06
2.47448694e-06
1.392749985e-06
5.189800888e-07
-6.349035485e-09
-4.31038245e-07
-1.111901524e-06
-2.076042397e-06
-3.102656684e-06
-3.978762431e-06
-4.630370948e-06
-5.088594176e-06
-5.389799093e-06
-5.580291661e-06
-5.69806872e-06
-5.760960883e-06
-5.774622795e-06
-5.741413691e-06
-5.666922584e-06
-5.551296361e-06
-5.401752215e-06
-5.226203517e-06
-5.030256419e-06
-4.813888659e-06
-4.58612392e-06
-4.348338438e-06
-4.10361277e-06
-3.856799842e-06
-3.606448493e-06
-3.359976269e-06
-3.118168952e-06
-2.882027953e-06
-2.655329508e-06
-2.437768962e-06
-2.229026158e-06
-2.029460415e-06
-1.839786851e-06
-1.663045401e-06
-1.497719732e-06
-1.341454384e-06
-1.196000221e-06
-1.063420221e-06
-9.421158984e-07
-8.295119983e-07
-7.235778726e-07
-6.25564733e-07
-5.37954762e-07
-4.599042596e-07
-3.91562148e-07
-3.315935375e-07
-2.782908894e-07
-2.31735116e-07
-1.910505525e-07
-1.554195932e-07
-1.235814911e-07
-9.519049196e-08
-7.313717919e-08
-5.677309941e-08
-4.29283543e-08
-3.112142792e-08
-2.147009332e-08
-1.440890726e-08
-9.890627275e-09
-7.911565082e-09
1.930107823e-10
8.677951012e-09
1.440278251e-08
1.967323883e-08
1.989863907e-08
)


101
(
-3.13003396e-12
-1.213585577e-11
2.906182266e-10
3.099845358e-09
1.401526311e-08
4.084616226e-08
9.602529008e-08
1.926685937e-07
3.422521266e-07
5.565981828e-07
8.467483195e-07
1.218461801e-06
1.681750187e-06
2.242982446e-06
2.891173117e-06
3.614881028e-06
4.404713057e-06
5.231550451e-06
6.05377469e-06
6.851419938e-06
7.583489228e-06
8.19093912e-06
8.6587207e-06
8.973450324e-06
9.10571668e-06
9.044425187e-06
8.794280641e-06
8.363574763e-06
7.767447832e-06
7.027962246e-06
6.172300903e-06
5.237165164e-06
4.241257506e-06
3.19689551e-06
2.143555865e-06
1.20867907e-06
5.358327724e-07
4.426935252e-08
-5.238422069e-07
-1.31353516e-06
-2.255431108e-06
-3.171593352e-06
-3.935381792e-06
-4.519019549e-06
-4.927775915e-06
-5.199803241e-06
-5.378782332e-06
-5.494632939e-06
-5.562447485e-06
-5.586179602e-06
-5.569250904e-06
-5.508964813e-06
-5.410056372e-06
-5.27995667e-06
-5.127189694e-06
-4.951169762e-06
-4.759949448e-06
-4.554389256e-06
-4.33948343e-06
-4.122120593e-06
-3.894682502e-06
-3.665886282e-06
-3.438599513e-06
-3.212074155e-06
-2.993511413e-06
-2.783799473e-06
-2.580470819e-06
-2.383555582e-06
-2.191092685e-06
-2.009535938e-06
-1.841088825e-06
-1.680206081e-06
-1.527004481e-06
-1.38339847e-06
-1.250248378e-06
-1.125482249e-06
-1.007487619e-06
-8.971423339e-07
-7.937623734e-07
-6.965403182e-07
-6.073779643e-07
-5.28766051e-07
-4.588599069e-07
-3.954903937e-07
-3.384860228e-07
-2.874631536e-07
-2.409584168e-07
-1.966169552e-07
-1.573701625e-07
-1.270343003e-07
-1.020963991e-07
-7.933093872e-08
-6.041982149e-08
-4.40904293e-08
-3.253723597e-08
-2.894043343e-08
-4.40484335e-10
3.190707597e-08
6.270027955e-08
9.259283577e-08
9.536137569e-08
)


101
(
-3.365222206e-12
-1.810615307e-11
2.339655115e-10
2.801957715e-09
1.295799938e-08
3.805024125e-08
8.971596198e-08
1.803531189e-07
3.207700261e-07
5.220686779e-07
7.946501113e-07
1.144391631e-06
1.580140195e-06
2.108767719e-06
2.722282286e-06
3.410032927e-06
4.163247998e-06
4.960196864e-06
5.76077105e-06
6.546160441e-06
7.28445514e-06
7.916139976e-06
8.423598044e-06
8.795629198e-06
9.003203264e-06
9.031558738e-06
8.880689497e-06
8.555346812e-06
8.067364088e-06
7.434453105e-06
6.678472554e-06
5.830128039e-06
4.909317958e-06
3.931171677e-06
2.922727129e-06
1.968268326e-06
1.194405303e-06
6.135745632e-07
7.451421183e-08
-5.897487731e-07
-1.418878528e-06
-2.310089561e-06
-3.135959637e-06
-3.828312055e-06
-4.352467948e-06
-4.722544434e-06
-4.97530738e-06
-5.148613422e-06
-5.270853835e-06
-5.351176579e-06
-5.393764825e-06
-5.393981927e-06
-5.351972813e-06
-5.272479251e-06
-5.167130645e-06
-5.037907422e-06
-4.890376983e-06
-4.72461375e-06
-4.545139153e-06
-4.359531504e-06
-4.161482588e-06
-3.958639658e-06
-3.754226704e-06
-3.545808179e-06
-3.339668298e-06
-3.141507257e-06
-2.94925116e-06
-2.76113674e-06
-2.574742922e-06
-2.393028692e-06
-2.2212582e-06
-2.058779995e-06
-1.90362614e-06
-1.755349882e-06
-1.614298645e-06
-1.478844873e-06
-1.350223567e-06
-1.230327062e-06
-1.115392274e-06
-1.003314229e-06
-8.946790542e-07
-7.957565163e-07
-7.077166076e-07
-6.258954984e-07
-5.510437716e-07
-4.833688228e-07
-4.204593365e-07
-3.584482668e-07
-2.981272554e-07
-2.488135224e-07
-2.093562025e-07
-1.704338846e-07
-1.362374425e-07
-1.061517861e-07
-8.64088147e-08
-8.2910405e-08
1.132258452e-08
1.156596628e-07
1.901402314e-07
2.575215625e-07
2.596319974e-07
)


101
(
-3.484468121e-12
-2.320480362e-11
1.827349808e-10
2.525807586e-09
1.196691296e-08
3.541684772e-08
8.376201737e-08
1.687123477e-07
3.004477264e-07
4.893897547e-07
7.453356507e-07
1.07421904e-06
1.483915302e-06
1.981553388e-06
2.561720478e-06
3.214802446e-06
3.93265826e-06
4.699405507e-06
5.477587493e-06
6.249346386e-06
6.989903367e-06
7.641614683e-06
8.184739902e-06
8.60899416e-06
8.886383228e-06
8.999788267e-06
8.944998251e-06
8.723073759e-06
8.342695809e-06
7.817834053e-06
7.165632269e-06
6.411318216e-06
5.573264944e-06
4.669431157e-06
3.720082456e-06
2.778200898e-06
1.946053632e-06
1.281700201e-06
7.210334645e-07
1.258757876e-07
-5.985955921e-07
-1.424437335e-06
-2.25976797e-06
-3.026292241e-06
-3.656279432e-06
-4.132883653e-06
-4.474419533e-06
-4.715568931e-06
-4.894486838e-06
-5.030309419e-06
-5.132221651e-06
-5.194192784e-06
-5.212550585e-06
-5.190378745e-06
-5.137689197e-06
-5.057342236e-06
-4.958811823e-06
-4.840653624e-06
-4.704368382e-06
-4.558196578e-06
-4.395688232e-06
-4.224409158e-06
-4.047848102e-06
-3.864549452e-06
-3.678879905e-06
-3.497862556e-06
-3.320864086e-06
-3.146476238e-06
-2.973063867e-06
-2.798870733e-06
-2.630497256e-06
-2.470565776e-06
-2.317402013e-06
-2.169649929e-06
-2.026626116e-06
-1.885701239e-06
-1.748478408e-06
-1.61995604e-06
-1.497571308e-06
-1.3777733e-06
-1.256580715e-06
-1.13826249e-06
-1.03130699e-06
-9.317181614e-07
-8.376274649e-07
-7.526489282e-07
-6.735789086e-07
-5.934623841e-07
-5.116127607e-07
-4.377003997e-07
-3.795284326e-07
-3.242681698e-07
-2.684651752e-07
-2.195849221e-07
-1.877156362e-07
-1.865368005e-07
4.621376268e-08
3.073561409e-07
4.757033594e-07
6.257832869e-07
6.286276148e-07
)


101
(
-3.500939995e-12
-2.749814593e-11
1.365939412e-10
2.270231368e-09
1.103873408e-08
3.293823357e-08
7.814666435e-08
1.577149992e-07
2.812309817e-07
4.58473642e-07
6.986701432e-07
1.007758224e-06
1.39280145e-06
1.860999443e-06
2.409128222e-06
3.028761741e-06
3.712425138e-06
4.448858254e-06
5.203873231e-06
5.960634403e-06
6.699920019e-06
7.367317044e-06
7.941806595e-06
8.413234284e-06
8.754796686e-06
8.94816232e-06
8.985649547e-06
8.864597848e-06
8.590545985e-06
8.174224198e-06
7.628779403e-06
6.974462128e-06
6.226147261e-06
5.403994544e-06
4.525267908e-06
3.620694139e-06
2.767922281e-06
2.041103953e-06
1.436422828e-06
8.636352414e-07
2.175928309e-07
-5.289657089e-07
-1.333696816e-06
-2.133177262e-06
-2.844418161e-06
-3.422703097e-06
-3.861452731e-06
-4.181493217e-06
-4.423484635e-06
-4.617654468e-06
-4.778047346e-06
-4.900025213e-06
-4.982147726e-06
-5.021992329e-06
-5.024670393e-06
-4.997611684e-06
-4.952724577e-06
-4.885873414e-06
-4.797875177e-06
-4.697383012e-06
-4.577713209e-06
-4.447039395e-06
-4.306024383e-06
-4.153061673e-06
-3.993176554e-06
-3.833537857e-06
-3.678024499e-06
-3.525157072e-06
-3.373705016e-06
-3.216663423e-06
-3.05798248e-06
-2.902545288e-06
-2.752758649e-06
-2.612573181e-06
-2.475723838e-06
-2.336438523e-06
-2.196709578e-06
-2.063174037e-06
-1.937073427e-06
-1.813337116e-06
-1.6862247e-06
-1.55462824e-06
-1.430832417e-06
-1.31528453e-06
-1.205483574e-06
-1.102337327e-06
-1.006997068e-06
-9.118801752e-07
-8.089501144e-07
-7.114890736e-07
-6.320684052e-07
-5.539088286e-07
-4.715413795e-07
-4.010037527e-07
-3.538322882e-07
-3.687596256e-07
1.19655511e-07
6.791795695e-07
1.012230491e-06
1.324980353e-06
1.346842325e-06
)


101
(
-3.42708735e-12
-3.104968495e-11
9.522228411e-11
2.034108026e-09
1.017031272e-08
3.060693993e-08
7.285376315e-08
1.47331046e-07
2.630679398e-07
4.292367134e-07
6.545256543e-07
9.44832787e-07
1.306542003e-06
1.746784749e-06
2.264165425e-06
2.851520257e-06
3.502085232e-06
4.208251188e-06
4.939362843e-06
5.679785554e-06
6.414636501e-06
7.093408555e-06
7.694762872e-06
8.208339956e-06
8.608407161e-06
8.876243383e-06
9.001514783e-06
8.978051394e-06
8.80822226e-06
8.499824614e-06
8.062740692e-06
7.513050684e-06
6.860835558e-06
6.126765563e-06
5.327992563e-06
4.48079048e-06
3.640444316e-06
2.879537331e-06
2.229324213e-06
1.646848757e-06
1.045247318e-06
3.716249784e-07
-3.770887561e-07
-1.169871213e-06
-1.928577094e-06
-2.59159642e-06
-3.126708857e-06
-3.534943256e-06
-3.849574387e-06
-4.104479028e-06
-4.321103639e-06
-4.501707622e-06
-4.647295406e-06
-4.752151516e-06
-4.817904126e-06
-4.847674562e-06
-4.858975014e-06
-4.847627465e-06
-4.810468101e-06
-4.76098568e-06
-4.690062931e-06
-4.605404142e-06
-4.507898542e-06
-4.394168897e-06
-4.269104409e-06
-4.137977946e-06
-4.008491335e-06
-3.881639326e-06
-3.755139112e-06
-3.622050965e-06
-3.482837814e-06
-3.343208372e-06
-3.204897953e-06
-3.072954518e-06
-2.945627649e-06
-2.817198263e-06
-2.683995134e-06
-2.549053763e-06
-2.422648872e-06
-2.303347452e-06
-2.176236039e-06
-2.038314692e-06
-1.901697051e-06
-1.77389814e-06
-1.654918026e-06
-1.53412977e-06
-1.423699759e-06
-1.317765913e-06
-1.197232548e-06
-1.078723569e-06
-9.754447381e-07
-8.728275636e-07
-7.651581591e-07
-6.701525505e-07
-6.093652638e-07
-6.387205484e-07
2.750443779e-07
1.307563966e-06
1.863494035e-06
2.429534163e-06
2.511960697e-06
)


101
(
-3.274655422e-12
-3.392013984e-11
5.831233246e-11
1.816358611e-09
9.358618549e-09
2.841579928e-08
6.786782446e-08
1.375317134e-07
2.459091439e-07
4.015994584e-07
6.127808927e-07
8.852751157e-07
1.224895509e-06
1.638604816e-06
2.126508485e-06
2.682716919e-06
3.301219223e-06
3.977290874e-06
4.683836321e-06
5.4066264e-06
6.134216769e-06
6.82024988e-06
7.443868609e-06
7.994550412e-06
8.447484057e-06
8.784006137e-06
8.991934803e-06
9.062040305e-06
8.993609071e-06
8.791600251e-06
8.463026804e-06
8.020711255e-06
7.470019236e-06
6.830352694e-06
6.119411538e-06
5.345201114e-06
4.544824453e-06
3.779315526e-06
3.095896855e-06
2.489694786e-06
1.90395219e-06
1.284937334e-06
6.000694829e-07
-1.557252917e-07
-9.254137193e-07
-1.646533434e-06
-2.268159494e-06
-2.768238844e-06
-3.163115104e-06
-3.483089335e-06
-3.756064115e-06
-3.992637528e-06
-4.199152647e-06
-4.371760121e-06
-4.504292997e-06
-4.59292796e-06
-4.662329249e-06
-4.709616093e-06
-4.728131533e-06
-4.73361372e-06
-4.717712786e-06
-4.683915262e-06
-4.635088527e-06
-4.570114238e-06
-4.490265351e-06
-4.394653346e-06
-4.294665141e-06
-4.196802756e-06
-4.100396752e-06
-3.999831446e-06
-3.889874574e-06
-3.772779732e-06
-3.651624212e-06
-3.534736917e-06
-3.42433168e-06
-3.314010113e-06
-3.19369315e-06
-3.066648195e-06
-2.945217622e-06
-2.832729263e-06
-2.713340992e-06
-2.57916518e-06
-2.437330219e-06
-2.300788517e-06
-2.179829323e-06
-2.05047065e-06
-1.924116295e-06
-1.809401303e-06
-1.674823545e-06
-1.540693157e-06
-1.418962921e-06
-1.289854602e-06
-1.156675945e-06
-1.034494253e-06
-9.66852993e-07
-1.030797154e-06
5.475143885e-07
2.301483823e-06
3.067865311e-06
3.75087081e-06
3.768328152e-06
)


101
(
-3.054699399e-12
-3.616750428e-11
2.556847153e-11
1.615944462e-09
8.600733657e-09
2.6357914e-08
6.317395939e-08
1.282893555e-07
2.297072475e-07
3.754860132e-07
5.733205254e-07
8.289258161e-07
1.147634388e-06
1.536170603e-06
1.995848831e-06
2.522016054e-06
3.109445256e-06
3.755701372e-06
4.437119063e-06
5.141047755e-06
5.85884117e-06
6.548284286e-06
7.189567636e-06
7.772292264e-06
8.272488993e-06
8.671666312e-06
8.956560038e-06
9.115570677e-06
9.145076523e-06
9.047195381e-06
8.826262512e-06
8.492536771e-06
8.047362941e-06
7.507789327e-06
6.891376449e-06
6.201696964e-06
5.462806826e-06
4.721041974e-06
4.025916541e-06
3.397393657e-06
2.809499341e-06
2.223524697e-06
1.596572213e-06
8.950007605e-07
1.46282592e-07
-6.014556806e-07
-1.290042828e-06
-1.876059629e-06
-2.354482995e-06
-2.745566434e-06
-3.078451406e-06
-3.369864608e-06
-3.633806813e-06
-3.871028545e-06
-4.068405382e-06
-4.220889951e-06
-4.353295773e-06
-4.461927377e-06
-4.539265142e-06
-4.600616414e-06
-4.643337239e-06
-4.666967465e-06
-4.673077313e-06
-4.660682448e-06
-4.631960781e-06
-4.585432534e-06
-4.524005993e-06
-4.457896553e-06
-4.395064422e-06
-4.330202276e-06
-4.256903038e-06
-4.173036174e-06
-4.078820481e-06
-3.983808933e-06
-3.89484856e-06
-3.807321682e-06
-3.707214876e-06
-3.599993199e-06
-3.492504464e-06
-3.387980161e-06
-3.282665794e-06
-3.162001726e-06
-3.023729141e-06
-2.886544926e-06
-2.769589775e-06
-2.641744859e-06
-2.501756934e-06
-2.375881004e-06
-2.241564339e-06
-2.100416365e-06
-1.957899871e-06
-1.807753569e-06
-1.653045219e-06
-1.500296392e-06
-1.421894698e-06
-1.523120484e-06
9.3413251e-07
3.640925775e-06
4.669460948e-06
5.617412824e-06
5.679937877e-06
)


101
(
-2.777599625e-12
-3.784710315e-11
-3.29304112e-12
1.431866864e-09
7.89385214e-09
2.442665564e-08
5.875787418e-08
1.195774374e-07
2.144169377e-07
3.508239917e-07
5.360349642e-07
7.75633341e-07
1.074544227e-06
1.439207909e-06
1.871890965e-06
2.369103922e-06
2.926418216e-06
3.543222422e-06
4.199068892e-06
4.882988063e-06
5.588673234e-06
6.277921501e-06
6.93232931e-06
7.541926397e-06
8.083692352e-06
8.539473755e-06
8.89543945e-06
9.138230014e-06
9.261624854e-06
9.264967523e-06
9.150090041e-06
8.925107081e-06
8.587826887e-06
8.152689812e-06
7.636420061e-06
7.039876696e-06
6.378560652e-06
5.685046508e-06
5.003709074e-06
4.366335216e-06
3.7708976e-06
3.2002547e-06
2.616851283e-06
1.972397676e-06
1.26699406e-06
5.254614103e-07
-2.01117187e-07
-8.578601145e-07
-1.417599819e-06
-1.884142659e-06
-2.281507796e-06
-2.628806232e-06
-2.947209311e-06
-3.243161337e-06
-3.504967005e-06
-3.723359635e-06
-3.920622182e-06
-4.093072519e-06
-4.231978877e-06
-4.352354213e-06
-4.454782539e-06
-4.538902325e-06
-4.604513111e-06
-4.651432896e-06
-4.677727716e-06
-4.685762252e-06
-4.676025649e-06
-4.650808892e-06
-4.625908639e-06
-4.599875493e-06
-4.566312399e-06
-4.525016762e-06
-4.469240987e-06
-4.403833421e-06
-4.33940441e-06
-4.279131446e-06
-4.210017453e-06
-4.128993783e-06
-4.043398976e-06
-3.958484678e-06
-3.871673569e-06
-3.7706567e-06
-3.649175277e-06
-3.517432746e-06
-3.40432082e-06
-3.292108162e-06
-3.153578419e-06
-3.015395642e-06
-2.884233288e-06
-2.748261529e-06
-2.588505751e-06
-2.415378529e-06
-2.248127794e-06
-2.07134742e-06
-1.977360762e-06
-2.110773074e-06
1.48158166e-06
5.382820345e-06
6.595776578e-06
7.663513142e-06
7.691736942e-06
)


101
(
-2.45307609e-12
-3.901164114e-11
-2.854433759e-11
1.263165817e-09
7.235276223e-09
2.261565612e-08
5.46058463e-08
1.113704782e-07
1.999948355e-07
3.275442426e-07
5.008199065e-07
7.252533524e-07
1.005422076e-06
1.347455661e-06
1.754350066e-06
2.223684664e-06
2.75182611e-06
3.339617381e-06
3.969566598e-06
4.632415154e-06
5.323866402e-06
6.009542234e-06
6.672708788e-06
7.3040931e-06
7.881714016e-06
8.387956264e-06
8.808881215e-06
9.129932267e-06
9.342624254e-06
9.443633623e-06
9.432521355e-06
9.315616942e-06
9.087311687e-06
8.759373461e-06
8.347443969e-06
7.850424944e-06
7.278604064e-06
6.653494281e-06
6.011249482e-06
5.385542918e-06
4.788575665e-06
4.223960753e-06
3.669075038e-06
3.074717498e-06
2.422697704e-06
1.713777885e-06
9.81102698e-07
2.786359928e-07
-3.50462511e-07
-8.929384571e-07
-1.360114521e-06
-1.765128855e-06
-2.135948868e-06
-2.487271151e-06
-2.811139075e-06
-3.092657259e-06
-3.353774708e-06
-3.591445139e-06
-3.794820362e-06
-3.97751643e-06
-4.14184085e-06
-4.290163939e-06
-4.417713979e-06
-4.524664001e-06
-4.611846326e-06
-4.682527442e-06
-4.731726836e-06
-4.760137593e-06
-4.78006467e-06
-4.79459728e-06
-4.804416534e-06
-4.81058064e-06
-4.803491105e-06
-4.779477873e-06
-4.74877425e-06
-4.718833358e-06
-4.681573455e-06
-4.637560435e-06
-4.585241482e-06
-4.526717431e-06
-4.464599142e-06
-4.390943658e-06
-4.298633884e-06
-4.181873786e-06
-4.074696969e-06
-3.983898353e-06
-3.862571917e-06
-3.721473683e-06
-3.589946959e-06
-3.466755013e-06
-3.304495082e-06
-3.111892243e-06
-2.930032735e-06
-2.735558681e-06
-2.626645619e-06
-2.771259729e-06
2.166355615e-06
7.445344841e-06
8.727011559e-06
9.852319779e-06
9.885424965e-06
)


101
(
-2.090201735e-12
-3.971125021e-11
-5.044621128e-11
1.10891906e-09
6.622412674e-09
2.091879722e-08
5.070470259e-08
1.036439941e-07
1.86399356e-07
3.055806819e-07
4.675759959e-07
6.776484842e-07
9.400761358e-07
1.260665559e-06
1.642951928e-06
2.085475474e-06
2.585377499e-06
3.144660645e-06
3.74851517e-06
4.389347773e-06
5.064620027e-06
5.743579595e-06
6.4113454e-06
7.059585365e-06
7.667425111e-06
8.217927735e-06
8.697399257e-06
9.090649472e-06
9.387482038e-06
9.582137982e-06
9.671849217e-06
9.661234515e-06
9.541738275e-06
9.322666449e-06
9.018265976e-06
8.625697645e-06
8.152224755e-06
7.611301844e-06
7.029913092e-06
6.438288694e-06
5.855062043e-06
5.298026887e-06
4.761328413e-06
4.205472217e-06
3.606147127e-06
2.946039194e-06
2.235741749e-06
1.516916901e-06
8.383219793e-07
2.28033318e-07
-3.087869862e-07
-7.742599247e-07
-1.198097002e-06
-1.601464799e-06
-1.981717677e-06
-2.324184544e-06
-2.647770344e-06
-2.95121537e-06
-3.221517326e-06
-3.467624267e-06
-3.695345658e-06
-3.911026821e-06
-4.103857143e-06
-4.271928648e-06
-4.423920742e-06
-4.560489304e-06
-4.67660557e-06
-4.767633971e-06
-4.840879228e-06
-4.906149245e-06
-4.96366883e-06
-5.018841667e-06
-5.064741683e-06
-5.093132196e-06
-5.109112289e-06
-5.116294187e-06
-5.115568973e-06
-5.113434069e-06
-5.101185642e-06
-5.081761168e-06
-5.054584186e-06
-5.011082223e-06
-4.954134614e-06
-4.871016391e-06
-4.778485954e-06
-4.702297727e-06
-4.609371891e-06
-4.483128716e-06
-4.349987314e-06
-4.24425474e-06
-4.088072676e-06
-3.890767244e-06
-3.699002013e-06
-3.480729928e-06
-3.352786667e-06
-3.505505871e-06
2.897682689e-06
9.66143296e-06
1.088921127e-05
1.202697083e-05
1.212403895e-05
)


101
(
-1.69741866e-12
-3.999353969e-11
-6.924832462e-11
9.682415256e-10
6.052771873e-09
1.933020697e-08
4.704180992e-08
9.637447907e-08
1.735906392e-07
2.848702214e-07
4.362085806e-07
6.326877722e-07
8.783251285e-07
1.178602291e-06
1.537433675e-06
1.95420316e-06
2.426792443e-06
2.958123137e-06
3.535785627e-06
4.15379152e-06
4.811165261e-06
5.480556113e-06
6.148997324e-06
6.809310733e-06
7.441871641e-06
8.030467504e-06
8.561858707e-06
9.020761594e-06
9.395952098e-06
9.679716726e-06
9.866861153e-06
9.959873167e-06
9.947735325e-06
9.837958421e-06
9.643206027e-06
9.358781607e-06
8.990072408e-06
8.544980277e-06
8.042159203e-06
7.506406091e-06
6.956347532e-06
6.41666655e-06
5.896487695e-06
5.370648392e-06
4.817550101e-06
4.210675454e-06
3.542804296e-06
2.83652564e-06
2.133733203e-06
1.472560291e-06
8.73331588e-07
3.45836037e-07
-1.327289857e-07
-5.85632314e-07
-1.017945046e-06
-1.417888895e-06
-1.801346582e-06
-2.168423606e-06
-2.506020764e-06
-2.819640425e-06
-3.112229349e-06
-3.393873159e-06
-3.653656701e-06
-3.887078551e-06
-4.107341498e-06
-4.313457234e-06
-4.49938175e-06
-4.659063905e-06
-4.798067302e-06
-4.924122869e-06
-5.036226918e-06
-5.145282827e-06
-5.246199565e-06
-5.331999094e-06
-5.408137099e-06
-5.468078284e-06
-5.511226496e-06
-5.549859414e-06
-5.584336225e-06
-5.615019411e-06
-5.630637757e-06
-5.627776442e-06
-5.611236966e-06
-5.567051488e-06
-5.505168095e-06
-5.451077143e-06
-5.385692698e-06
-5.288202021e-06
-5.16457016e-06
-5.076656471e-06
-4.931983053e-06
-4.734556903e-06
-4.540872075e-06
-4.299015383e-06
-4.148369778e-06
-4.30864281e-06
3.61274902e-06
1.187067078e-05
1.286148e-05
1.363125063e-05
1.355602021e-05
)


101
(
-1.282552807e-12
-3.990365003e-11
-8.518945176e-11
8.402840454e-10
5.523963417e-09
1.784425005e-08
4.360505448e-08
8.953936406e-08
1.615304535e-07
2.653525328e-07
4.066273882e-07
5.90246303e-07
8.199973217e-07
1.101042298e-06
1.437542544e-06
1.829604471e-06
2.27580135e-06
2.779781333e-06
3.331247889e-06
3.925760194e-06
4.563747327e-06
5.221012491e-06
5.886469771e-06
6.554251734e-06
7.206199643e-06
7.826812693e-06
8.403405771e-06
8.921101636e-06
9.368288734e-06
9.735806572e-06
1.001621127e-05
1.020964681e-05
1.030259864e-05
1.030132561e-05
1.021727063e-05
1.004365993e-05
9.784314478e-06
9.443320896e-06
9.032679606e-06
8.570871513e-06
8.073899374e-06
7.568142316e-06
7.071193275e-06
6.571736614e-06
6.057703366e-06
5.502734904e-06
4.888208651e-06
4.216486562e-06
3.516168669e-06
2.827482082e-06
2.179704659e-06
1.593771549e-06
1.060185302e-06
5.57945873e-07
7.507407707e-08
-3.776687505e-07
-8.163151921e-07
-1.244373906e-06
-1.648438655e-06
-2.029505954e-06
-2.388428779e-06
-2.736435612e-06
-3.064213374e-06
-3.369642706e-06
-3.659009004e-06
-3.93475302e-06
-4.197073607e-06
-4.433154816e-06
-4.646498433e-06
-4.840388858e-06
-5.016790909e-06
-5.187840443e-06
-5.348042151e-06
-5.495851255e-06
-5.638286006e-06
-5.767743726e-06
-5.866318784e-06
-5.95181465e-06
-6.038384657e-06
-6.12030564e-06
-6.190086714e-06
-6.2417946e-06
-6.271559466e-06
-6.273561801e-06
-6.251879323e-06
-6.22661672e-06
-6.192181051e-06
-6.131294071e-06
-6.030617141e-06
-5.958563389e-06
-5.83200414e-06
-5.637924047e-06
-5.444508306e-06
-5.186054872e-06
-4.999998288e-06
-5.143390498e-06
4.213363817e-06
1.38276934e-05
1.444405361e-05
1.483099838e-05
1.466839306e-05
)


101
(
-8.528212668e-13
-3.948467416e-11
-9.849776482e-11
7.242323861e-10
5.033690779e-09
1.645551341e-08
4.038280781e-08
8.311695603e-08
1.501820594e-07
2.469697642e-07
3.787461726e-07
5.502047083e-07
7.64929301e-07
1.027772169e-06
1.343033313e-06
1.711424401e-06
2.132149857e-06
2.609426767e-06
3.134788637e-06
3.705284952e-06
4.322611364e-06
4.965461106e-06
5.624549052e-06
6.295382911e-06
6.961514197e-06
7.608243812e-06
8.223457203e-06
8.792988349e-06
9.305355848e-06
9.75042517e-06
1.011892566e-05
1.040889777e-05
1.060406963e-05
1.070951838e-05
1.073606843e-05
1.067487468e-05
1.052791252e-05
1.029627751e-05
9.987263786e-06
9.614141609e-06
9.189089521e-06
8.735383532e-06
8.274059334e-06
7.80524286e-06
7.327303591e-06
6.819896663e-06
6.260849607e-06
5.63853325e-06
4.965105958e-06