/*--------------------------------*- C++ -*----------------------------------*\
| =========                 |                                                 |
| \\      /  F ield         | OpenFOAM: The Open Source CFD Toolbox           |
|  \\    /   O peration     | Version:  2.3.1                                 |
|   \\  /    A nd           | Web:      www.OpenFOAM.org                      |
|    \\/     M anipulation  |                                                 |
\*---------------------------------------------------------------------------*/
FoamFile
{
    version     2.0;
    format      ascii;
    class       dictionary;
    location    "constant";
    object      GRPSI32;
}
// * * * * * * * * * * * * * * * * * * * * * * * * * * * * * * * * * * * * * //

GRPSI32_table
101
(

101
(
2.23139118e-05
0.0007393103902
0.001519315391
0.002319529336
0.003115624589
0.003894554228
0.004649095646
0.005378090809
0.006079940108
0.006754881265
0.007404089983
0.008028812826
0.008630952712
0.009210781044
0.009770322131
0.01031104279
0.01083374785
0.01133898092
0.01182952219
0.01230381389
0.01276495422
0.01321360276
0.01364918852
0.0140732763
0.01448680274
0.01489035449
0.01528452056
0.01566992952
0.01604686715
0.0164159315
0.01677750734
0.01713216174
0.01748088744
0.0178218177
0.0181570095
0.01848639939
0.0188103028
0.01912922043
0.01944299132
0.01975139302
0.0200547241
0.0203540343
0.02064868666
0.0209390633
0.02122565483
0.02150811052
0.02178692884
0.02206192638
0.02233343391
0.02260131277
0.02286593562
0.02312732591
0.02338558303
0.02364081873
0.02389317127
0.02414273682
0.02438921465
0.02463327796
0.02487447398
0.02511317643
0.025349235
0.02558278925
0.02581386491
0.02604232128
0.02626848929
0.02649204677
0.02671313645
0.02693166374
0.02714751213
0.02736061469
0.02757121643
0.0277788478
0.0279832185
0.02818459801
0.0283828874
0.0285779692
0.02876873575
0.02895604548
0.02913884869
0.0293172866
0.02949077393
0.02965874983
0.02982125384
0.0299775164
0.03012691993
0.03027018764
0.03040522329
0.03053284054
0.03065119548
0.0307630049
0.03086304508
0.03095748881
0.03104289934
0.03111989764
0.03118974577
0.03125261669
0.03130758323
0.0311238057
0.03093909328
0.03074659026
0.03055408724
)


101
(
2.231391175e-05
0.0007393103901
0.001519315391
0.002319529336
0.003115624589
0.003894554228
0.004649095646
0.005378090809
0.006079940108
0.006754881265
0.007404089983
0.008028812826
0.008630952712
0.009210781044
0.009770322131
0.01031104279
0.01083374785
0.01133898092
0.01182952219
0.01230381389
0.01276495422
0.01321360276
0.01364918852
0.0140732763
0.01448680274
0.01489035449
0.01528452056
0.01566992952
0.01604686715
0.0164159315
0.01677750734
0.01713216174
0.01748088744
0.0178218177
0.0181570095
0.01848639939
0.0188103028
0.01912922043
0.01944299132
0.01975139302
0.0200547241
0.0203540343
0.02064868666
0.0209390633
0.02122565483
0.02150811052
0.02178692884
0.02206192638
0.02233343391
0.02260131277
0.02286593562
0.02312732591
0.02338558303
0.02364081873
0.02389317127
0.02414273682
0.02438921465
0.02463327796
0.02487447398
0.02511317643
0.025349235
0.02558278925
0.02581386491
0.02604232128
0.02626848929
0.02649204677
0.02671313645
0.02693166374
0.02714751213
0.02736061469
0.02757121643
0.0277788478
0.0279832185
0.02818459801
0.0283828874
0.0285779692
0.02876873575
0.02895604548
0.02913884869
0.0293172866
0.02949077393
0.02965874983
0.02982125384
0.0299775164
0.03012691993
0.03027018764
0.03040522329
0.03053284054
0.03065119548
0.0307630049
0.03086304508
0.03095748881
0.03104289934
0.03111989764
0.03118974577
0.03125228394
0.03130760616
0.03112382891
0.03093911772
0.03074661338
0.03055410904
)


101
(
2.231391175e-05
0.0007393103901
0.001519315391
0.002319529336
0.003115624589
0.003894554228
0.004649095646
0.005378090809
0.006079940108
0.006754881265
0.007404089983
0.008028812826
0.008630952712
0.009210781044
0.009770322131
0.01031104279
0.01083374785
0.01133898092
0.01182952219
0.01230381389
0.01276495422
0.01321360276
0.01364918852
0.0140732763
0.01448680274
0.01489035449
0.01528452056
0.01566992952
0.01604686715
0.0164159315
0.01677750734
0.01713216174
0.01748088744
0.0178218177
0.0181570095
0.01848639939
0.0188103028
0.01912922043
0.01944299132
0.01975139302
0.0200547241
0.0203540343
0.02064868666
0.0209390633
0.02122565483
0.02150811052
0.02178692884
0.02206192638
0.02233343391
0.02260131277
0.02286593562
0.02312732591
0.02338558303
0.02364081873
0.02389317127
0.02414273682
0.02438921465
0.02463327796
0.02487447398
0.02511317643
0.025349235
0.02558278925
0.02581386491
0.02604232128
0.02626848929
0.02649204677
0.02671313645
0.02693166374
0.02714751213
0.02736061469
0.02757121643
0.0277788478
0.0279832185
0.02818459801
0.0283828874
0.0285779692
0.02876873575
0.02895604548
0.02913884869
0.0293172866
0.02949077393
0.02965874983
0.02982125384
0.0299775164
0.03012691993
0.03027018764
0.03040522329
0.03053284054
0.03065119548
0.0307630049
0.03086304508
0.03095748881
0.03104289934
0.03111989764
0.03118974577
0.03125173614
0.03130763465
0.03112386176
0.03093915532
0.03074664278
0.03055413025
)


101
(
2.231391175e-05
0.0007393103902
0.001519315391
0.002319529336
0.003115624589
0.003894554228
0.004649095646
0.005378090809
0.006079940108
0.006754881265
0.007404089983
0.008028812826
0.008630952712
0.009210781044
0.009770322131
0.01031104279
0.01083374785
0.01133898092
0.01182952219
0.01230381389
0.01276495422
0.01321360276
0.01364918852
0.0140732763
0.01448680274
0.01489035449
0.01528452056
0.01566992952
0.01604686715
0.0164159315
0.01677750734
0.01713216174
0.01748088744
0.0178218177
0.0181570095
0.01848639939
0.0188103028
0.01912922043
0.01944299132
0.01975139302
0.0200547241
0.0203540343
0.02064868666
0.0209390633
0.02122565483
0.02150811052
0.02178692884
0.02206192638
0.02233343391
0.02260131277
0.02286593562
0.02312732591
0.02338558303
0.02364081873
0.02389317127
0.02414273682
0.02438921465
0.02463327796
0.02487447398
0.02511317643
0.025349235
0.02558278925
0.02581386491
0.02604232128
0.02626848929
0.02649204677
0.02671313645
0.02693166374
0.02714751213
0.02736061469
0.02757121643
0.0277788478
0.0279832185
0.02818459801
0.0283828874
0.0285779692
0.02876873575
0.02895604548
0.02913884869
0.0293172866
0.02949077393
0.02965874983
0.02982125384
0.0299775164
0.03012691993
0.03027018764
0.03040522329
0.03053284054
0.03065119548
0.0307630049
0.03086304508
0.03095748881
0.03104289934
0.03111989764
0.03118974577
0.03125142536
0.03130764126
0.03112386156
0.03093914887
0.03074663749
0.03055412611
)


101
(
2.23139138e-05
0.000739310459
0.001519315532
0.002319529552
0.003115624879
0.003894554591
0.004649096079
0.00537809131
0.006079940674
0.006754881894
0.007404090672
0.008028813574
0.008630953516
0.009210781902
0.009770323041
0.01031104375
0.01083374886
0.01133898197
0.01182952329
0.01230381504
0.01276495541
0.01321360399
0.01364918979
0.01407327761
0.01448680409
0.01489035587
0.01528452198
0.01566993098
0.01604686864
0.01641593303
0.0167775089
0.01713216334
0.01748088907
0.01782181936
0.01815701119
0.01848640111
0.01881030455
0.01912922221
0.01944299313
0.01975139486
0.02005472597
0.0203540362
0.02064868858
0.02093906525
0.02122565681
0.02150811252
0.02178693087
0.02206192844
0.02233343599
0.02260131488
0.02286593775
0.02312732806
0.02338558521
0.02364082093
0.02389317349
0.02414273907
0.02438921692
0.02463328026
0.02487447629
0.02511317876
0.02534923736
0.02558279163
0.02581386731
0.0260423237
0.02626849173
0.02649204924
0.02671313893
0.02693166625
0.02714751466
0.02736061724
0.027571219
0.02777885039
0.02798322111
0.02818460063
0.02838289004
0.02857797186
0.02876873843
0.02895604817
0.02913885141
0.02931728933
0.02949077667
0.0296587526
0.02982125661
0.02997751919
0.03012692274
0.03027019046
0.03040522612
0.03053284339
0.03065119834
0.03076300776
0.03086304795
0.03095749169
0.03104290223
0.03111990054
0.03118974867
0.03125133619
0.03130765199
0.03112384159
0.03093910114
0.03074660867
0.0305541162
)


101
(
2.231391175e-05
0.0007393103901
0.001519315391
0.002319529336
0.003115624589
0.003894554228
0.004649095646
0.005378090809
0.006079940108
0.006754881265
0.007404089983
0.008028812826
0.008630952712
0.009210781044
0.009770322131
0.01031104279
0.01083374785
0.01133898092
0.01182952219
0.01230381389
0.01276495422
0.01321360276
0.01364918852
0.0140732763
0.01448680274
0.01489035449
0.01528452056
0.01566992952
0.01604686715
0.0164159315
0.01677750734
0.01713216174
0.01748088744
0.0178218177
0.0181570095
0.01848639939
0.0188103028
0.01912922043
0.01944299132
0.01975139302
0.0200547241
0.0203540343
0.02064868666
0.0209390633
0.02122565483
0.02150811052
0.02178692884
0.02206192638
0.02233343391
0.02260131277
0.02286593562
0.02312732591
0.02338558303
0.02364081873
0.02389317127
0.02414273682
0.02438921465
0.02463327796
0.02487447398
0.02511317643
0.025349235
0.02558278925
0.02581386491
0.02604232128
0.02626848929
0.02649204677
0.02671313645
0.02693166374
0.02714751213
0.02736061469
0.02757121643
0.0277788478
0.0279832185
0.02818459801
0.0283828874
0.0285779692
0.02876873575
0.02895604548
0.02913884869
0.0293172866
0.02949077393
0.02965874983
0.02982125384
0.0299775164
0.03012691993
0.03027018764
0.03040522329
0.03053284054
0.03065119548
0.0307630049
0.03086304508
0.03095748881
0.03104289934
0.03111989764
0.03118974577
0.03125129014
0.03130765469
0.03112385064
0.03093911562
0.03074661326
0.03055411089
)


101
(
2.231391175e-05
0.0007393103901
0.001519315391
0.002319529336
0.003115624589
0.003894554228
0.004649095646
0.005378090809
0.006079940108
0.006754881265
0.007404089983
0.008028812826
0.008630952712
0.009210781044
0.009770322131
0.01031104279
0.01083374785
0.01133898092
0.01182952219
0.01230381389
0.01276495422
0.01321360276
0.01364918852
0.0140732763
0.01448680274
0.01489035449
0.01528452056
0.01566992952
0.01604686715
0.0164159315
0.01677750734
0.01713216174
0.01748088744
0.0178218177
0.0181570095
0.01848639939
0.0188103028
0.01912922043
0.01944299132
0.01975139302
0.0200547241
0.0203540343
0.02064868666
0.0209390633
0.02122565483
0.02150811052
0.02178692884
0.02206192638
0.02233343391
0.02260131277
0.02286593562
0.02312732591
0.02338558303
0.02364081873
0.02389317127
0.02414273682
0.02438921465
0.02463327796
0.02487447398
0.02511317643
0.025349235
0.02558278925
0.02581386491
0.02604232128
0.02626848929
0.02649204677
0.02671313645
0.02693166374
0.02714751213
0.02736061469
0.02757121643
0.0277788478
0.0279832185
0.02818459801
0.0283828874
0.0285779692
0.02876873575
0.02895604548
0.02913884869
0.0293172866
0.02949077393
0.02965874983
0.02982125384
0.0299775164
0.03012691993
0.03027018764
0.03040522329
0.03053284054
0.03065119548
0.0307630049
0.03086304508
0.03095748881
0.03104289934
0.03111989764
0.03118974577
0.03125087687
0.0313075871
0.03112382616
0.03093913067
0.03074663168
0.0305541327
)


101
(
2.231391175e-05
0.0007393103901
0.001519315391
0.002319529336
0.003115624589
0.003894554228
0.004649095646
0.005378090809
0.006079940108
0.006754881265
0.007404089983
0.008028812826
0.008630952712
0.009210781044
0.009770322131
0.01031104279
0.01083374785
0.01133898092
0.01182952219
0.01230381389
0.01276495422
0.01321360276
0.01364918852
0.0140732763
0.01448680274
0.01489035449
0.01528452056
0.01566992952
0.01604686715
0.0164159315
0.01677750734
0.01713216174
0.01748088744
0.0178218177
0.0181570095
0.01848639939
0.0188103028
0.01912922043
0.01944299132
0.01975139302
0.0200547241
0.0203540343
0.02064868666
0.0209390633
0.02122565483
0.02150811052
0.02178692884
0.02206192638
0.02233343391
0.02260131277
0.02286593562
0.02312732591
0.02338558303
0.02364081873
0.02389317127
0.02414273682
0.02438921465
0.02463327796
0.02487447398
0.02511317643
0.025349235
0.02558278925
0.02581386491
0.02604232128
0.02626848929
0.02649204677
0.02671313645
0.02693166374
0.02714751213
0.02736061469
0.02757121643
0.0277788478
0.0279832185
0.02818459801
0.0283828874
0.0285779692
0.02876873575
0.02895604548
0.02913884869
0.0293172866
0.02949077393
0.02965874983
0.02982125384
0.0299775164
0.03012691993
0.03027018764
0.03040522329
0.03053284054
0.03065119548
0.0307630049
0.03086304508
0.03095748881
0.03104289934
0.03111989764
0.03118974577
0.03125076206
0.03130755954
0.03112379828
0.03093910204
0.03074661116
0.03055412028
)


101
(
2.23139159e-05
0.0007393105279
0.001519315674
0.002319529768
0.003115625169
0.003894554953
0.004649096512
0.005378091811
0.00607994124
0.006754882523
0.007404091362
0.008028814321
0.00863095432
0.009210782759
0.009770323951
0.01031104471
0.01083374986
0.01133898303
0.01182952439
0.01230381619
0.01276495659
0.01321360522
0.01364919106
0.01407327892
0.01448680544
0.01489035726
0.01528452341
0.01566993244
0.01604687014
0.01641593456
0.01677751047
0.01713216493
0.01748089069
0.01782182102
0.01815701289
0.01848640284
0.0188103063
0.01912922399
0.01944299494
0.0197513967
0.02005472784
0.02035403809
0.0206486905
0.0209390672
0.02122565879
0.02150811452
0.0217869329
0.02206193049
0.02233343807
0.02260131698
0.02286593988
0.02312733022
0.02338558739
0.02364082313
0.02389317572
0.02414274132
0.02438921919
0.02463328255
0.02487447861
0.0251131811
0.02534923972
0.02558279401
0.02581386971
0.02604232613
0.02626849418
0.02649205171
0.02671314142
0.02693166876
0.02714751719
0.02736061979
0.02757122156
0.02777885297
0.02798322371
0.02818460326
0.02838289268
0.02857797453
0.02876874111
0.02895605087
0.02913885412
0.02931729206
0.02949077942
0.02965875536
0.02982125939
0.02997752198
0.03012692555
0.03027019328
0.03040522895
0.03053284623
0.03065120119
0.03076301063
0.03086305083
0.03095749457
0.03104290512
0.03111990344
0.03118975158
0.03125105797
0.03130761129
0.03112382317
0.0309391009
0.03074659306
0.03055408521
)


101
(
2.231391585e-05
0.0007393105278
0.001519315674
0.002319529768
0.003115625169
0.003894554953
0.004649096512
0.005378091811
0.00607994124
0.006754882523
0.007404091362
0.008028814321
0.00863095432
0.009210782759
0.009770323951
0.01031104471
0.01083374986
0.01133898303
0.01182952439
0.01230381619
0.01276495659
0.01321360522
0.01364919106
0.01407327892
0.01448680544
0.01489035726
0.01528452341
0.01566993244
0.01604687014
0.01641593456
0.01677751047
0.01713216493
0.01748089069
0.01782182102
0.01815701289
0.01848640284
0.0188103063
0.01912922399
0.01944299494
0.0197513967
0.02005472784
0.02035403809
0.0206486905
0.0209390672
0.02122565879
0.02150811452
0.0217869329
0.02206193049
0.02233343807
0.02260131698
0.02286593988
0.02312733022
0.02338558739
0.02364082313
0.02389317572
0.02414274132
0.02438921919
0.02463328255
0.02487447861
0.0251131811
0.02534923972
0.02558279401
0.02581386971
0.02604232613
0.02626849418
0.02649205171
0.02671314142
0.02693166876
0.02714751719
0.02736061979
0.02757122156
0.02777885297
0.02798322371
0.02818460326
0.02838289268
0.02857797453
0.02876874111
0.02895605087
0.02913885412
0.02931729206
0.02949077942
0.02965875536
0.02982125939
0.02997752198
0.03012692555
0.03027019328
0.03040522895
0.03053284623
0.03065120119
0.03076301063
0.03086305083
0.03095749457
0.03104290512
0.03111990344
0.03118975158
0.03125100344
0.03130759231
0.03112379726
0.03093906661
0.03074655267
0.03055403873
)


101
(
2.231390755e-05
0.0007393102524
0.001519315108
0.002319528904
0.003115624009
0.003894553503
0.00464909478
0.005378089808
0.006079938975
0.006754880007
0.007404088604
0.00802881133
0.008630951105
0.009210779328
0.009770320311
0.01031104087
0.01083374583
0.0113389788
0.01182951998
0.0123038116
0.01276495184
0.01321360029
0.01364918598
0.01407327368
0.01448680005
0.01489035171
0.01528451771
0.0156699266
0.01604686416
0.01641592844
0.01677750422
0.01713215855
0.01748088418
0.01782181438
0.01815700612
0.01848639595
0.0188102993
0.01912921687
0.0194429877
0.01975138935
0.02005472037
0.02035403051
0.02064868281
0.0209390594
0.02122565088
0.02150810651
0.02178692478
0.02206192227
0.02233342975
0.02260130856
0.02286593136
0.0231273216
0.02338557867
0.02364081432
0.02389316682
0.02414273232
0.02438921011
0.02463327337
0.02487446934
0.02511317175
0.02534923028
0.02558278448
0.0258138601
0.02604231643
0.02626848439
0.02649204184
0.02671313147
0.02693165872
0.02714750707
0.0273606096
0.02757121129
0.02777884262
0.02798321329
0.02818459276
0.02838288211
0.02857796388
0.02876873039
0.02895604008
0.02913884326
0.02931728114
0.02949076843
0.02965874431
0.02982124828
0.02997751081
0.03012691432
0.030270182
0.03040521762
0.03053283486
0.03065118977
0.03076299917
0.03086303933
0.03095748304
0.03104289355
0.03111989185
0.03118973996
0.03125086298
0.03130753808
0.03112375046
0.03093902636
0.03074652415
0.03055402195
)


101
(
2.23139076e-05
0.0007393102524
0.001519315108
0.002319528904
0.003115624009
0.003894553503
0.00464909478
0.005378089808
0.006079938975
0.006754880007
0.007404088604
0.00802881133
0.008630951105
0.009210779328
0.009770320311
0.01031104087
0.01083374583
0.0113389788
0.01182951998
0.0123038116
0.01276495184
0.01321360029
0.01364918598
0.01407327368
0.01448680005
0.01489035171
0.01528451771
0.0156699266
0.01604686416
0.01641592844
0.01677750422
0.01713215855
0.01748088418
0.01782181438
0.01815700612
0.01848639595
0.0188102993
0.01912921687
0.0194429877
0.01975138935
0.02005472037
0.02035403051
0.02064868281
0.0209390594
0.02122565088
0.02150810651
0.02178692478
0.02206192227
0.02233342975
0.02260130856
0.02286593136
0.0231273216
0.02338557867
0.02364081432
0.02389316682
0.02414273232
0.02438921011
0.02463327337
0.02487446934
0.02511317175
0.02534923028
0.02558278448
0.0258138601
0.02604231643
0.02626848439
0.02649204184
0.02671313147
0.02693165872
0.02714750707
0.0273606096
0.02757121129
0.02777884262
0.02798321329
0.02818459276
0.02838288211
0.02857796388
0.02876873039
0.02895604008
0.02913884326
0.02931728114
0.02949076843
0.02965874431
0.02982124828
0.02997751081
0.03012691432
0.030270182
0.03040521762
0.03053283486
0.03065118977
0.03076299917
0.03086303933
0.03095748304
0.03104289355
0.03111989185
0.03118973996
0.03125091799
0.03130754413
0.031123765
0.03093904959
0.03074654805
0.03055404651
)


101
(
2.23139076e-05
0.0007393102524
0.001519315108
0.002319528904
0.003115624009
0.003894553503
0.00464909478
0.005378089808
0.006079938975
0.006754880007
0.007404088604
0.00802881133
0.008630951105
0.009210779328
0.009770320311
0.01031104087
0.01083374583
0.0113389788
0.01182951998
0.0123038116
0.01276495184
0.01321360029
0.01364918598
0.01407327368
0.01448680005
0.01489035171
0.01528451771
0.0156699266
0.01604686416
0.01641592844
0.01677750422
0.01713215855
0.01748088418
0.01782181438
0.01815700612
0.01848639595
0.0188102993
0.01912921687
0.0194429877
0.01975138935
0.02005472037
0.02035403051
0.02064868281
0.0209390594
0.02122565088
0.02150810651
0.02178692478
0.02206192227
0.02233342975
0.02260130856
0.02286593136
0.0231273216
0.02338557867
0.02364081432
0.02389316682
0.02414273232
0.02438921011
0.02463327337
0.02487446934
0.02511317175
0.02534923028
0.02558278448
0.0258138601
0.02604231643
0.02626848439
0.02649204184
0.02671313147
0.02693165872
0.02714750707
0.0273606096
0.02757121129
0.02777884262
0.02798321329
0.02818459276
0.02838288211
0.02857796388
0.02876873039
0.02895604008
0.02913884326
0.02931728114
0.02949076843
0.02965874431
0.02982124828
0.02997751081
0.03012691432
0.030270182
0.03040521762
0.03053283486
0.03065118977
0.03076299917
0.03086303933
0.03095748304
0.03104289355
0.03111989185
0.03118973996
0.03125097581
0.0313075522
0.03112375749
0.03093902894
0.03074654391
0.03055405889
)


101
(
2.23139159e-05
0.0007393105278
0.001519315674
0.002319529768
0.003115625169
0.003894554953
0.004649096512
0.005378091811
0.00607994124
0.006754882523
0.007404091362
0.008028814321
0.00863095432
0.009210782759
0.009770323951
0.01031104471
0.01083374986
0.01133898303
0.01182952439
0.01230381619
0.01276495659
0.01321360522
0.01364919106
0.01407327892
0.01448680544
0.01489035726
0.01528452341
0.01566993244
0.01604687014
0.01641593456
0.01677751047
0.01713216493
0.01748089069
0.01782182102
0.01815701289
0.01848640284
0.0188103063
0.01912922399
0.01944299494
0.0197513967
0.02005472784
0.02035403809
0.0206486905
0.0209390672
0.02122565879
0.02150811452
0.0217869329
0.02206193049
0.02233343807
0.02260131698
0.02286593988
0.02312733022
0.02338558739
0.02364082313
0.02389317572
0.02414274132
0.02438921919
0.02463328255
0.02487447861
0.0251131811
0.02534923972
0.02558279401
0.02581386971
0.02604232613
0.02626849418
0.02649205171
0.02671314142
0.02693166876
0.02714751719
0.02736061979
0.02757122156
0.02777885297
0.02798322371
0.02818460326
0.02838289268
0.02857797453
0.02876874111
0.02895605087
0.02913885412
0.02931729206
0.02949077942
0.02965875536
0.02982125939
0.02997752198
0.03012692555
0.03027019328
0.03040522895
0.03053284623
0.03065120119
0.03076301063
0.03086305083
0.03095749457
0.03104290512
0.03111990344
0.03118975158
0.03125093876
0.03130753876
0.03112374045
0.03093900834
0.03074653423
0.03055406012
)


101
(
2.23139242e-05
0.0007393108032
0.00151931624
0.002319530632
0.00311562633
0.003894556404
0.004649098244
0.005378093815
0.006079943505
0.00675488504
0.00740409412
0.008028817312
0.008630957535
0.009210786191
0.009770327591
0.01031104855
0.0108337539
0.01133898725
0.0118295288
0.01230382077
0.01276496135
0.01321361014
0.01364919615
0.01407328416
0.01448681084
0.01489036281
0.0152845291
0.01566993828
0.01604687612
0.01641594068
0.01677751672
0.01713217132
0.01748089721
0.01782182766
0.01815701965
0.01848640972
0.01881031331
0.01912923112
0.01944300219
0.01975140406
0.02005473531
0.02035404568
0.0206486982
0.020939075
0.02122566669
0.02150812253
0.02178694101
0.02206193871
0.02233344639
0.0226013254
0.0228659484
0.02312733883
0.0233855961
0.02364083194
0.02389318462
0.02414275031
0.02438922828
0.02463329173
0.02487448788
0.02511319046
0.02534924916
0.02558280354
0.02581387933
0.02604233583
0.02626850396
0.02649206158
0.02671315137
0.02693167879
0.0271475273
0.02736062998
0.02757123183
0.02777886332
0.02798323414
0.02818461376
0.02838290326
0.02857798517
0.02876875183
0.02895606166
0.02913886497
0.02931730298
0.02949079041
0.02965876641
0.0298212705
0.02997753315
0.03012693677
0.03027020455
0.03040524028
0.03053285761
0.03065121261
0.03076302209
0.03086306232
0.03095750611
0.03104291668
0.03111991503
0.03118976319
0.03125081116
0.03130748255
0.03112373765
0.03093905098
0.03074654123
0.03055403147
)


101
(
2.23139076e-05
0.0007393102524
0.001519315108
0.002319528904
0.003115624009
0.003894553503
0.00464909478
0.005378089808
0.006079938975
0.006754880007
0.007404088604
0.00802881133
0.008630951105
0.009210779328
0.009770320311
0.01031104087
0.01083374583
0.0113389788
0.01182951998
0.0123038116
0.01276495184
0.01321360029
0.01364918598
0.01407327368
0.01448680005
0.01489035171
0.01528451771
0.0156699266
0.01604686416
0.01641592844
0.01677750422
0.01713215855
0.01748088418
0.01782181438
0.01815700612
0.01848639595
0.0188102993
0.01912921687
0.0194429877
0.01975138935
0.02005472037
0.02035403051
0.02064868281
0.0209390594
0.02122565088
0.02150810651
0.02178692478
0.02206192227
0.02233342975
0.02260130856
0.02286593136
0.0231273216
0.02338557867
0.02364081432
0.02389316682
0.02414273232
0.02438921011
0.02463327337
0.02487446934
0.02511317175
0.02534923028
0.02558278448
0.0258138601
0.02604231643
0.02626848439
0.02649204184
0.02671313147
0.02693165872
0.02714750707
0.0273606096
0.02757121129
0.02777884262
0.02798321329
0.02818459276
0.02838288211
0.02857796388
0.02876873039
0.02895604008
0.02913884326
0.02931728114
0.02949076843
0.02965874431
0.02982124828
0.02997751081
0.03012691432
0.030270182
0.03040521762
0.03053283486
0.03065118977
0.03076299917
0.03086303933
0.03095748304
0.03104289355
0.03111989185
0.03118973996
0.031250824
0.03130746098
0.03112370575
0.03093901083
0.03074651808
0.03055402533
)


101
(
2.23139076e-05
0.0007393102524
0.001519315108
0.002319528904
0.003115624009
0.003894553503
0.00464909478
0.005378089808
0.006079938975
0.006754880007
0.007404088604
0.00802881133
0.008630951105
0.009210779328
0.009770320311
0.01031104087
0.01083374583
0.0113389788
0.01182951998
0.0123038116
0.01276495184
0.01321360029
0.01364918598
0.01407327368
0.01448680005
0.01489035171
0.01528451771
0.0156699266
0.01604686416
0.01641592844
0.01677750422
0.01713215855
0.01748088418
0.01782181438
0.01815700612
0.01848639595
0.0188102993
0.01912921687
0.0194429877
0.01975138935
0.02005472037
0.02035403051
0.02064868281
0.0209390594
0.02122565088
0.02150810651
0.02178692478
0.02206192227
0.02233342975
0.02260130856
0.02286593136
0.0231273216
0.02338557867
0.02364081432
0.02389316682
0.02414273232
0.02438921011
0.02463327337
0.02487446934
0.02511317175
0.02534923028
0.02558278448
0.0258138601
0.02604231643
0.02626848439
0.02649204184
0.02671313147
0.02693165872
0.02714750707
0.0273606096
0.02757121129
0.02777884262
0.02798321329
0.02818459276
0.02838288211
0.02857796388
0.02876873039
0.02895604008
0.02913884326
0.02931728114
0.02949076843
0.02965874431
0.02982124828
0.02997751081
0.03012691432
0.030270182
0.03040521762
0.03053283486
0.03065118977
0.03076299917
0.03086303933
0.03095748304
0.03104289355
0.03111989185
0.03118973996
0.03125094381
0.03130749753
0.03112368249
0.03093893614
0.03074649549
0.03055405484
)


101
(
2.23139242e-05
0.0007393108033
0.00151931624
0.002319530632
0.00311562633
0.003894556404
0.004649098244
0.005378093815
0.006079943505
0.00675488504
0.00740409412
0.008028817312
0.008630957535
0.009210786191
0.009770327591
0.01031104855
0.0108337539
0.01133898725
0.0118295288
0.01230382077
0.01276496135
0.01321361014
0.01364919615
0.01407328416
0.01448681084
0.01489036281
0.0152845291
0.01566993828
0.01604687612
0.01641594068
0.01677751672
0.01713217132
0.01748089721
0.01782182766
0.01815701965
0.01848640972
0.01881031331
0.01912923112
0.01944300219
0.01975140406
0.02005473531
0.02035404568
0.0206486982
0.020939075
0.02122566669
0.02150812253
0.02178694101
0.02206193871
0.02233344639
0.0226013254
0.0228659484
0.02312733883
0.0233855961
0.02364083194
0.02389318462
0.02414275031
0.02438922828
0.02463329173
0.02487448788
0.02511319046
0.02534924916
0.02558280354
0.02581387933
0.02604233583
0.02626850396
0.02649206158
0.02671315137
0.02693167879
0.0271475273
0.02736062998
0.02757123183
0.02777886332
0.02798323414
0.02818461376
0.02838290326
0.02857798517
0.02876875183
0.02895606166
0.02913886497
0.02931730298
0.02949079041
0.02965876641
0.0298212705
0.02997753315
0.03012693677
0.03027020455
0.03040524028
0.03053285761
0.03065121261
0.03076302209
0.03086306232
0.03095750611
0.03104291668
0.03111991503
0.03118976319
0.03125100128
0.03130753021
0.03112370841
0.03093895551
0.03074651144
0.03055406737
)


101
(
2.231390755e-05
0.0007393102524
0.001519315108
0.002319528904
0.003115624009
0.003894553503
0.00464909478
0.005378089808
0.006079938975
0.006754880007
0.007404088604
0.00802881133
0.008630951105
0.009210779328
0.009770320311
0.01031104087
0.01083374583
0.0113389788
0.01182951998
0.0123038116
0.01276495184
0.01321360029
0.01364918598
0.01407327368
0.01448680005
0.01489035171
0.01528451771
0.0156699266
0.01604686416
0.01641592844
0.01677750422
0.01713215855
0.01748088418
0.01782181438
0.01815700612
0.01848639595
0.0188102993
0.01912921687
0.0194429877
0.01975138935
0.02005472037
0.02035403051
0.02064868281
0.0209390594
0.02122565088
0.02150810651
0.02178692478
0.02206192227
0.02233342975
0.02260130856
0.02286593136
0.0231273216
0.02338557867
0.02364081432
0.02389316682
0.02414273232
0.02438921011
0.02463327337
0.02487446934
0.02511317175
0.02534923028
0.02558278448
0.0258138601
0.02604231643
0.02626848439
0.02649204184
0.02671313147
0.02693165872
0.02714750707
0.0273606096
0.02757121129
0.02777884262
0.02798321329
0.02818459276
0.02838288211
0.02857796388
0.02876873039
0.02895604008
0.02913884326
0.02931728114
0.02949076843
0.02965874431
0.02982124828
0.02997751081
0.03012691432
0.030270182
0.03040521762
0.03053283486
0.03065118977
0.03076299917
0.03086303933
0.03095748304
0.03104289355
0.03111989185
0.03118973996
0.03125104735
0.03130753475
0.03112373663
0.0309390028
0.03074650762
0.03055401244
)


101
(
2.23139076e-05
0.0007393102524
0.001519315108
0.002319528904
0.003115624009
0.003894553503
0.00464909478
0.005378089808
0.006079938975
0.006754880007
0.007404088604
0.00802881133
0.008630951105
0.009210779328
0.009770320311
0.01031104087
0.01083374583
0.0113389788
0.01182951998
0.0123038116
0.01276495184
0.01321360029
0.01364918598
0.01407327368
0.01448680005
0.01489035171
0.01528451771
0.0156699266
0.01604686416
0.01641592844
0.01677750422
0.01713215855
0.01748088418
0.01782181438
0.01815700612
0.01848639595
0.0188102993
0.01912921687
0.0194429877
0.01975138935
0.02005472037
0.02035403051
0.02064868281
0.0209390594
0.02122565088
0.02150810651
0.02178692478
0.02206192227
0.02233342975
0.02260130856
0.02286593136
0.0231273216
0.02338557867
0.02364081432
0.02389316682
0.02414273232
0.02438921011
0.02463327337
0.02487446934
0.02511317175
0.02534923028
0.02558278448
0.0258138601
0.02604231643
0.02626848439
0.02649204184
0.02671313147
0.02693165872
0.02714750707
0.0273606096
0.02757121129
0.02777884262
0.02798321329
0.02818459276
0.02838288211
0.02857796388
0.02876873039
0.02895604008
0.02913884326
0.02931728114
0.02949076843
0.02965874431
0.02982124828
0.02997751081
0.03012691432
0.030270182
0.03040521762
0.03053283486
0.03065118977
0.03076299917
0.03086303933
0.03095748304
0.03104289355
0.03111989185
0.03118973996
0.0312510129
0.03130751221
0.03112372794
0.03093900705
0.03074651547
0.03055402389
)


101
(
2.23139076e-05
0.0007393102524
0.001519315108
0.002319528904
0.003115624009
0.003894553503
0.00464909478
0.005378089808
0.006079938975
0.006754880007
0.007404088604
0.00802881133
0.008630951105
0.009210779328
0.009770320311
0.01031104087
0.01083374583
0.0113389788
0.01182951998
0.0123038116
0.01276495184
0.01321360029
0.01364918598
0.01407327368
0.01448680005
0.01489035171
0.01528451771
0.0156699266
0.01604686416
0.01641592844
0.01677750422
0.01713215855
0.01748088418
0.01782181438
0.01815700612
0.01848639595
0.0188102993
0.01912921687
0.0194429877
0.01975138935
0.02005472037
0.02035403051
0.02064868281
0.0209390594
0.02122565088
0.02150810651
0.02178692478