/*--------------------------------*- C++ -*----------------------------------*\
| =========                 |                                                 |
| \\      /  F ield         | OpenFOAM: The Open Source CFD Toolbox           |
|  \\    /   O peration     | Version:  2.3.1                                 |
|   \\  /    A nd           | Web:      www.OpenFOAM.org                      |
|    \\/     M anipulation  |                                                 |
\*---------------------------------------------------------------------------*/
FoamFile
{
    version     2.0;
    format      ascii;
    class       dictionary;
    location    "constant";
    object      GRPSI25;
}
// * * * * * * * * * * * * * * * * * * * * * * * * * * * * * * * * * * * * * //

GRPSI25_table
101
(

101
(
5.93576719e-18
5.932094536e-16
8.440930266e-15
4.26264641e-14
1.201750036e-13
2.354056373e-13
3.727413517e-13
5.033353659e-13
5.964713082e-13
6.338899078e-13
6.052181374e-13
5.143572005e-13
3.67418764e-13
1.824860449e-13
-1.287692063e-14
-1.973586604e-13
-3.504952893e-13
-4.515950461e-13
-4.98085702e-13
-4.974186777e-13
-4.6055293e-13
-3.992622492e-13
-3.268814783e-13
-2.585535276e-13
-1.983585654e-13
-1.481881406e-13
-1.086486319e-13
-7.839963982e-14
-5.596817002e-14
-3.990119294e-14
-2.848124057e-14
-2.064148669e-14
-1.455461739e-14
-1.011536742e-14
-7.413236019e-15
-4.85451526e-15
-2.595370541e-15
-2.459495386e-15
-2.73350314e-15
-1.920173413e-15
-1.395136138e-15
-1.017639321e-15
-7.1959644e-16
-5.186658587e-16
-3.705961952e-16
-2.599894865e-16
-1.819876326e-16
-1.253531486e-16
-8.617850531e-17
-5.848887898e-17
-3.972339917e-17
-2.650633261e-17
-1.753624523e-17
-1.151012763e-17
-7.488403689e-18
-4.697881839e-18
-2.911904138e-18
-1.832092408e-18
-1.096289745e-18
-6.575665944e-19
-3.821865628e-19
-2.233800953e-19
-1.257041243e-19
-6.825449497e-20
-3.640712212e-20
-1.915367342e-20
-9.691620465e-21
-4.684995889e-21
-2.19655474e-21
-1.012770914e-21
-4.389300759e-22
-1.834868432e-22
-7.306421895e-23
-2.861207286e-23
-1.042413119e-23
-4.609457324e-24
-1.990453661e-24
-5.857491394e-25
-1.708642259e-25
-4.758632818e-26
-1.172096344e-26
-2.401256901e-27
-5.596888217e-28
-1.070864908e-28
-3.43098676e-29
-9.75124596e-30
-1.608980473e-30
-2.437358954e-31
-3.202757607e-32
-3.810336382e-33
-1.041002358e-33
-9.285830088e-35
-4.987933549e-36
-2.690049006e-37
-2.747762551e-38
-2.331172403e-39
-7.352693464e-41
3.097756206e-46
-3.315408682e-55
5.537884887e-47
6.630817121e-55
)


101
(
1.210978385e-18
5.306381468e-16
7.871533544e-15
4.00656552e-14
1.135240925e-13
2.236977407e-13
3.550415011e-13
4.805202366e-13
5.717961435e-13
6.112058129e-13
5.887470278e-13
5.071054955e-13
3.725898276e-13
2.008685508e-13
1.574915359e-14
-1.619684465e-13
-3.12919225e-13
-4.181228819e-13
-4.728088609e-13
-4.816434662e-13
-4.530772133e-13
-3.997243897e-13
-3.340698693e-13
-2.682475106e-13
-2.084203603e-13
-1.575917841e-13
-1.167199487e-13
-8.508545661e-14
-6.134544552e-14
-4.402236608e-14
-3.157013371e-14
-2.282380978e-14
-1.641812748e-14
-1.171438026e-14
-8.491757266e-15
-5.864341344e-15
-3.655315603e-15
-2.735278598e-15
-2.571123472e-15
-2.104135844e-15
-1.577901934e-15
-1.156019053e-15
-8.324261188e-16
-5.98266915e-16
-4.290431083e-16
-3.0546331e-16
-2.164206181e-16
-1.520961133e-16
-1.061280678e-16
-7.339835375e-17
-5.039763288e-17
-3.42834577e-17
-2.312241966e-17
-1.545706836e-17
-1.020723989e-17
-6.625733221e-18
-4.23534136e-18
-2.685477998e-18
-1.677464042e-18
-1.032952075e-18
-6.259704321e-19
-3.743635848e-19
-2.200511538e-19
-1.263795164e-19
-7.081722127e-20
-3.881297763e-20
-2.082074896e-20
-1.08556682e-20
-5.502506526e-21
-2.702221176e-21
-1.276096624e-21
-5.792397119e-22
-2.538721139e-22
-1.07048658e-22
-4.209726077e-23
-1.616095788e-23
-6.121005134e-24
-2.116615154e-24
-6.7845241e-25
-2.038159589e-25
-5.60856936e-26
-1.382844138e-26
-2.960409309e-27
-6.050190353e-28
-1.132016469e-28
-2.307314787e-29
-6.939471367e-30
-2.29798336e-30
-5.77070417e-31
-8.82639181e-32
-1.500003021e-32
-2.361619316e-33
-3.148615546e-34
-3.884031146e-35
-3.170584606e-36
-4.055451088e-37
-4.547194839e-38
2.088476269e-36
-1.61165158e-26
-2.054920189e-26
-8.86537217e-27
)


101
(
-2.613299602e-18
4.75050956e-16
7.356867726e-15
3.779290069e-14
1.077508642e-13
2.137911681e-13
3.408982755e-13
4.637725281e-13
5.559203215e-13
5.999957664e-13
5.858296202e-13
5.146639673e-13
3.922105693e-13
2.318793647e-13
5.444211697e-14
-1.201108112e-13
-2.729522987e-13
-3.861303102e-13
-4.519788834e-13
-4.729266352e-13
-4.558016875e-13
-4.110793501e-13
-3.512841273e-13
-2.879810303e-13
-2.280556376e-13
-1.755799318e-13
-1.322419881e-13
-9.791056047e-14
-7.160516843e-14
-5.201067436e-14
-3.7677922e-14
-2.742822772e-14
-1.995780847e-14
-1.448502917e-14
-1.0604856e-14
-7.525168147e-15
-5.038717884e-15
-3.589919335e-15
-2.96678786e-15
-2.480051869e-15
-1.96110316e-15
-1.483928569e-15
-1.092284638e-15
-7.97285979e-16
-5.79691228e-16
-4.196472298e-16
-3.031865722e-16
-2.181579513e-16
-1.561208926e-16
-1.109838299e-16
-7.835933584e-17
-5.489359385e-17
-3.819163776e-17
-2.64286821e-17
-1.815459771e-17
-1.233402749e-17
-8.277805068e-18
-5.495513787e-18
-3.613529515e-18
-2.350865854e-18
-1.511271637e-18
-9.626404524e-19
-6.053065468e-19
-3.744651539e-19
-2.281398069e-19
-1.367915011e-19
-8.061201284e-20
-4.64663413e-20
-2.625421768e-20
-1.456344593e-20
-7.843838922e-21
-4.084763991e-21
-2.059531429e-21
-1.018800913e-21
-4.835698459e-22
-2.192529338e-22
-9.551099161e-23
-3.971117431e-23
-1.579312649e-23
-6.037810764e-24
-2.194400085e-24
-7.468613414e-25
-2.31724939e-25
-6.799061257e-26
-1.805873155e-26
-4.186014333e-27
-8.757201322e-28
-2.00886561e-28
-6.272612523e-29
-1.474326249e-29
-2.900654096e-30
-6.219808892e-31
-1.340963398e-31
-3.016396107e-32
-5.255440298e-33
-9.826415769e-34
-1.300429194e-34
3.40767758e-34
1.092610104e-30
-1.692316797e-20
-3.384633594e-20
)


101
(
-5.709862725e-18
4.25165904e-16
6.885253879e-15
3.573414716e-14
1.025960965e-13
2.050807723e-13
3.289685121e-13
4.506013169e-13
5.449855927e-13
5.949797813e-13
5.900275404e-13
5.298988279e-13
4.193946243e-13
2.698410277e-13
9.934556521e-14
-7.31418886e-14
-2.292275723e-13
-3.517719702e-13
-4.303230161e-13
-4.650315733e-13
-4.613382568e-13
-4.268511967e-13
-3.738214515e-13
-3.138660255e-13
-2.542386801e-13
-1.9999582e-13
-1.537533181e-13
-1.160492193e-13
-8.639363582e-14
-6.376446518e-14
-4.683592369e-14
-3.447866032e-14
-2.537715437e-14
-1.869282268e-14
-1.395348685e-14
-1.012014848e-14
-7.039498574e-15
-5.06561205e-15
-3.914175597e-15
-3.18334788e-15
-2.582861701e-15
-2.026002258e-15
-1.539885011e-15
-1.153602746e-15
-8.568244386e-16
-6.334392996e-16
-4.683075362e-16
-3.460523567e-16
-2.552513429e-16
-1.874941919e-16
-1.370859413e-16
-9.950839563e-17
-7.182499195e-17
-5.166277783e-17
-3.698664543e-17
-2.631871826e-17
-1.859362148e-17
-1.300017065e-17
-9.02072335e-18
-6.207200196e-18
-4.224460634e-18
-2.856394168e-18
-1.914030859e-18
-1.268018707e-18
-8.321300812e-19
-5.392113279e-19
-3.4415467e-19
-2.15791482e-19
-1.327469291e-19
-8.087201631e-20
-4.840733413e-20
-2.818664355e-20
-1.597423876e-20
-8.897977207e-21
-4.835090713e-21
-2.541808869e-21
-1.289441761e-21
-6.285633012e-22
-2.954229513e-22
-1.340335038e-22
-5.910612707e-23
-2.509397523e-23
-9.982187377e-24
-3.780638999e-24
-1.354106105e-24
-4.466016009e-25
-1.334690434e-25
-3.653042037e-26
-1.07121712e-26
-3.083640451e-27
-7.496295782e-28
-1.595371451e-28
-3.722200549e-29
-9.15868866e-30
-2.109796866e-30
-5.148037004e-31
-1.873868646e-32
7.034969996e-31
6.014753761e-29
1.878131952e-28
2.565784168e-28
)


101
(
-8.213743938e-18
3.800395516e-16
6.448571405e-15
3.383952385e-14
9.78925983e-14
1.972006684e-13
3.184889319e-13
4.396713093e-13
5.37059169e-13
5.937055828e-13
5.985983053e-13
5.500775026e-13
4.518780995e-13
3.133545443e-13
1.501297929e-13
-2.014988861e-14
-1.796203154e-13
-3.119146318e-13
-4.041658672e-13
-4.541797007e-13
-4.658941344e-13
-4.43776364e-13
-3.993825732e-13
-3.443889252e-13
-2.861740121e-13
-2.306912206e-13
-1.815720352e-13
-1.401419608e-13
-1.065437169e-13
-8.019185696e-14
-5.994367589e-14
-4.479355425e-14
-3.340893546e-14
-2.494775054e-14
-1.886839286e-14
-1.409377031e-14
-1.024918827e-14
-7.458035659e-15
-5.631423529e-15
-4.460975552e-15
-3.621414773e-15
-2.909716378e-15
-2.282701956e-15
-1.763725329e-15
-1.34629165e-15
-1.020324296e-15
-7.729513275e-16
-5.862244291e-16
-4.450167476e-16
-3.373362101e-16
-2.552608721e-16
-1.920084381e-16
-1.435907811e-16
-1.070558685e-16
-7.971855809e-17
-5.907845456e-17
-4.351982481e-17
-3.186851613e-17
-2.320772104e-17
-1.679774981e-17
-1.201075385e-17
-8.539994141e-18
-6.033217099e-18
-4.222687015e-18
-2.944254817e-18
-2.037115451e-18
-1.388233692e-18
-9.323212262e-19
-6.164604242e-19
-4.047432846e-19
-2.633836242e-19
-1.673488041e-19
-1.040738636e-19
-6.360027644e-20
-3.826489833e-20
-2.254015462e-20
-1.2921455e-20
-7.153848893e-21
-3.848642432e-21
-2.002846343e-21
-1.016824903e-21
-5.043133955e-22
-2.39135324e-22
-1.084609633e-22
-4.744124694e-23
-1.965159125e-23
-7.564882987e-24
-2.671093951e-24
-9.177078114e-25
-3.177686735e-25
-1.022846295e-25
-2.830644304e-26
-7.514067741e-27
-1.936511544e-27
-4.940611221e-28
-1.370713635e-28
3.449311323e-29
5.104198993e-28
7.892065867e-27
5.359648928e-26
9.230560018e-26
)


101
(
-1.023122331e-17
3.389693964e-16
6.041120206e-15
3.207518603e-14
9.353143766e-14
1.899261854e-13
3.090179485e-13
4.302505846e-13
5.31145291e-13
5.949967649e-13
6.103436005e-13
5.741462301e-13
4.889904e-13
3.623171915e-13
2.073304161e-13
4.013738362e-14
-1.221452356e-13
-2.640186257e-13
-3.705858461e-13
-4.373524121e-13
-4.66582459e-13
-4.593486874e-13
-4.261103438e-13
-3.784080167e-13
-3.234182727e-13
-2.678492226e-13
-2.163899918e-13
-1.712348119e-13
-1.333023976e-13
-1.025898288e-13
-7.830947207e-14
-5.963939354e-14
-4.518179277e-14
-3.42407334e-14
-2.629528987e-14
-2.010430294e-14
-1.513987955e-14
-1.129683166e-14
-8.534337243e-15
-6.664932517e-15
-5.376802663e-15
-4.370013449e-15
-3.512321732e-15
-2.794224743e-15
-2.19628138e-15
-1.709782851e-15
-1.326432154e-15
-1.02926311e-15
-8.013738299e-16
-6.251177743e-16
-4.880693053e-16
-3.794427426e-16
-2.931466757e-16
-2.255104057e-16
-1.735412109e-16
-1.333468609e-16
-1.019680498e-16
-7.751387651e-17
-5.87255558e-17
-4.442980886e-17
-3.319711819e-17
-2.464068286e-17
-1.822718833e-17
-1.334850084e-17
-9.757282587e-18
-7.11802793e-18
-5.139388919e-18
-3.669400008e-18
-2.57603014e-18
-1.791585494e-18
-1.246386117e-18
-8.531033522e-19
-5.736757987e-19
-3.789228057e-19
-2.469311273e-19
-1.582067887e-19
-9.956112616e-20
-6.145006026e-20
-3.692227165e-20
-2.14310549e-20
-1.212426375e-20
-6.741908137e-21
-3.674088261e-21
-1.916391015e-21
-9.71586245e-22
-4.750755038e-22
-2.209785323e-22
-9.525204848e-23
-3.918928302e-23
-1.585947237e-23
-6.281092711e-24
-2.222725391e-24
-7.365099594e-25
-2.377452196e-25
-7.163667321e-26
-2.310413747e-26
8.4748466e-27
1.089591905e-25
2.045928912e-24
1.071347337e-23
1.752562339e-23
)


101
(
-1.184648978e-17
3.014251253e-16
5.658847437e-15
3.041791986e-14
8.944065723e-14
1.831162666e-13
3.002918782e-13
4.219208228e-13
5.267001881e-13
5.982438838e-13
6.246886967e-13
6.016652178e-13
5.305681822e-13
4.169573617e-13
2.716310462e-13
1.089621058e-13
-5.496598537e-14
-2.057294089e-13
-3.267819492e-13
-4.115092851e-13
-4.603942483e-13
-4.708015504e-13
-4.517363691e-13
-4.14362748e-13
-3.651840858e-13
-3.114077899e-13
-2.587901515e-13
-2.104238458e-13
-1.681058265e-13
-1.325856966e-13
-1.03582896e-13
-8.062425346e-14
-6.223265073e-14
-4.793976033e-14
-3.741474001e-14
-2.920216231e-14
-2.26339228e-14
-1.736257129e-14
-1.330297308e-14
-1.037981941e-14
-8.342103215e-15
-6.813340302e-15
-5.562247121e-15
-4.53030012e-15
-3.658613239e-15
-2.925416335e-15
-2.323430078e-15
-1.840328542e-15
-1.46404022e-15
-1.16963842e-15
-9.378951049e-16
-7.51179643e-16
-5.980013293e-16
-4.73136596e-16
-3.743894989e-16
-2.96829155e-16
-2.345746311e-16
-1.844339178e-16
-1.446189643e-16
-1.132285089e-16
-8.779826535e-17
-6.776168814e-17
-5.220640324e-17
-3.987438518e-17
-3.031814629e-17
-2.307019773e-17
-1.747322717e-17
-1.312705456e-17
-9.738651484e-18
-7.135882277e-18
-5.208818033e-18
-3.777768651e-18
-2.711382693e-18
-1.919416384e-18
-1.340199955e-18
-9.200401435e-19
-6.232109372e-19
-4.183058456e-19
-2.749332553e-19
-1.756433594e-19
-1.090914028e-19
-6.653841343e-20
-4.021553591e-20
-2.35122719e-20
-1.337214372e-20
-7.445118771e-21
-3.995252085e-21
-2.024076592e-21
-9.683767547e-22
-4.562074686e-22
-2.127444432e-22
-9.124775972e-23
-3.622601272e-23
-1.427778139e-23
-5.379669863e-24
-2.100864882e-24
1.753225848e-24
1.693125444e-23
2.453262917e-22
3.791682136e-21
7.121987807e-21
)


101
(
-1.312668239e-17
2.669996185e-16
5.298821188e-15
2.885160246e-14
8.557212819e-14
1.766806825e-13
2.92148887e-13
4.14430395e-13
5.234028419e-13
6.030997518e-13
6.41323365e-13
6.324339765e-13
5.766206652e-13
4.775963425e-13
3.437465317e-13
1.875310298e-13
2.371631807e-14
-1.346444308e-13
-2.69773275e-13
-3.732493097e-13
-4.437976523e-13
-4.747433944e-13
-4.732745334e-13
-4.499440489e-13
-4.100077003e-13
-3.607371033e-13
-3.089195645e-13
-2.585526194e-13
-2.123487738e-13
-1.719370592e-13
-1.377099073e-13
-1.097604632e-13
-8.653945907e-14
-6.789744233e-14
-5.388834273e-14
-4.286714714e-14
-3.406319706e-14
-2.683777973e-14
-2.098820581e-14
-1.653480307e-14
-1.332177251e-14
-1.091768471e-14
-8.996914569e-15
-7.453906509e-15
-6.155151732e-15
-5.044202984e-15
-4.102807023e-15
-3.316805837e-15
-2.687931249e-15
-2.189581315e-15
-1.795248638e-15
-1.474277485e-15
-1.204503443e-15
-9.786366017e-16
-7.944007135e-16
-6.458371721e-16
-5.249491025e-16
-4.256203117e-16
-3.443023681e-16
-2.783288531e-16
-2.229378941e-16
-1.777593143e-16
-1.415365156e-16
-1.119949571e-16
-8.828570444e-17
-6.964881615e-17
-5.483581026e-17
-4.29464999e-17
-3.339716143e-17
-2.564615371e-17
-1.959573793e-17
-1.492080187e-17
-1.127728587e-17
-8.449112931e-18
-6.259317287e-18
-4.56736033e-18
-3.286161693e-18
-2.350365742e-18
-1.662244465e-18
-1.155330509e-18
-7.822703637e-19
-5.164520804e-19
-3.381153217e-19
-2.176807923e-19
-1.360234436e-19
-8.388309081e-20
-5.054202261e-20
-2.912715077e-20
-1.5904637e-20
-8.532702119e-21
-4.530872115e-21
-2.288419577e-21
-1.060990858e-21
-4.92767045e-22
-2.237653639e-22
-1.038458998e-22
1.414380314e-22
1.197029048e-21
1.467026391e-20
5.741375191e-20
8.753323204e-20
)


101
(
-1.412577405e-17
2.353745922e-16
4.958874752e-15
2.73648077e-14
8.189282597e-14
1.705596038e-13
2.844852981e-13
4.076175777e-13
5.210445024e-13
6.093395468e-13
6.6005643e-13
6.663527883e-13
6.272260073e-13
5.445875575e-13
4.244059495e-13
2.77072248e-13
1.157542815e-13
-4.821332584e-14
-1.962750448e-13
-3.186481721e-13
-4.125130277e-13
-4.668947233e-13
-4.867190551e-13
-4.817309026e-13
-4.553763377e-13
-4.143006313e-13
-3.66174241e-13
-3.159126738e-13
-2.671294469e-13
-2.223678378e-13
-1.828137501e-13
-1.49393765e-13
-1.205296599e-13
-9.651017918e-14
-7.79921533e-14
-6.3199126e-14
-5.134395979e-14
-4.144787691e-14
-3.314732828e-14
-2.653673857e-14
-2.155340765e-14
-1.776043833e-14
-1.475551665e-14
-1.237881697e-14
-1.039557106e-14
-8.69443484e-15
-7.227937433e-15
-5.960656775e-15
-4.916638455e-15
-4.079516764e-15
-3.408149694e-15
-2.853674901e-15
-2.38735653e-15
-1.987791255e-15
-1.647697328e-15
-1.369762311e-15
-1.142058423e-15
-9.49790011e-16
-7.88657848e-16
-6.557030169e-16
-5.410133786e-16
-4.450765844e-16
-3.65351246e-16
-2.976535385e-16
-2.416768774e-16
-1.96234122e-16
-1.597588073e-16
-1.300020782e-16
-1.054639179e-16
-8.456824202e-17
-6.717983362e-17
-5.309520778e-17
-4.171779078e-17
-3.284771487e-17
-2.568116479e-17
-1.977356996e-17
-1.502383341e-17
-1.133558764e-17
-8.509070212e-18
-6.315824228e-18
-4.592350444e-18
-3.261792404e-18
-2.290186347e-18
-1.597301801e-18
-1.08806485e-18
-7.289532901e-19
-4.797623152e-19
-3.092518259e-19
-1.888726643e-19
-1.136907805e-19
-6.776257808e-20
-3.860819981e-20
-2.056534922e-20
-1.103798004e-20
-5.8525493e-21
-3.208884869e-21
6.096527905e-21
4.568395277e-20
4.512222154e-19
2.035013062e-18
3.244386014e-18
)


101
(
-1.488745114e-17
2.062957437e-16
4.637361853e-15
2.594924906e-14
7.837933083e-14
1.647109588e-13
2.772293582e-13
4.013692799e-13
5.19473108e-13
6.1679364e-13
6.807426239e-13
7.03354668e-13
6.824792087e-13
6.18292342e-13
5.143545095e-13
3.788589457e-13
2.231086244e-13
5.633364843e-14
-1.026112417e-13
-2.431497557e-13
-3.613530286e-13
-4.418730305e-13
-4.867729466e-13
-5.048052146e-13
-4.972283292e-13
-4.691653175e-13
-4.288226858e-13
-3.819410287e-13
-3.329777638e-13
-2.853516961e-13
-2.41060888e-13
-2.021132227e-13
-1.670055371e-13
-1.367165771e-13
-1.12667033e-13
-9.294631372e-14
-7.700471027e-14
-6.353168438e-14
-5.196130108e-14
-4.244237556e-14
-3.496174534e-14
-2.905884113e-14
-2.431915077e-14
-2.059832237e-14
-1.75179247e-14
-1.489268425e-14
-1.261536395e-14
-1.060624848e-14
-8.911482947e-15
-7.516124247e-15
-6.372321993e-15
-5.423041198e-15
-4.62888729e-15
-3.940336519e-15
-3.341043347e-15
-2.83262818e-15
-2.41165629e-15
-2.052112073e-15
-1.73918409e-15
-1.481812444e-15
-1.255542876e-15
-1.060544359e-15
-8.952105985e-16
-7.501339131e-16
-6.265210942e-16
-5.22107829e-16
-4.36516427e-16
-3.662490513e-16
-3.067469665e-16
-2.549380791e-16
-2.101842285e-16
-1.726107619e-16
-1.40942294e-16
-1.149441483e-16
-9.356862853e-17
-7.561819342e-17
-6.042450261e-17
-4.765917103e-17
-3.754976038e-17
-2.95771568e-17
-2.282175582e-17
-1.721993066e-17
-1.286157269e-17
-9.581490542e-18
-7.077426649e-18
-5.071566169e-18
-3.594988343e-18
-2.539735869e-18
-1.712289027e-18
-1.137735955e-18
-7.478171624e-19
-4.726346831e-19
-2.851931915e-19
-1.725137652e-19
-1.04940279e-19
-6.571653202e-20
1.588966203e-19
1.027933885e-18
7.6886618e-18
4.039182937e-17
6.709178792e-17
)


101
(
-1.544732434e-17
1.795545008e-16
4.332991507e-15
2.459877869e-14
7.501461522e-14
1.591036908e-13
2.703272304e-13
3.956018002e-13
5.185745498e-13
6.253247379e-13
7.032523236e-13
7.433735311e-13
7.4246606e-13
6.990603358e-13
6.143388417e-13
4.941931951e-13
3.478303747e-13
1.819724793e-13
1.526890626e-14
-1.415507249e-13
-2.840674515e-13
-3.927377253e-13
-4.663811362e-13
-5.123977356e-13
-5.294851104e-13
-5.204592865e-13
-4.934357163e-13
-4.546781112e-13
-4.093341756e-13
-3.616249857e-13
-3.143304593e-13
-2.706473876e-13
-2.290774155e-13
-1.91825025e-13
-1.61405736e-13
-1.355611695e-13
-1.143230294e-13
-9.622575696e-14
-8.045045747e-14
-6.711965849e-14
-5.626388349e-14
-4.732161813e-14
-3.992843522e-14
-3.410467412e-14
-2.928533148e-14
-2.52273024e-14
-2.173838649e-14
-1.86237448e-14
-1.592220045e-14
-1.362418492e-14
-1.169954986e-14
-1.008990921e-14
-8.752633099e-15
-7.612488618e-15
-6.594230245e-15
-5.679744181e-15
-4.921718625e-15
-4.272470276e-15
-3.691688077e-15
-3.21153538e-15
-2.788879673e-15
-2.410931454e-15
-2.08304747e-15
-1.793902423e-15
-1.540275396e-15
-1.312791496e-15
-1.11942603e-15
-9.612225951e-16
-8.271139388e-16
-7.107386233e-16
-6.06447998e-16
-5.14099672e-16
-4.328593848e-16
-3.64618539e-16
-3.079079986e-16
-2.592720063e-16
-2.156431746e-16
-1.773453135e-16
-1.457677255e-16
-1.200713064e-16
-9.751015319e-17
-7.771307678e-17
-6.123715304e-17
-4.81336082e-17
-3.803366986e-17
-2.914229581e-17
-2.191054435e-17
-1.658096483e-17
-1.211131106e-17
-8.752204798e-18
-6.29270673e-18
-4.326975177e-18
-2.889111026e-18
-1.930553946e-18
-1.316303751e-18
-9.408858433e-19
2.617006062e-18
1.478884431e-17
8.205260574e-17
2.567874561e-16
3.730045718e-16
)


101
(
-1.583475255e-17
1.549767642e-16
4.044718292e-15
2.330865755e-14
7.178575554e-14
1.537137287e-13
2.637363734e-13
3.902473824e-13
5.18254105e-13
6.348120652e-13
7.274650044e-13
7.863434941e-13
8.072643552e-13
7.872370611e-13
7.251196375e-13
6.244134625e-13
4.920539096e-13
3.318973771e-13
1.618617595e-13
-7.918130768e-15
-1.733004017e-13
-3.109189878e-13
-4.164651342e-13
-4.954001761e-13
-5.434531097e-13
-5.607746612e-13
-5.542867788e-13
-5.300642089e-13
-4.937946524e-13
-4.504454918e-13
-4.034624481e-13
-3.572187031e-13
-3.097694982e-13
-2.652977845e-13
-2.281094992e-13
-1.951801066e-13
-1.674493188e-13
-1.435605602e-13
-1.225087459e-13
-1.04337376e-13
-8.911629776e-14
-7.606313308e-14
-6.482719311e-14
-5.582282642e-14
-4.834566692e-14
-4.212557683e-14
-3.686022465e-14
-3.212400939e-14
-2.790457515e-14
-2.42127793e-14
-2.105682043e-14
-1.836649035e-14
-1.61404893e-14
-1.428593259e-14
-1.257434452e-14
-1.10112349e-14
-9.721491221e-15
-8.587954376e-15
-7.547006676e-15
-6.664437017e-15
-5.908979139e-15
-5.223763085e-15
-4.615202748e-15
-4.063075822e-15
-3.56752165e-15
-3.120000911e-15
-2.714602974e-15
-2.368226548e-15
-2.081933795e-15
-1.834662145e-15
-1.611979415e-15
-1.40913648e-15
-1.222244407e-15
-1.058910454e-15
-9.206354687e-16
-8.001792881e-16
-6.88243816e-16
-5.89049209e-16
-5.032952815e-16
-4.285237866e-16
-3.631865395e-16
-3.03615311e-16
-2.50182483e-16
-2.061941291e-16
-1.720021345e-16
-1.397984243e-16
-1.104045538e-16
-8.781706543e-17
-6.903110841e-17
-5.368121924e-17
-4.107619643e-17
-3.041990515e-17
-2.212049959e-17
-1.595054807e-17
-1.183408424e-17
-9.337117639e-18
2.777208189e-17
1.392755267e-16
6.130436941e-16
1.775906466e-15
2.540282264e-15
)


101
(
-1.607409182e-17
1.324125179e-16
3.771667298e-15
2.207511533e-14
6.868256338e-14
1.485213911e-13
2.57421194e-13
3.852493599e-13
5.184288058e-13
6.451418971e-13
7.53264217e-13
8.321985378e-13
8.769434207e-13
8.831586056e-13
8.474612961e-13
7.709084305e-13
6.580211428e-13
5.09518941e-13
3.421065547e-13
1.643527668e-13
-2.072239518e-14
-1.864384568e-13
-3.26046259e-13
-4.42569753e-13
-5.27985358e-13
-5.794331506e-13
-6.01851388e-13
-6.003209176e-13
-5.806312482e-13
-5.482787389e-13
-5.070343044e-13
-4.623213989e-13
-4.110936689e-13
-3.602534409e-13
-3.167522829e-13
-2.763806051e-13
-2.413253854e-13
-2.105619561e-13
-1.829404325e-13
-1.587335242e-13
-1.382094415e-13
-1.199723554e-13
-1.035410095e-13
-8.999219018e-14
-7.858591327e-14
-6.910020658e-14
-6.119586258e-14
-5.415084026e-14
-4.77630055e-14
-4.20256214e-14
-3.701605261e-14
-3.262593439e-14
-2.89703186e-14
-2.595894639e-14
-2.320483905e-14
-2.065685806e-14
-1.853117384e-14
-1.663709601e-14
-1.483302139e-14
-1.327400334e-14
-1.195554022e-14
-1.076868209e-14
-9.702690279e-15
-8.733328074e-15
-7.813324132e-15
-6.969379413e-15
-6.203652364e-15
-5.501055152e-15
-4.91703123e-15
-4.419467443e-15
-3.967575484e-15
-3.566785044e-15
-3.186197154e-15
-2.829795407e-15
-2.515105824e-15
-2.240953667e-15
-1.990492787e-15
-1.757649566e-15
-1.549683106e-15
-1.366821299e-15
-1.199024327e-15
-1.040015767e-15
-8.931135533e-16
-7.637545466e-16
-6.607818333e-16
-5.675405345e-16
-4.714970103e-16
-3.892221463e-16
-3.224781821e-16
-2.657721543e-16
-2.140116369e-16
-1.679516277e-16
-1.311064878e-16
-1.007943314e-16
-7.93465461e-17
-6.702221327e-17
2.136947038e-16
9.554731377e-16
3.380043108e-15
7.847405011e-15
1.035560187e-14
)


101
(
-1.618570729e-17
1.117304945e-16
3.513084138e-15
2.089505142e-14
6.56967307e-14
1.43509785e-13
2.513500291e-13
3.805606912e-13
5.190301742e-13
6.562007279e-13
7.80526536e-13
8.808652515e-13
9.515378404e-13
9.871105811e-13
9.821036609e-13
9.351460112e-13
8.482213412e-13
7.186049633e-13
5.613969734e-13
3.824060645e-13
1.826930413e-13
-8.139817792e-15
-1.819339472e-13
-3.393011438e-13
-4.680278636e-13
-5.616606778e-13
-6.222526994e-13
-6.530914194e-13
-6.596255468e-13
-6.475370681e-13
-6.20143352e-13
-5.835464386e-13
-5.327587748e-13
-4.783197638e-13
-4.306695355e-13
-3.837061835e-13
-3.412395681e-13
-3.027853641e-13
-2.672354686e-13
-2.357213572e-13
-2.091056705e-13
-1.848190275e-13
-1.618964436e-13
-1.423261e-13
-1.254119036e-13
-1.111244376e-13
-9.928644549e-14
-8.892247455e-14
-7.947232923e-14
-7.094325508e-14
-6.340677295e-14
-5.640546435e-14
-5.047181277e-14
-4.570869095e-14
-4.145510612e-14
-3.736986912e-14
-3.394048346e-14
-3.093785761e-14
-2.797137239e-14
-2.533804781e-14
-2.311149172e-14
-2.118505402e-14
-1.940030752e-14
-1.773535599e-14
-1.61632599e-14
-1.473153646e-14
-1.33608662e-14
-1.207080084e-14
-1.094387562e-14
-9.955206134e-15
-9.094034425e-15
-8.359972642e-15
-7.677566821e-15
-6.994066287e-15
-6.357396228e-15
-5.773838305e-15
-5.230568374e-15
-4.753147201e-15
-4.319898113e-15
-3.917017902e-15
-3.538626819e-15
-3.169138009e-15
-2.823174131e-15
-2.487716185e-15
-2.209236886e-15
-1.97981931e-15
-1.724091052e-15
-1.471693874e-15
-1.262417297e-15
-1.088146071e-15
-9.174386076e-16
-7.539661229e-16
-6.181499614e-16
-4.991439436e-16
-4.126225374e-16
-3.623873692e-16
1.21322585e-15
4.912958127e-15
1.44134586e-14
3.100230071e-14
4.023153287e-14
)


101
(
-1.618696436e-17
9.281416e-17
3.268300221e-15
1.976583123e-14
6.282128247e-14
1.386642893e-13
2.454944454e-13
3.761384754e-13
5.199972889e-13
6.678800588e-13
8.091277714e-13
9.322666205e-13
1.031066758e-12
1.09935075e-12
1.129756098e-12
1.118598176e-12
1.065266351e-12
9.632013961e-13
8.257534499e-13
6.543016966e-13
4.470363666e-13
2.365826332e-13
3.124403726e-14
-1.67671939e-13
-3.440795902e-13
-4.875725527e-13
-5.963324108e-13
-6.707681796e-13
-7.15100414e-13
-7.348257324e-13
-7.323069044e-13
-7.138548063e-13
-6.707490625e-13
-6.180383359e-13
-5.708057121e-13
-5.200201818e-13
-4.715067995e-13
-4.254236569e-13
-3.809882511e-13
-3.410385059e-13
-3.077203668e-13
-2.768636915e-13
-2.466230218e-13
-2.199372732e-13
-1.958259529e-13
-1.747867911e-13
-1.572951821e-13
-1.421440759e-13
-1.284465169e-13
-1.162500743e-13
-1.053140972e-13
-9.450966235e-14
-8.517685211e-14
-7.778574405e-14
-7.125314087e-14
-6.497956533e-14
-5.967736555e-14
-5.52029603e-14
-5.067095972e-14
-4.631916266e-14
-4.265093345e-14
-3.972374451e-14
-3.69211995e-14
-3.412139535e-14
-3.164789822e-14
-2.937867544e-14
-2.716348261e-14
-2.4973824e-14
-2.289565472e-14
-2.114802437e-14
-1.958327904e-14
-1.82751958e-14
-1.714001489e-14
-1.600514867e-14
-1.49166027e-14
-1.378763051e-14
-1.270261932e-14
-1.180003263e-14
-1.096147203e-14
-1.021988434e-14
-9.49983025e-15
-8.712763904e-15
-7.976370742e-15
-7.26199877e-15
-6.599876029e-15
-6.043002595e-15
-5.477018636e-15
-4.844468133e-15
-4.245963712e-15
-3.791547998e-15
-3.31308339e-15
-2.832570232e-15
-2.41851145e-15
-2.009527858e-15
-1.718086455e-15
-1.560475243e-15
5.242282665e-15
1.960979862e-14
4.947730377e-14
1.076273295e-13
1.435158486e-13
)


101
(
-1.609271688e-17
7.555849893e-17
3.036709799e-15
1.868515545e-14
6.005016755e-14
1.339719925e-13
2.398284731e-13
3.719431981e-13
5.212754335e-13
6.800868242e-13
8.389332971e-13
9.863030413e-13
1.115552263e-12
1.220145079e-12
1.291134349e-12
1.322673709e-12
1.311647844e-12
1.247287053e-12
1.140900652e-12
9.882585557e-13
7.837893996e-13
5.629199401e-13
3.321538031e-13
9.398292616e-14
-1.316945078e-13
-3.311766972e-13
-4.982677214e-13
-6.288048456e-13
-7.241862275e-13
-7.890025088e-13
-8.248149209e-13
-8.387117815e-13
-8.147109696e-13
-7.725945343e-13
-7.338231698e-13
-6.848344418e-13
-6.340301781e-13
-5.820054369e-13
-5.286605681e-13
-4.794975888e-13
-4.393711748e-13
-4.023303647e-13
-3.645820747e-13
-3.302209944e-13
-2.977033704e-13
-2.681647768e-13
-2.428463287e-13
-2.209162973e-13
-2.015723932e-13
-1.843669738e-13
-1.688546812e-13
-1.531364517e-13
-1.390204831e-13
-1.276122649e-13
-1.177625578e-13
-1.084500799e-13
-1.005340092e-13
-9.416708468e-14
-8.774130941e-14
-8.124823103e-14
-7.540130378e-14
-7.082519416e-14
-6.656035407e-14
-6.218560335e-14
-5.866589033e-14
-5.54479639e-14
-5.210904866e-14
-4.85926711e-14
-4.524476708e-14
-4.245171824e-14
-3.975433202e-14
-3.757135343e-14
-3.576017426e-14
-3.401809238e-14
-3.258288063e-14
-3.086663175e-14
-2.89283949e-14
-2.716697388e-14
-2.567312996e-14
-2.455903231e-14
-2.334319198e-14
-2.196544316e-14
-2.056874671e-14
-1.911685957e-14
-1.781378535e-14
-1.666336551e-14
-1.548361789e-14
-1.413754975e-14
-1.265711038e-14
-1.156157739e-14
-1.038358003e-14
-9.117319897e-15
-8.026664433e-15
-6.830977668e-15
-5.974517985e-15
-5.574626996e-15
1.827958182e-14
6.415443274e-14
1.430090421e-13
2.513419218e-13
3.029204937e-13
)


101
(
-1.591574569e-17
5.986758365e-17
2.817754519e-15
1.765097579e-14
5.737808206e-14
1.294213792e-13
2.343280553e-13
3.679378867e-13
5.228153782e-13
6.927387163e-13
8.69800079e-13
1.042850227e-12
1.205012418e-12
1.349762894e-12
1.466960819e-12
1.548750755e-12
1.589698887e-12
1.57468272e-12
1.512387593e-12
1.392808602e-12
1.205621115e-12
9.882105164e-13
7.426394147e-13
4.71436042e-13
1.991229806e-13
-5.952884356e-14
-2.942145012e-13
-4.935189839e-13
-6.540901922e-13
-7.791900953e-13
-8.694911734e-13
-9.334381531e-13
-9.442454881e-13
-9.261685625e-13
-9.082296455e-13
-8.705532655e-13
-8.250636402e-13
-7.71972795e-13
-7.113511437e-13
-6.535741124e-13
-6.077499064e-13
-5.651618529e-13
-5.206481024e-13
-4.799361851e-13
-4.390042737e-13
-3.993045677e-13
-3.636134984e-13
-3.329724143e-13
-3.064957434e-13
-2.822593294e-13
-2.605760167e-13
-2.390112662e-13
-2.186089555e-13
-2.01455065e-13
-1.874543914e-13
-1.73659121e-13
-1.615822408e-13
-1.530639183e-13
-1.44940409e-13
-1.358638083e-13
-1.269660629e-13
-1.199315243e-13
-1.134670291e-13
-1.076944483e-13
-1.028133505e-13
-9.827402082e-14
-9.443549636e-14
-8.968737162e-14
-8.484837749e-14
-8.049485199e-14
-7.626219649e-14
-7.302002778e-14
-7.026182809e-14
-6.789749018e-14
-6.647770712e-14
-6.496892997e-14
-6.208721539e-14
-5.890807786e-14
-5.65591452e-14
-5.476461305e-14
-5.315691418e-14
-5.153483384e-14
-4.92267426e-14
-4.649362252e-14
-4.416218896e-14
-4.204384066e-14
-3.983893482e-14
-3.732327752e-14
-3.415578726e-14
-3.156486412e-14
-2.896747568e-14
-2.596123516e-14
-2.330389696e-14
-2.027790481e-14
-1.792661534e-14
-1.69071267e-14
5.348737897e-14
1.784612413e-13
3.627308064e-13
6.181400969e-13
7.44030006e-13
)


101
(
-1.566672194e-17
4.561397298e-17
2.610910975e-15
1.6661465e-14
5.480029722e-14
1.250021111e-13
2.289708228e-13
3.640844086e-13
5.245676772e-13
7.057658051e-13
9.015902712e-13
1.101762533e-12
1.299431952e-12
1.488432879e-12
1.657928881e-12
1.798220647e-12
1.901846178e-12
1.949457825e-12
1.945823707e-12
1.87671213e-12
1.726190797e-12
1.531344369e-12
1.287105643e-12
9.940318224e-13
6.830459578e-13
3.675741199e-13