/*--------------------------------*- C++ -*----------------------------------*\
| =========                 |                                                 |
| \\      /  F ield         | OpenFOAM: The Open Source CFD Toolbox           |
|  \\    /   O peration     | Version:  2.3.1                                 |
|   \\  /    A nd           | Web:      www.OpenFOAM.org                      |
|    \\/     M anipulation  |                                                 |
\*---------------------------------------------------------------------------*/
FoamFile
{
    version     2.0;
    format      ascii;
    class       dictionary;
    location    "constant";
    object      GRPSI56;
}
// * * * * * * * * * * * * * * * * * * * * * * * * * * * * * * * * * * * * * //

GRPSI56_table
101
(

101
(
-2.370734111e-21
-7.129300344e-12
-1.474575276e-10
-1.189790341e-09
-6.234262125e-09
-2.465987009e-08
-7.959583899e-08
-2.314924715e-07
-5.983341818e-07
-1.408547683e-06
-3.025081913e-06
-6.000141201e-06
-1.090947186e-05
-1.886122941e-05
-3.029242857e-05
-4.581221249e-05
-6.604826933e-05
-9.15394052e-05
-0.0001190766591
-0.0001534390302
-0.0001873578645
-0.0002221508855
-0.0002597161671
-0.000295092173
-0.0003278898753
-0.000358041813
-0.0003849378512
-0.0004081071633
-0.0004275682832
-0.0004428209908
-0.0004539443208
-0.0004610469316
-0.0004651694931
-0.0004633433295
-0.000458774426
-0.0004507909076
-0.0004394782396
-0.000426439339
-0.000411355953
-0.0003910337656
-0.0003680914887
-0.0003463312421
-0.0003203751887
-0.0002929589025
-0.0002660816158
-0.0002360331632
-0.0002061749167
-0.0001737134602
-0.0001413700449
-0.000107096173
-7.335329279e-05
-3.875703672e-05
-3.74883551e-06
3.128571666e-05
6.604270604e-05
0.0001006838001
0.0001379032788
0.0001716280477
0.0002075592568
0.0002419131295
0.0002769010669
0.0003110190651
0.0003445146234
0.0003778951969
0.0004106122096
0.0004429525546
0.0004743900853
0.0005050813672
0.000535637725
0.0005648978712
0.0005935569572
0.0006214916526
0.0006493144043
0.0006756196422
0.0007006203472
0.0007241650753
0.0007477935375
0.0007702460279
0.0007912671527
0.0008110802708
0.0008297251231
0.0008479550431
0.0008646440212
0.0008804080046
0.0008949668192
0.0009082426405
0.0009203088644
0.0009313156811
0.000941265005
0.0009502474287
0.0009580755501
0.0009648374162
0.000970681607
0.000975686797
0.0009798298568
0.0009863496811
0.0009968706858
0.001039140855
0.001081765574
0.001127344254
0.001172922926
)


101
(
-2.370734106e-21
-6.515561139e-12
-1.392269631e-10
-1.134681229e-09
-5.967631544e-09
-2.361572756e-08
-7.616467089e-08
-2.215107327e-07
-5.729378144e-07
-1.350157751e-06
-2.903561785e-06
-5.767135209e-06
-1.050500121e-05
-1.818093714e-05
-2.926465957e-05
-4.434962403e-05
-6.405486242e-05
-8.892086808e-05
-0.000116114291
-0.0001496311227
-0.0001834352978
-0.0002180501547
-0.0002551726634
-0.0002907207405
-0.000323862547
-0.0003544209315
-0.0003818537509
-0.0004056893841
-0.0004258700612
-0.0004419740941
-0.0004540015706
-0.0004620424534
-0.0004669586085
-0.0004664856054
-0.000462817958
-0.0004557812504
-0.0004454493802
-0.0004330878761
-0.0004186883691
-0.00039978961
-0.0003779317621
-0.0003562889474
-0.0003314175734
-0.0003047499832
-0.0002780336984
-0.0002488758624
-0.0002193250341
-0.0001876935171
-0.0001556755197
-0.0001220940377
-8.853183243e-05
-5.429511605e-05
-1.958818712e-05
1.527472904e-05
4.999658812e-05
8.461286405e-05
0.0001210458226
0.0001554027311
0.0001909072328
0.000225496086
0.000260347952
0.0002946194946
0.0003283258237
0.0003617973252
0.000394723639
0.000427240475
0.0004590033221
0.0004900429115
0.0005207740266
0.0005504908165
0.0005795136915
0.000607793985
0.0006357498926
0.0006625495629
0.0006881873883
0.0007125172651
0.0007364875484
0.000759444515
0.0007811030701
0.000801565617
0.0008208643697
0.0008394895566
0.0008568174244
0.0008731437386
0.0008883277731
0.0009023022742
0.0009150095737
0.0009265745985
0.0009370539298
0.0009465582094
0.0009549223668
0.0009622824085
0.0009685831177
0.000974023853
0.0009786705766
0.0009856957199
0.0009968654292
0.001039135483
0.001081759691
0.001127338665
0.001172917581
)


101
(
-2.370734106e-21
-5.344475995e-12
-1.234130809e-10
-1.0287832e-09
-5.45592036e-09
-2.161331433e-08
-6.958363221e-08
-2.023386571e-07
-5.240643944e-07
-1.237561372e-06
-2.668697414e-06
-5.315803058e-06
-9.719223884e-06
-1.685791158e-05
-2.725707908e-05
-4.148452462e-05
-6.014115464e-05
-8.376887729e-05
-0.0001102140061
-0.0001421309076
-0.0001755466267
-0.000209795839
-0.0002460930334
-0.0002818268575
-0.0003155815175
-0.0003469211743
-0.0003753822544
-0.0004005018738
-0.0004220956307
-0.00043985311
-0.0004536598571
-0.0004635580342
-0.0004701116354
-0.0004721447945
-0.0004704164813
-0.0004652854692
-0.0004569037824
-0.0004460144651
-0.0004330061451
-0.0004166316657
-0.0003970002784
-0.0003760610171
-0.0003530573419
-0.0003279564077
-0.0003018724077
-0.0002742417853
-0.0002455117118
-0.0002153455997
-0.0001841656757
-0.0001518415799
-0.0001188641981
-8.534045085e-05
-5.12743477e-05
-1.684462463e-05
1.769447816e-05
5.220883292e-05
8.747808721e-05
0.0001224634343
0.0001574641794
0.0001922888452
0.0002269900951
0.0002614500872
0.0002954892536
0.000329172475
0.000362460283
0.0003953288321
0.000427654462
0.0004593382294
0.0004905012405
0.0005209983698
0.0005507591015
0.0005797703277
0.0006081728138
0.0006358282467
0.0006625668077
0.0006882618504
0.0007131044271
0.0007370887087
0.0007599869922
0.0007817292236
0.0008023143462
0.0008218990531
0.0008404460474
0.0008579289844
0.0008743352281
0.0008896455643
0.0009037123217
0.0009164998871
0.0009280946761
0.0009386930378
0.0009481574454
0.0009566865827
0.0009640741801
0.0009704710884
0.0009761736752
0.0009843352177
0.0009968587747
0.001039127442
0.001081749863
0.001127329045
0.001172907873
)


101
(
-2.370734106e-21
-4.282558116e-12
-1.088493935e-10
-9.312041174e-10
-4.985666949e-09
-1.977628463e-08
-6.354556552e-08
-1.846985116e-07
-4.789174892e-07
-1.133111485e-06
-2.449810508e-06
-4.893259694e-06
-8.979115523e-06
-1.560889701e-05
-2.534524244e-05
-3.873968278e-05
-5.637423349e-05
-7.878849317e-05
-0.0001043779865
-0.0001348475229
-0.0001676077096
-0.0002014431168
-0.0002370144448
-0.0002726715024
-0.0003068727373
-0.0003389143392
-0.0003683139588
-0.0003946212516
-0.0004175689505
-0.0004368882666
-0.0004524111013
-0.0004641236411
-0.0004723873026
-0.000476612812
-0.0004769853942
-0.0004738405994
-0.0004673898484
-0.0004581623577
-0.0004466287233
-0.000432288369
-0.000414870047
-0.0003953402863
-0.0003738894173
-0.0003504103924
-0.0003254376894
-0.0002990569639
-0.0002714085413
-0.0002424702313
-0.0002123624346
-0.0001811531462
-0.0001490585698
-0.000116294504
-8.293912329e-05
-4.909486041e-05
-1.494366614e-05
1.933948349e-05
5.398928005e-05
8.881250069e-05
0.0001236413518
0.0001584204911
0.0001930883387
0.0002275934943
0.0002618182191
0.0002957162275
0.0003292754665
0.0003624679056
0.0003952248698
0.0004274499043
0.0004591321856
0.000490240569
0.0005207081055
0.0005504746939
0.0005795613355
0.0006079594519
0.0006355838202
0.0006623406818
0.0006882218821
0.0007132558059
0.0007373333194
0.000760341615
0.0007822055433
0.0008029722295
0.0008227072325
0.0008413980519
0.0008590272084
0.0008756034045
0.0008910518855
0.000905255034
0.0009181193842
0.0009299118294
0.0009405621807
0.0009502834107
0.000958965831
0.0009665060226
0.0009733566977
0.0009828721689
0.0009968553968
0.001039122251
0.001081742368
0.001127313612
0.001172884389
)


101
(
-2.370734327e-21
-3.322811034e-12
-9.545040551e-11
-8.413232616e-10
-4.553691701e-09
-1.809227723e-08
-5.801214916e-08
-1.684905771e-07
-4.372762919e-07
-1.036372299e-06
-2.246155757e-06
-4.498356203e-06
-8.283337294e-06
-1.443168851e-05
-2.352863173e-05
-3.611527507e-05
-5.27552026e-05
-7.398258559e-05
-9.863464931e-05
-0.0001277587171
-0.0001596822913
-0.0001930129502
-0.0002279159648
-0.0002633225817
-0.0002977894087
-0.0003304240287
-0.0003606693731
-0.0003880687259
-0.0004122990373
-0.0004330975549
-0.000450267018
-0.0004637426209
-0.0004737433266
-0.0004799797917
-0.0004824520989
-0.0004813625382
-0.0004768857541
-0.0004694484224
-0.0004595041897
-0.000446972451
-0.0004316121607
-0.0004138171382
-0.0003939616415
-0.0003720975116
-0.0003484914521
-0.0003233819392
-0.00029691033
-0.0002691609508
-0.0002401931537
-0.000210095643
-0.0001789961472
-0.0001470914844
-0.0001145119001
-8.135552811e-05
-4.775114447e-05
-1.385688371e-05
2.032391774e-05
5.478853693e-05
8.93750289e-05
0.0001240146435
0.0001586162301
0.0001931200333
0.0002274394106
0.0002614985268
0.0002952684184
0.000328727109
0.0003618346298
0.0003945126428
0.0004267024329
0.0004583678706
0.0004894692708
0.0005199462802
0.0005497727888
0.0005789439903
0.0006074133929
0.000635110169
0.0006619799612
0.0006880462219
0.0007132514451
0.0007375066171
0.000760680901
0.0007827185636
0.0008036998532
0.0008236398869
0.0008425404973
0.0008604063725
0.0008771919553
0.0008928541205
0.0009071857176
0.0009202992495
0.0009322426149
0.0009432588047
0.0009532788732
0.0009621790538
0.0009702999662
0.000981298272
0.0009968432971
0.001039106862
0.00108172048
0.001127254737
0.001172786934
)


101
(
-2.370734111e-21
-2.45867509e-12
-8.313655307e-11
-7.585628061e-10
-4.157017705e-09
-1.654962785e-08
-5.294688198e-08
-1.536190556e-07
-3.989264486e-07
-9.469166154e-07
-2.056990608e-06
-4.129928578e-06
-7.630471697e-06
-1.332403122e-05
-2.180627177e-05
-3.361113485e-05
-4.928481033e-05
-6.935354648e-05
-9.300777471e-05
-0.0001208525016
-0.0001518167066
-0.0001845354371
-0.0002187880836
-0.0002538255635
-0.000288386097
-0.0003214832739
-0.0003524714996
-0.0003808651415
-0.0004062973235
-0.000428493964
-0.0004472366581
-0.0004624184042
-0.0004741537979
-0.000482290755
-0.0004868016966
-0.0004877667477
-0.0004853277129
-0.0004797846398
-0.0004715440965
-0.0004607543937
-0.0004473117298
-0.0004313544093
-0.000413194845
-0.0003929785811
-0.0003708803146
-0.0003471415169
-0.0003219322179
-0.0002953997358
-0.0002676127501
-0.0002386586336
-0.0002086231746
-0.0001776660176
-0.000145932832
-0.0001135370423
-8.058953351e-05
-4.722291243e-05
-1.352844726e-05
2.050553427e-05
5.475538122e-05
8.916124571e-05
0.000123623622
0.0001580716071
0.0001924230423
0.0002265915292
0.0002605245555
0.0002941941404
0.0003275827107
0.0003606371797
0.0003932878097
0.0004254795742
0.0004571657048
0.0004882986466
0.000518841004
0.0005487839575
0.0005780917149
0.0006067000889
0.0006345290983
0.0006615977899
0.0006878795107
0.0007133218062
0.0007378029427
0.0007611794632
0.0007834761517
0.0008047206618
0.0008249348877
0.0008441398851
0.000862298689
0.000879394681
0.0008952920135
0.0009098855466
0.0009232402832
0.0009356570541
0.0009470762099
0.000957493435
0.0009670279807
0.0009795900315
0.0009968080149
0.001039035108
0.001081607359
0.001127068934
0.001172529153
)


101
(
-2.370734106e-21
-1.683975058e-12
-7.183393742e-11
-6.823863813e-10
-3.792867432e-09
-1.513737559e-08
-4.831521201e-08
-1.399924729e-07
-3.636609818e-07
-8.643271328e-07
-1.881577736e-06
-3.786805235e-06
-7.019027588e-06
-1.228361029e-05
-2.017680152e-05
-3.122669107e-05
-4.596339629e-05
-6.490319101e-05
-8.751744471e-05
-0.000114124355
-0.0001440454841
-0.0001760447957
-0.0002096322938
-0.000244213281
-0.0002787140662
-0.0003121322243
-0.0003437480349
-0.0003730328308
-0.0003995783885
-0.0004230897344
-0.0004433281737
-0.0004601534453
-0.0004736006969
-0.0004835649067
-0.0004900427419
-0.0004930441438
-0.0004926578414
-0.0004890878972
-0.0004826629179
-0.000473628625
-0.0004620225354
-0.000447910065
-0.0004315141121
-0.0004129976097
-0.0003925032096
-0.0003702419467
-0.0003463889647
-0.0003211296866
-0.0002945660011
-0.0002667968696
-0.0002378873667
-0.0002079586053
-0.0001771480055
-0.0001455806148
-0.0001133673375
-8.062731094e-05
-4.748557694e-05
-1.394763951e-05
1.98837287e-05
5.396401833e-05
8.819957421e-05
0.0001225193348
0.0001568387891
0.0001910631723
0.000225119034
0.0002589573466
0.0002925680372
0.000325923248
0.0003589685851
0.0003916442605
0.0004238799756
0.0004556289493
0.0004868485139
0.0005175320829
0.000547652543
0.0005771554363
0.0006059408234
0.0006340027943
0.0006613271434
0.0006879006508
0.0007136352802
0.0007383739844
0.0007620520296
0.0007846730987
0.0008062611875
0.0008268537459
0.0008464220546
0.0008649886532
0.0008824431026
0.0008986662504
0.0009135430638
0.0009274750681
0.0009404039695
0.0009524223241
0.0009635042991
0.0009777161268
0.0009967213241
0.001038861393
0.001081338737
0.001126653295
0.001171966087
)


101
(
-2.370734106e-21
-9.929097508e-13
-6.147393002e-11
-6.122963375e-10
-3.458650641e-09
-1.38452244e-08
-4.408445413e-08
-1.275236624e-07
-3.312805111e-07
-7.881972664e-07
-1.719188441e-06
-3.467808199e-06
-6.4474679e-06
-1.13080732e-05
-1.863857223e-05
-2.896108285e-05
-4.279093834e-05
-6.063294158e-05
-8.2180347e-05
-0.00010757551
-0.0001363958091
-0.0001675754488
-0.0002004595558
-0.0002345121999
-0.0002688195177
-0.0003024149206
-0.0003345323506
-0.0003645974847
-0.0003921603729
-0.0004168987601
-0.0004385521768
-0.0004569517966
-0.0004720724799
-0.000483807457
-0.000492182208
-0.0004971762461
-0.000498833578
-0.0004972822881
-0.0004927656477
-0.0004855431284
-0.0004757510408
-0.0004634700054
-0.0004488679163
-0.0004320940447
-0.0004132745198
-0.000392586578
-0.0003701886879
-0.0003462785041
-0.0003209904311
-0.0002944480851
-0.0002667190994
-0.0002378978716
-0.0002080939198
-0.0001774281708
-0.0001460198074
-0.0001139855935
-8.146131455e-05
-4.84789719e-05
-1.513725096e-05
1.853176924e-05
5.244916373e-05
8.655341986e-05
0.0001207646235
0.0001549828955
0.0001891170511
0.0002230903368
0.0002568769004
0.000290467009
0.0003238332038
0.0003569325384
0.0003896806565
0.0004220144857
0.0004538768733
0.0004852611476
0.0005161539774
0.0005465158415
0.0005762455939
0.0006053019959
0.0006336632785
0.0006613402419
0.0006882803241
0.0007143479901
0.0007394330623
0.0007634846086
0.0007865118074
0.0008085599679
0.000829576626
0.0008496596221
0.0008686785173
0.0008866086534
0.0009031202294
0.0009186661405
0.0009332273161
0.000946911403
0.0009596810328
0.0009756511832
0.0009965115254
0.0010385165
0.001080843463
0.001125899643
0.001170935024
)


101
(
-2.370734548e-21
-3.800245695e-13
-5.199280778e-11
-5.478323894e-10
-3.151957583e-09
-1.266350752e-08
-4.022361852e-08
-1.161293324e-07
-3.015930452e-07
-7.181315513e-07
-1.569105055e-06
-3.171759924e-06
-5.914211264e-06
-1.039501023e-05
-1.718959733e-05
-2.681306922e-05
-3.976696574e-05
-5.654368212e-05
-7.701012898e-05
-0.0001012103323
-0.0001288900139
-0.0001591609949
-0.000191287786
-0.0002247460671
-0.0002587438536
-0.0002923771848
-0.0003248636209
-0.0003555901974
-0.0003840660965
-0.0004099378548
-0.0004329205566
-0.0004528192811
-0.0004695622275
-0.0004830165006
-0.0004932243223
-0.0005001547388
-0.0005038245631
-0.0005043067172
-0.0005017641254
-0.0004964228333
-0.0004884654818
-0.0004780125378
-0.0004652168797
-0.0004502138894
-0.0004331182433
-0.0004140798227
-0.000393230825
-0.0003707591435
-0.0003468142463
-0.0003215448405
-0.0002950404148
-0.0002673928409
-0.0002386835148
-0.0002090086595
-0.0001784853838
-0.0001472330414
-0.0001153929613
-8.301705974e-05
-5.021999582e-05
-1.703290078e-05
1.648160883e-05
5.027567333e-05
8.428376601e-05
0.0001184158679
0.0001525717657
0.0001866489309
0.0002205845202
0.0002543660492
0.0002879845399
0.0003214307625
0.0003546339963
0.0003875133545
0.0004199936963
0.0004520494438
0.0004836731501
0.0005148453094
0.0005454882718
0.0005755361994
0.0006049360297
0.0006337016512
0.0006618219211
0.0006891819699
0.0007156636232
0.0007411600776
0.0007656688836
0.00078923711
0.0008117694673
0.0008334052617
0.0008540417082
0.0008736874759
0.0008919578646
0.0009091952811
0.0009254941912
0.0009409163435
0.0009555015618
0.0009733303357
0.0009960912526
0.001037892618
0.001079997106
0.001124713435
0.001169349354
)


101
(
-2.370734548e-21
1.598233755e-13
-4.333146865e-11
-4.885695906e-10
-2.870553965e-09
-1.158317846e-08
-3.670336777e-08
-1.057298006e-07
-2.744141442e-07
-6.537472331e-07
-1.430622228e-06
-2.897483989e-06
-5.417633751e-06
-9.541973472e-06
-1.582760958e-05
-2.478100325e-05
-3.689054653e-05
-5.263566339e-05
-7.201796731e-05
-9.503525888e-05
-0.0001215471224
-0.0001508330226
-0.0001821398228
-0.0002149388592
-0.0002485248979
-0.0002820646677
-0.0003147846221
-0.0003460465144
-0.0003753230019
-0.0004022275217
-0.0004264480168
-0.0004477641304
-0.0004660665656
-0.0004811867402
-0.0004931690695
-0.0005019769711
-0.0005076135207
-0.0005101165528
-0.0005095825565
-0.0005061841247
-0.0005001056614
-0.0004914973561
-0.0004805214291
-0.0004673097558
-0.0004519722401
-0.0004346405004
-0.0004154202926
-0.0003944740056
-0.0003719500723
-0.0003480147862
-0.0003227812132
-0.0002963540781
-0.0002688084191
-0.0002402179803
-0.0002106708462
-0.0001802856828
-0.0001492073332
-0.0001175006568
-8.529902638e-05
-5.264670439e-05
-1.96016454e-05
1.380008778e-05
4.750634585e-05
8.145305634e-05
0.0001155502862
0.000149685522
0.0001837493616
0.0002176982528
0.0002515203577
0.0002852375099
0.0003188187999
0.0003521896064
0.0003852549389
0.0004179600818
0.0004502848371
0.0004822275373
0.0005137349189
0.000544748165
0.000575190478
0.000605038972
0.000634310478
0.0006629378607
0.0006908008722
0.0007177486627
0.0007437469098
0.0007688770127
0.0007930049702
0.0008162183558
0.0008385258373
0.0008599065346
0.0008800327593
0.0008990386869
0.0009171427164
0.0009344032273
0.0009508986728
0.000970653048
0.000995404165
0.001036897616
0.00107868611
0.001123035709
0.001167395955
)


101
(
-2.370604308e-21
6.314862865e-13
-3.543505784e-11
-4.341154474e-10
-2.612370285e-09
-1.059579853e-08
-3.349609045e-08
-9.624936126e-08
-2.495672843e-07
-5.946754379e-07
-1.303050799e-06
-2.643815288e-06
-4.956080601e-06
-8.746497975e-06
-1.455014177e-05
-2.286288957e-05
-3.416032677e-05
-4.890865089e-05
-6.721247295e-05
-8.905801526e-05
-0.0001143841841
-0.0001426207173
-0.0001730417084
-0.0002051155226
-0.0002381973083
-0.0002715214641
-0.0003043403455
-0.0003360061169
-0.000365963105
-0.0003937926254
-0.0004191534152
-0.0004417991267
-0.0004615887824
-0.0004783153858
-0.0004920155664
-0.0005026431621
-0.0005101927001
-0.0005146826774
-0.0005161621178
-0.0005147478846
-0.0005105984239
-0.0005038709972
-0.0004947361288
-0.0004833357471
-0.0004697814801
-0.0004541957283
-0.0004366673634
-0.0004173278848
-0.0003963073053
-0.0003737781733
-0.0003498704241
-0.0003247076423
-0.0002983743563
-0.000270937118
-0.0002424591146
-0.0002130403096
-0.0001828125306
-0.0001518509663
-0.0001203017897
-8.823348406e-05
-5.571179227e-05
-2.276802416e-05
1.055488787e-05
4.421572866e-05
7.814838923e-05
0.0001122565392
0.0001464108069
0.000180510452
0.000214516666
0.0002484574714
0.0002823397446
0.0003161273346
0.0003497239734
0.0003830509332
0.000416059979
0.0004487458799
0.0004810674323
0.0005129935688
0.0005444666729
0.0005754077241
0.0006058061759
0.000635667656
0.0006648962569
0.0006933080258
0.0007208023202
0.0007474916486
0.0007732787026
0.0007981198497
0.0008221029198
0.0008452753926
0.0008672993439
0.0008881628455
0.0009081337792
0.0009273304189
0.0009458072848
0.0009675406862
0.0009943432653
0.001035477111
0.001076891882
0.001120819048
0.001164772678
)


101
(
-2.370149554e-21
1.03954641e-12
-2.82527225e-11
-3.841082928e-10
-2.375493221e-09
-9.693513006e-09
-3.057587786e-08
-8.761642435e-08
-2.268841333e-07
-5.405611243e-07
-1.185720465e-06
-2.409607903e-06
-4.527884757e-06
-8.006081689e-06
-1.335452911e-05
-2.105642011e-05
-3.157457519e-05
-4.536180704e-05
-6.260042431e-05
-8.328626164e-05
-0.0001074165891
-0.0001345519358
-0.0001640219011
-0.0001953031396
-0.0002277943007
-0.00026078981
-0.0002935769517
-0.0003255125194
-0.000356023249
-0.0003846626547
-0.0004110599029
-0.0004349412683
-0.0004561375653
-0.0004744036521
-0.0004897624014
-0.0005021526699
-0.0005115591784
-0.0005179892227
-0.0005214623263
-0.0005220497747
-0.0005198704745
-0.0005150670291
-0.000507804685
-0.0004982392268
-0.0004864901036
-0.0004726773006
-0.0004568846815
-0.0004392208277
-0.0004197890893
-0.0003987468313
-0.0003762308632
-0.0003523828167
-0.0003273062888
-0.0003010737045
-0.0002737403403
-0.0002453784335
-0.0002160985341
-0.0001859694282
-0.0001551447974
-0.000123714214
-9.176436414e-05
-5.933221892e-05
-2.64571606e-05
6.83110979e-06
4.049339557e-05
7.446055335e-05
0.0001086253831
0.0001428453648
0.0001770292379
0.00021117417
0.0002453024544
0.0002794254708
0.0003134856882
0.000347392797
0.0003810672941
0.0004144744757
0.0004475809892
0.0004803712911
0.0005128205716
0.0005448480825
0.0005763812252
0.000607438118
0.0006379991342
0.0006678848725
0.0006969078392
0.000725128051
0.0007525893319
0.0007791389716
0.0008048089581
0.0008298007811
0.0008537524434
0.0008765508727
0.0008984505296
0.0009196582409
0.0009401856766
0.0009639534395
0.0009928188135
0.00103355612
0.001074569258
0.001118086878
0.001161601646
)


101
(
-2.369824168e-21
1.388339677e-12
-2.173724339e-11
-3.382147237e-10
-2.158155506e-09
-8.86901662e-09
-2.791837566e-08
-7.976302786e-08
-2.06204476e-07
-4.910635412e-07
-1.077978285e-06
-2.193729091e-06
-4.131369356e-06
-7.318181846e-06
-1.223788907e-05
-1.935894841e-05
-2.913110593e-05
-4.199366099e-05
-5.818666052e-05
-7.772731517e-05
-0.0001006581697
-0.0001266515956
-0.0001551094524
-0.0001855307158
-0.0002173488879
-0.0002499101016
-0.0002825405567
-0.0003146120301
-0.0003455448365
-0.0003748717454
-0.0004021944451
-0.0004272112854
-0.0004497260209
-0.0004694561507
-0.0004864081247
-0.0005005021326
-0.0005117092603
-0.0005200269269
-0.0005254568516
-0.0005280387761
-0.0005278522446
-0.0005250116268
-0.0005196608923
-0.0005119591824
-0.0005020386897
-0.0004900222044
-0.0004759958947
-0.000460057245
-0.0004422866922
-0.0004228145623
-0.0004017696405
-0.0003793
-0.0003555287376
-0.0003305464616
-0.0003044121535
-0.0002771777375
-0.0002489383634
-0.0002197407893
-0.0001897301756
-0.0001590051792
-0.0001276807685
-9.580499388e-05
-6.342614827e-05
-3.057522844e-05
2.724641068e-06
3.644095854e-05
7.050177178e-05
0.0001047696593
0.0001391075246
0.0001734504464
0.0002078037876
0.0002422025634
0.0002766439921
0.0003110636704
0.0003453695705
0.0003794897979
0.0004133697981
0.0004469921135
0.0004803621459
0.0005134368285
0.0005461136721
0.000578349593
0.0006101936529
0.0006415348
0.000672122624
0.0007018847854
0.0007309855465
0.0007592994029
0.0007867309489
0.0008135123658
0.0008394290857
0.0008642287605
0.0008881216645
0.0009113826809
0.0009340256127
0.0009598869517
0.000990823431
0.001031139484
0.0010717538
0.001114990376
0.001158265389
)


101
(
-2.369825056e-21
1.681978761e-12
-1.584471854e-11
-2.961282902e-10
-1.958732015e-09
-8.115556849e-09
-2.550088795e-08
-7.262513727e-08
-1.873759763e-07
-4.458572008e-07
-9.79194438e-07
-1.995073832e-06
-3.76486009e-06
-6.68025857e-06
-1.119721876e-05
-1.776754818e-05
-2.682732689e-05
-3.880234057e-05
-5.397419684e-05
-7.238762712e-05
-9.412153246e-05
-0.0001189427035
-0.0001463336667
-0.0001758290097
-0.0002068952739
-0.0002389232193
-0.0002712783171
-0.000303353877
-0.0003345739259
-0.0003644594077
-0.0003925891149
-0.0004186340281
-0.0004423710427
-0.0004634815373
-0.000481953744
-0.0004976876525
-0.0005106376302
-0.0005207888247
-0.0005281290255
-0.0005326772699
-0.0005344844021
-0.0005336326182
-0.0005302319829
-0.0005244288699
-0.000516364438
-0.0005061689981
-0.0004939337626
-0.000479753617
-0.0004636979881
-0.0004458681971
-0.0004263735916
-0.0004053591168
-0.0003829560203
-0.0003592706802
-0.0003343822115
-0.0003083367807
-0.0002812127875
-0.0002530390352
-0.0002239363772
-0.0001940026806
-0.0001633686153
-0.0001321012979
-0.0001002591772
-6.788955102e-05
-3.501726714e-05
-1.642499708e-06
3.219684678e-05
6.64055383e-05
0.0001008309138
0.0001353543951
0.0001699286728
0.0002045776404
0.0002393305135
0.0002741773131
0.000309053041
0.0003438690905
0.0003785215213
0.000412967672
0.0004472239207
0.0004812931404
0.0005151001925
0.0005485328358
0.0005816228665
0.0006143612494
0.0006465291024
0.0006778908476
0.000708593781
0.0007386684456
0.0007679406974
0.0007965150828
0.0008244040257
0.0008512617683
0.0008772167818
0.0009025706667
0.000927382221
0.0009553786063
0.0009884151881
0.001028399048
0.001068709943
0.001111784113
0.001154766941
)


101
(
-2.369825934e-21
1.924368159e-12
-1.053429701e-11
-2.575673233e-10
-1.775727776e-09
-7.426887517e-09
-2.330230734e-08
-6.614256284e-08
-1.702534505e-07
-4.046302357e-07
-8.887649703e-07
-1.812562088e-06
-3.426691601e-06
-6.089776333e-06
-1.022941803e-05
-1.627901048e-05
-2.466026814e-05
-3.5785301e-05
-4.996470293e-05
-6.727219038e-05
-8.781746705e-05
-0.000111446081
-0.0001377228921
-0.0001662294822
-0.0001964682237
-0.0002278697262
-0.000259837038
-0.0002917885744
-0.0003231600719
-0.0003534699512
-0.0003822811062
-0.0004092396095
-0.0004340950306
-0.0004564938565
-0.0004764052734
-0.00049370813
-0.0005083389819
-0.0005202675922
-0.0005294665055
-0.0005359395079
-0.0005397200272
-0.000540863784
-0.0005394415454
-0.0005355742997
-0.0005293983167
-0.0005210506222
-0.0005106317572
-0.0004982358707
-0.0004839316059
-0.000467801296
-0.0004499316731
-0.0004304489043
-0.0004094849416
-0.0003871559877
-0.0003635590221
-0.0003387564237
-0.0003128103884
-0.0002857377702
-0.0002576334884
-0.0002285810403
-0.0001987104315
-0.0001681156823
-0.0001368621804
-0.0001050129242
-7.260304108e-05
-3.963252191e-05
-6.109680965e-06
2.792068972e-05
6.232982173e-05
9.698415902e-05
0.0001317693359
0.0001666661752
0.0002016989076
0.0002368963242
0.0002722529064
0.0003077098994
0.0003431341618
0.0003784200723
0.0004135457372
0.0004485659571
0.0004834650306
0.0005181121503
0.0005524572529
0.0005865360175
0.0006202445801
0.000653267555
0.0006855909978
0.0007173943924
0.000748550181
0.0007789794909
0.0008088434794
0.0008378006657
0.000865846953
0.000893348258
0.0009203737709
0.0009505441847
0.000985710725
0.001025475454
0.001065619381
0.001108690629
0.001151931731
)


101
(
-2.369824168e-21
2.11921949e-12
-5.767960814e-12
-2.22273039e-10
-1.607772325e-09
-6.797252772e-09
-2.130303225e-08
-6.025882169e-08
-1.546993359e-07
-3.670851223e-07
-8.061114658e-07
-1.645142999e-06
-3.115215409e-06
-5.544207256e-06
-9.331274744e-06
-1.488988215e-05
-2.262657246e-05
-3.293947437e-05
-4.615828295e-05
-6.238475329e-05
-8.175510326e-05
-0.0001041799511
-0.0001293040903
-0.0001567637346
-0.0001861026897
-0.0002167897344
-0.0002482631372
-0.0002799680022
-0.0003113564941
-0.0003419529029
-0.0003713128078
-0.0003990627791
-0.0004249262116
-0.0004485136917
-0.0004697749481
-0.0004885674684
-0.0005048102501
-0.0005184561011
-0.0005294590195
-0.0005378075746
-0.0005435245785
-0.0005466497708
-0.0005472177567
-0.0005453169935
-0.0005410641063
-0.0005345933158
-0.0005260174255
-0.0005154322586
-0.0005029059183
-0.0004885157829
-0.0004723328802
-0.0004544559813
-0.0004350029474
-0.0004140970654
-0.0003918442131
-0.0003683264412
-0.0003436139749
-0.0003177113493
-0.0002906877736
-0.0002626043026
-0.0002335813471
-0.0002037283727
-0.000173125606
-0.0001418425085
-0.0001099250328
-7.739703869e-05
-4.425135046e-05
-1.049743965e-05
2.378812282e-05
5.848483935e-05
9.34417309e-05
0.0001285857493
0.0001638999585
0.0001994127251
0.0002351663844
0.0002711744798
0.0003073351468
0.0003434702041
0.0003794914543
0.0004154397661
0.0004513706437
0.0004872175331
0.0005228565319
0.0005582631766
0.0005934555255
0.0006281596566
0.0006621693658
0.0006956812224
0.000728734025
0.000761094365
0.0007929270676
0.0008240422263
0.0008541913926
0.0008838850125
0.0009131735967
0.0009455495093
0.0009828239659
0.001022514762
0.0010626531
0.001105845906
0.001149372799
)


101
(
-2.369824168e-21
2.270092065e-12
-1.512416881e-12
-1.900083666e-10
-1.453616588e-09
-6.221392166e-09
-1.948499491e-08
-5.492133091e-08
-1.405835328e-07
-3.329387029e-07
-7.306820668e-07
-1.491810785e-06
-2.828818803e-06
-5.041054282e-06
-8.499513492e-06
-1.359657344e-05
-2.07225866e-05
-3.026149173e-05
-4.255409455e-05
-5.772785667e-05
-7.594204324e-05
-9.716099463e-05
-0.0001211030994
-0.0001474640924
-0.0001758346751
-0.0002057237153
-0.0002366031759
-0.0002679448377
-0.0002992195454
-0.0003299634201
-0.0003597335782
-0.000388144595
-0.0004148978085
-0.0004395680313
-0.0004620823061
-0.0004822771473
-0.0005000546505
-0.0005153506395
-0.0005280987168
-0.0005382691345
-0.0005458755077
-0.0005509496999
-0.000553499589
-0.0005535814984
-0.000551282807
-0.0005467203815
-0.0005400135446
-0.000531264574
-0.0005205429469
-0.0005079235498
-0.0004934702839
-0.0004772612094
-0.0004593910169
-0.0004399764209
-0.0004191283693
-0.0003969431521
-0.0003735076001
-0.0003488291871
-0.0003229591919
-0.0002959314517
-0.0002678461043
-0.0002388091534
-0.0002089224128
-0.0001782575479
-0.0001468742919
-0.0001148159058
-8.20816505e-05
-4.866649435e-05
-1.459764427e-05
2.003771968e-05
5.509509449e-05
9.046580547e-05
0.0001260739976
0.0001619131858
0.0001980258532
0.0002344902737
0.0002712936052
0.0003082611654
0.0003452165068
0.0003821110469
0.0004190342883
0.0004560337666
0.0004929795081
0.0005297456266
0.0005663875903
0.0006027539993
0.0006385215611
0.0006737584085
0.0007086949286
0.0007430472572
0.0007768511556
0.0008101651958
0.0008424757128
0.0008743806245
0.0009059832649
0.0009405755002
0.0009799508483
0.001019720124
0.001060008264
0.001103343851
0.001146928731
)


101
(
-2.369825934e-21
2.380383764e-12
2.267573472e-12
-1.605555599e-10
-1.312117057e-09
-5.694473701e-09
-1.783149233e-08
-5.00810888e-08
-1.277822095e-07
-3.019174876e-07
-6.619481111e-07
-1.35159906e-06
-2.56592763e-06
-4.577836529e-06
-7.730757128e-06
-1.239518502e-05
-1.894426508e-05
-2.774736384e-05
-3.915025017e-05
-5.330276908e-05
-7.038401596e-05
-9.040280569e-05
-0.000113143239
-0.0001383617129
-0.0001657003592
-0.000194711728
-0.0002249027364
-0.0002557711551
-0.0002868067953
-0.0003175604287
-0.0003475984993
-0.0003765328873
-0.000404048893
-0.0004296885549
-0.0004533525095
-0.0004748542765
-0.0004940798064
-0.0005109499293
-0.0005253782908
-0.0005373133274
-0.0005467562901
-0.0005537345546
-0.0005582385797
-0.0005603004473
-0.0005599754466
-0.0005573507561