/*--------------------------------*- C++ -*----------------------------------*\
| =========                 |                                                 |
| \\      /  F ield         | OpenFOAM: The Open Source CFD Toolbox           |
|  \\    /   O peration     | Version:  2.3.1                                 |
|   \\  /    A nd           | Web:      www.OpenFOAM.org                      |
|    \\/     M anipulation  |                                                 |
\*---------------------------------------------------------------------------*/
FoamFile
{
    version     2.0;
    format      ascii;
    class       dictionary;
    location    "constant";
    object      GRPSI46;
}
// * * * * * * * * * * * * * * * * * * * * * * * * * * * * * * * * * * * * * //

GRPSI46_table
101
(

101
(
-8.269221359e-15
-1.318332495e-09
-9.835949215e-09
-3.702234675e-08
-9.51788609e-08
-1.958534478e-07
-3.528304534e-07
-6.003593948e-07
-9.611769227e-07
-1.481287577e-06
-2.204004804e-06
-3.18148183e-06
-4.427419003e-06
-6.030213056e-06
-7.906575758e-06
-1.002569798e-05
-1.234324377e-05
-1.476411208e-05
-1.696078863e-05
-1.912434765e-05
-2.076366394e-05
-2.193236044e-05
-2.253801979e-05
-2.249369428e-05
-2.185057949e-05
-2.067330034e-05
-1.90661065e-05
-1.715865706e-05
-1.50145012e-05
-1.281893547e-05
-1.062943067e-05
-8.552469699e-06
-6.719715289e-06
-4.550441658e-06
-2.833002506e-06
-1.196052903e-06
1.155687515e-06
2.997168597e-06
1.282692863e-06
1.297294208e-06
1.714074104e-06
2.133877576e-06
2.520576143e-06
2.809976364e-06
3.013846433e-06
3.179584168e-06
3.318571657e-06
3.45417145e-06
3.585388345e-06
3.726861861e-06
3.888468616e-06
4.080056639e-06
4.309870666e-06
4.597275706e-06
4.943060554e-06
5.331215064e-06
5.803005124e-06
6.28150963e-06
6.866989172e-06
7.489044795e-06
8.201306266e-06
9.024862935e-06
9.886855133e-06
1.0851923e-05
1.191400718e-05
1.305985647e-05
1.425036057e-05
1.5502321e-05
1.690836997e-05
1.837698318e-05
1.996218095e-05
2.172857543e-05
2.378406591e-05
2.618595234e-05
3.077235878e-05
3.184301081e-05
3.050447678e-05
3.098319396e-05
3.24594702e-05
3.427530998e-05
3.624455735e-05
3.85289163e-05
4.127950469e-05
4.577894616e-05
4.474118404e-05
4.423566261e-05
4.560937683e-05
4.749805672e-05
4.996398074e-05
5.512249212e-05
5.302558536e-05
5.376962577e-05
5.749528797e-05
5.811089321e-05
6.102797307e-05
6.043996413e-05
6.234410974e-05
6.162658164e-05
6.097259554e-05
6.084330965e-05
6.072783633e-05
)


101
(
-8.26922134e-15
-1.292097684e-09
-9.695987408e-09
-3.656240629e-08
-9.402985251e-08
-1.934347003e-07
-3.482198557e-07
-5.917137655e-07
-9.464359317e-07
-1.457001747e-06
-2.166151263e-06
-3.125012003e-06
-4.349052069e-06
-5.921929165e-06
-7.772026445e-06
-9.866758102e-06
-1.216372756e-05
-1.457377328e-05
-1.67955551e-05
-1.897091539e-05
-2.0679818e-05
-2.192491387e-05
-2.262481879e-05
-2.269532437e-05
-2.216975203e-05
-2.110752171e-05
-1.960528518e-05
-1.778608534e-05
-1.572193858e-05
-1.357841928e-05
-1.143016912e-05
-9.377920397e-06
-7.544492882e-06
-5.483641974e-06
-3.741616498e-06
-2.119907395e-06
1.756022273e-08
1.845074618e-06
8.376799583e-07
6.123610915e-07
8.134887239e-07
1.123875407e-06
1.440908354e-06
1.685672136e-06
1.847653868e-06
1.956070143e-06
2.026603773e-06
2.084404812e-06
2.133750678e-06
2.187947295e-06
2.256394561e-06
2.349061878e-06
2.471333595e-06
2.633513168e-06
2.84753284e-06
3.110107222e-06
3.450653967e-06
3.815154889e-06
4.264311109e-06
4.761600453e-06
5.335432841e-06
6.01036348e-06
6.740830476e-06
7.553626058e-06
8.449057649e-06
9.435416251e-06
1.04831767e-05
1.159190173e-05
1.281774369e-05
1.412712938e-05
1.553408857e-05
1.709039928e-05
1.886745962e-05
2.096228048e-05
2.469131534e-05
2.645224647e-05
2.612187673e-05
2.637176128e-05
2.736126193e-05
2.888414337e-05
3.068388139e-05
3.271423596e-05
3.510935394e-05
3.891486203e-05
3.945710995e-05
3.920967223e-05
3.994320927e-05
4.152388976e-05
4.355808864e-05
4.739883603e-05
4.750461242e-05
4.768749406e-05
5.015608802e-05
5.156567343e-05
5.318275641e-05
5.387620705e-05
5.607242437e-05
5.477416178e-05
5.35062676e-05
5.248940285e-05
5.147262455e-05
)


101
(
-8.26922134e-15
-1.240021101e-09
-9.417975723e-09
-3.564910461e-08
-9.175077951e-08
-1.886445408e-07
-3.391047759e-07
-5.746544308e-07
-9.173542301e-07
-1.409124932e-06
-2.091501285e-06
-3.013582848e-06
-4.194042246e-06
-5.707759103e-06
-7.504292141e-06
-9.549137286e-06
-1.180327489e-05
-1.418859644e-05
-1.645206406e-05
-1.865157456e-05
-2.04855108e-05
-2.187871152e-05
-2.276048924e-05
-2.305255263e-05
-2.275795267e-05
-2.192318568e-05
-2.063008384e-05
-1.898824581e-05
-1.708167817e-05
-1.504469244e-05
-1.297527195e-05
-1.096894614e-05
-9.13443699e-06
-7.241603546e-06
-5.486689282e-06
-3.864052149e-06
-2.048720665e-06
-2.81068332e-07
-1.786484647e-07
-5.435018534e-07
-6.751304742e-07
-5.984911822e-07
-4.313985342e-07
-2.726394743e-07
-1.7809822e-07
-1.564032168e-07
-1.924319714e-07
-2.635506003e-07
-3.516041102e-07
-4.465701683e-07
-5.362599446e-07
-6.129981625e-07
-6.71078413e-07
-7.080913784e-07
-7.093305711e-07
-6.666974536e-07
-5.578542254e-07
-4.018202889e-07
-1.889989652e-07
8.30265704e-08
4.152223401e-07
8.277979823e-07
1.312096001e-06
1.863346425e-06
2.486073549e-06
3.200655068e-06
3.990935764e-06
4.850320405e-06
5.780911782e-06
6.802990143e-06
7.906374179e-06
9.105233283e-06
1.042678036e-05
1.196453877e-05
1.432398859e-05
1.666096507e-05
1.784812988e-05
1.825202843e-05
1.865826097e-05
1.957143822e-05
2.098025057e-05
2.262216863e-05
2.443746625e-05
2.700376998e-05
2.926027718e-05
3.007963519e-05
3.023945263e-05
3.114042503e-05
3.264918342e-05
3.479806957e-05
3.69309146e-05
3.75208002e-05
3.816482822e-05
3.999188604e-05
4.080622869e-05
4.254955402e-05
4.52758735e-05
4.328009592e-05
4.130185407e-05
3.946517328e-05
3.760086757e-05
)


101
(
-8.26922134e-15
-1.188730406e-09
-9.143779562e-09
-3.474887487e-08
-8.950918537e-08
-1.839479027e-07
-3.301993772e-07
-5.580535811e-07
-8.890669389e-07
-1.362627205e-06
-2.018960062e-06
-2.905181219e-06
-4.042543695e-06
-5.498439931e-06
-7.239628153e-06
-9.232456409e-06
-1.144056982e-05
-1.37953502e-05
-1.608458244e-05
-1.83076846e-05
-2.024153888e-05
-2.177182053e-05
-2.282286084e-05
-2.332125794e-05
-2.324923419e-05
-2.263716876e-05
-2.155232169e-05
-2.009071504e-05
-1.834001737e-05
-1.641571196e-05
-1.442243784e-05
-1.245791991e-05
-1.062302205e-05
-8.819903623e-06
-7.09911409e-06
-5.492856466e-06
-3.803420814e-06
-2.117474262e-06
-1.396550367e-06
-1.463505359e-06
-1.697834176e-06
-1.823509409e-06
-1.819584343e-06
-1.756730524e-06
-1.714186358e-06
-1.736602319e-06
-1.828016042e-06
-1.975332973e-06
-2.153195256e-06
-2.350364827e-06
-2.551221169e-06
-2.748539695e-06
-2.933385042e-06
-3.101819874e-06
-3.246097175e-06
-3.357419791e-06
-3.425389402e-06
-3.441120468e-06
-3.407418461e-06
-3.315264109e-06
-3.167165373e-06
-2.954913173e-06
-2.675372854e-06
-2.32658895e-06
-1.904293409e-06
-1.396636411e-06
-8.154225593e-07
-1.638010739e-07
5.566476694e-07
1.352763462e-06
2.237830997e-06
3.193629193e-06
4.231899794e-06
5.371077692e-06
6.911966129e-06
8.836851873e-06
1.056827781e-05
1.164412176e-05
1.214953875e-05
1.264311708e-05
1.359846317e-05
1.496192021e-05
1.646007082e-05
1.822993625e-05
2.033563845e-05
2.214075002e-05
2.290445482e-05
2.333626313e-05
2.447680772e-05
2.608586547e-05
2.7848826e-05
2.94939129e-05
3.003891513e-05
3.12420908e-05
3.262035987e-05
3.396994594e-05
3.636865436e-05
3.451938017e-05
3.272686109e-05
3.138010548e-05
3.005265122e-05
)


101
(
-8.26922211e-15
-1.138228814e-09
-8.873384669e-09
-3.386155227e-08
-8.730430449e-08
-1.7934255e-07
-3.214985773e-07
-5.419005071e-07
-8.615614565e-07
-1.317487217e-06
-1.948515082e-06
-2.799815974e-06
-3.894675754e-06
-5.294083282e-06
-6.978682155e-06
-8.917559144e-06
-1.107677656e-05
-1.339585287e-05
-1.569702212e-05
-1.794038465e-05
-1.995435312e-05
-2.16083367e-05
-2.28167033e-05
-2.350784256e-05
-2.364958672e-05
-2.325599855e-05
-2.237948846e-05
-2.110250986e-05
-1.951082118e-05
-1.770741364e-05
-1.579609549e-05
-1.387488455e-05
-1.204250728e-05
-1.028190882e-05
-8.595386086e-06
-7.022049077e-06
-5.390630408e-06
-3.765194402e-06
-2.70351952e-06
-2.388742718e-06
-2.510240617e-06
-2.721770924e-06
-2.858589868e-06
-2.907059294e-06
-2.923897721e-06
-2.972686418e-06
-3.086545739e-06
-3.269561473e-06
-3.502073187e-06
-3.765505297e-06
-4.043245907e-06
-4.325105183e-06
-4.602416159e-06
-4.87041021e-06
-5.121168827e-06
-5.342707146e-06
-5.537447883e-06
-5.688716219e-06
-5.797977339e-06
-5.853493799e-06
-5.85299471e-06
-5.798484738e-06
-5.681324442e-06
-5.501149929e-06
-5.253295455e-06
-4.927176954e-06
-4.525498219e-06
-4.056775423e-06
-3.512863724e-06
-2.904056601e-06
-2.20699231e-06
-1.433704842e-06
-5.833021941e-07
3.236951968e-07
1.401900086e-06
2.787911758e-06
4.372627379e-06
5.788153735e-06
6.700687983e-06
7.189651615e-06
7.780093798e-06
8.801861415e-06
1.011492301e-05
1.154192121e-05
1.31757939e-05
1.49908864e-05
1.647046022e-05
1.712597193e-05
1.786144344e-05
1.91689299e-05
2.066174748e-05
2.225646891e-05
2.345789157e-05
2.441425062e-05
2.581307493e-05
2.699155359e-05
2.866584496e-05
2.75392938e-05
2.638406488e-05
2.503135815e-05
2.366969029e-05
)


101
(
-8.269221359e-15
-1.088520527e-09
-8.606774023e-09
-3.298696939e-08
-8.513539418e-08
-1.748262452e-07
-3.129971608e-07
-5.261841851e-07
-8.348240204e-07
-1.273682013e-06
-1.88014854e-06
-2.697485843e-06
-3.75053319e-06
-5.09478411e-06
-6.722004699e-06
-8.60523324e-06
-1.071297524e-05
-1.299175421e-05
-1.529281975e-05
-1.755121814e-05
-1.962906009e-05
-2.13924207e-05
-2.274600561e-05
-2.361723083e-05
-2.396347155e-05
-2.378382956e-05
-2.311584323e-05
-2.202822415e-05
-2.060115304e-05
-1.892798183e-05
-1.71083899e-05
-1.523839649e-05
-1.341571005e-05
-1.167245873e-05
-1.0004508e-05
-8.433009834e-06
-6.863186979e-06
-5.284337328e-06
-4.029036326e-06
-3.379238926e-06
-3.268288431e-06
-3.43283025e-06
-3.64321943e-06
-3.792555395e-06
-3.879570082e-06
-3.956868143e-06
-4.077482587e-06
-4.269847461e-06
-4.527906862e-06
-4.830313907e-06
-5.159032981e-06
-5.499516762e-06
-5.842986262e-06
-6.183938118e-06
-6.517505296e-06
-6.830147485e-06
-7.116926769e-06
-7.371832102e-06
-7.591258685e-06
-7.76895481e-06
-7.897116911e-06
-7.974985259e-06
-7.995859729e-06
-7.955240431e-06
-7.853426655e-06
-7.685947191e-06
-7.444625211e-06
-7.132469305e-06
-6.74678561e-06
-6.295154106e-06
-5.77411184e-06
-5.173891552e-06
-4.490786175e-06
-3.742188894e-06
-2.910253404e-06
-1.910739024e-06
-6.899834312e-07
6.657730921e-07
1.847292905e-06
2.585472106e-06
3.061411608e-06
3.739159821e-06
4.816302353e-06
6.083873732e-06
7.443299232e-06
8.959303454e-06
1.05505436e-05
1.170150132e-05
1.238149368e-05
1.34383242e-05
1.480869e-05
1.624334627e-05
1.762151254e-05
1.861978905e-05
1.99488265e-05
2.124588447e-05
2.267759144e-05
2.175568365e-05
2.078123626e-05
1.939126387e-05
1.799822067e-05
)


101
(
-8.26922134e-15
-1.039607463e-09
-8.343937562e-09
-3.212498529e-08
-8.300178382e-08
-1.703968991e-07
-3.046901666e-07
-5.108939161e-07
-8.088406526e-07
-1.231188043e-06
-1.813838869e-06
-2.598182392e-06
-3.610189017e-06
-4.900620264e-06
-6.470064634e-06
-8.296204036e-06
-1.035016345e-05
-1.258454285e-05
-1.487502209e-05
-1.714199001e-05
-1.926981417e-05
-2.112807622e-05
-2.261427923e-05
-2.365323708e-05
-2.419419064e-05
-2.422309718e-05
-2.376314704e-05
-2.286924109e-05
-2.161347216e-05
-2.008052565e-05
-1.836389363e-05
-1.655731694e-05
-1.475538612e-05
-1.302039137e-05
-1.136135728e-05
-9.792070497e-06
-8.256372709e-06
-6.717233457e-06
-5.358442908e-06
-4.445409874e-06
-4.061899874e-06
-4.074057355e-06
-4.270072608e-06
-4.482098158e-06
-4.639842628e-06
-4.757395806e-06
-4.88517859e-06
-5.070002799e-06
-5.327001347e-06
-5.643517992e-06
-6.000900355e-06
-6.379802379e-06
-6.770221437e-06
-7.164899548e-06
-7.559042216e-06
-7.943081634e-06
-8.30834822e-06
-8.646365829e-06
-8.952484032e-06
-9.225886443e-06
-9.461136776e-06
-9.650155097e-06
-9.791140789e-06
-9.874910721e-06
-9.899184287e-06
-9.865055063e-06
-9.764108962e-06
-9.596847776e-06
-9.359458782e-06
-9.047903144e-06
-8.677435827e-06
-8.235727685e-06
-7.714965308e-06
-7.11562502e-06
-6.447294468e-06
-5.68385641e-06
-4.773124066e-06
-3.673816669e-06
-2.5066266e-06
-1.550040155e-06
-9.576464488e-07
-4.650083327e-07
3.216753895e-07
1.4238335e-06
2.638150023e-06
3.940073057e-06
5.37211252e-06
6.715221487e-06
7.603339145e-06
8.488014448e-06
9.733412365e-06
1.11178257e-05
1.250885809e-05
1.359928887e-05
1.493173443e-05
1.625603221e-05
1.743218357e-05
1.636397611e-05
1.530493184e-05
1.430328698e-05
1.334850712e-05
)


101
(
-8.26922134e-15
-9.914936607e-10
-8.084865686e-09
-3.127545561e-08
-8.090279722e-08
-1.66052413e-07
-2.965726034e-07
-4.960189152e-07
-7.835965913e-07
-1.189980268e-06
-1.749560225e-06
-2.50188841e-06
-3.473698827e-06
-4.711657031e-06
-6.223270006e-06
-7.991155746e-06
-9.98928974e-06
-1.217561923e-05
-1.4446377e-05
-1.671477475e-05
-1.888026212e-05
-2.081923141e-05
-2.242500734e-05
-2.36193014e-05
-2.434468863e-05
-2.457577914e-05
-2.432234831e-05
-2.362571649e-05
-2.254819889e-05
-2.116587499e-05
-1.956517444e-05
-1.783580765e-05
-1.606877071e-05
-1.434320036e-05
-1.268636604e-05
-1.111614652e-05
-9.599077588e-06
-8.091485721e-06
-6.683028104e-06
-5.580022883e-06
-4.934345802e-06
-4.73184408e-06
-4.828138438e-06
-5.04366769e-06
-5.253168316e-06
-5.417746858e-06
-5.562618776e-06
-5.737796118e-06
-5.978846597e-06
-6.289218847e-06
-6.653045308e-06
-7.052087682e-06
-7.472849425e-06
-7.903775393e-06
-8.340365841e-06
-8.778025978e-06
-9.206170686e-06
-9.613222338e-06
-9.99465077e-06
-1.034753614e-05
-1.066825804e-05
-1.0950359e-05
-1.11902642e-05
-1.138393524e-05
-1.152288587e-05
-1.160806791e-05
-1.163437233e-05
-1.159829775e-05
-1.149618971e-05
-1.131959332e-05
-1.108059967e-05
-1.07757666e-05
-1.040461659e-05
-9.955452852e-06
-9.430807194e-06
-8.830686994e-06
-8.134663965e-06
-7.296292118e-06
-6.311454611e-06
-5.317442373e-06
-4.562295111e-06
-4.06871388e-06
-3.515821471e-06
-2.631990551e-06
-1.543928575e-06
-3.737367977e-07
8.866510104e-07
2.207453589e-06
3.295556844e-06
4.143707254e-06
5.268951771e-06
6.60253806e-06
7.988641188e-06
9.183712466e-06
1.05314204e-05
1.177841634e-05
1.288446752e-05
1.191441434e-05
1.093217253e-05
9.8519366e-06
8.735939562e-06
)


101
(
-8.26922288e-15
-9.441847579e-10
-7.829550958e-09
-3.043825386e-08
-7.883779975e-08
-1.617907518e-07
-2.886395053e-07
-4.815483308e-07
-7.59076613e-07
-1.150032731e-06
-1.687283658e-06
-2.408579783e-06
-3.341101014e-06
-4.527942363e-06
-5.981960739e-06
-7.690716405e-06
-9.631246855e-06
-1.176629535e-05
-1.400937412e-05
-1.627177636e-05
-1.846372938e-05
-2.046974134e-05
-2.218175916e-05
-2.35188043e-05
-2.441790796e-05
-2.48439588e-05
-2.479441041e-05
-2.429746548e-05
-2.340465193e-05
-2.218306338e-05
-2.071148671e-05
-1.9074353e-05
-1.735837706e-05
-1.565066027e-05
-1.399442367e-05
-1.241900706e-05
-1.090986312e-05
-9.426536257e-06
-8.000829995e-06
-6.772173e-06
-5.902743804e-06
-5.462150753e-06
-5.391651873e-06
-5.543408193e-06
-5.766905008e-06
-5.972215145e-06
-6.14378104e-06
-6.317629419e-06
-6.538509401e-06
-6.828622682e-06
-7.183209822e-06
-7.587974099e-06
-8.024605088e-06
-8.478972732e-06
-8.94531275e-06
-9.419013837e-06
-9.893235282e-06
-1.035503744e-05
-1.079995247e-05
-1.122278252e-05
-1.161809942e-05
-1.198149625e-05
-1.230750892e-05
-1.259447265e-05
-1.283516947e-05
-1.302679241e-05
-1.316729908e-05
-1.324833861e-05
-1.326867502e-05
-1.3219525e-05
-1.310531682e-05
-1.292828389e-05
-1.268874709e-05
-1.237992485e-05
-1.199514666e-05
-1.153669142e-05
-1.099703372e-05
-1.035844588e-05
-9.589301817e-06
-8.708879217e-06
-7.887138559e-06
-7.305227446e-06
-6.852550313e-06
-6.197654006e-06
-5.261467341e-06
-4.194462792e-06
-3.068454397e-06
-1.843027499e-06
-6.771826927e-07
2.375335829e-07
1.279172505e-06
2.55883844e-06
3.908015077e-06
5.197603467e-06
6.540927679e-06
7.826927137e-06
8.901054754e-06
7.980400098e-06
7.031259639e-06
5.867157909e-06
4.602034202e-06
)


101
(
-8.26922288e-15
-8.976834546e-10
-7.577985999e-09
-2.961325096e-08
-7.680615127e-08
-1.576098435e-07
-2.808857416e-07
-4.67470813e-07
-7.35264614e-07
-1.11131835e-06
-1.626976195e-06
-2.318223872e-06
-3.212415084e-06
-4.349507264e-06
-5.746415242e-06
-7.395448106e-06
-9.276864196e-06
-1.135778663e-05
-1.356628131e-05
-1.581525937e-05
-1.802330282e-05
-2.008330932e-05
-2.188816451e-05
-2.335510045e-05
-2.441669071e-05
-2.502957594e-05
-2.518005244e-05
-2.488383041e-05
-2.418115182e-05
-2.312971837e-05
-2.180015491e-05
-2.02705645e-05
-1.862272666e-05
-1.694623652e-05
-1.529540746e-05
-1.371325817e-05
-1.220430886e-05
-1.073806363e-05
-9.313141674e-06
-8.010240257e-06
-6.967778126e-06
-6.297494104e-06
-6.020066805e-06
-6.046082289e-06
-6.233810709e-06
-6.459183098e-06
-6.660146311e-06
-6.84266403e-06
-7.046219162e-06
-7.309022321e-06
-7.64317147e-06
-8.040661218e-06
-8.481945868e-06
-8.951244814e-06
-9.435957813e-06
-9.933758983e-06
-1.044226497e-05
-1.094761924e-05
-1.144443272e-05
-1.192662245e-05
-1.238647395e-05
-1.281994685e-05
-1.322431107e-05
-1.359377058e-05
-1.392275584e-05
-1.420655828e-05
-1.444725095e-05
-1.463581837e-05
-1.477090712e-05
-1.484450215e-05
-1.485220574e-05
-1.479685557e-05
-1.467783948e-05
-1.449608297e-05
-1.424607172e-05
-1.392057629e-05
-1.351594018e-05
-1.303235062e-05
-1.24488209e-05
-1.174300516e-05
-1.097447171e-05
-1.032735754e-05
-9.867423323e-06
-9.380276875e-06
-8.621325161e-06
-7.663858635e-06
-6.633602335e-06
-5.516922336e-06
-4.358312977e-06
-3.371336772e-06
-2.387880756e-06
-1.164455866e-06
1.701719962e-07
1.5210371e-06
2.882692888e-06
4.215757018e-06
5.165763451e-06
4.23442485e-06
3.276290872e-06
2.092088676e-06
9.504027135e-07
)


101
(
-8.269153723e-15
-8.519947509e-10
-7.330166818e-09
-2.880032978e-08
-7.480724874e-08
-1.53507691e-07
-2.733062852e-07
-4.537750697e-07
-7.12144148e-07
-1.07380969e-06
-1.568602396e-06
-2.230782812e-06
-3.087645146e-06
-4.176372665e-06
-5.516868028e-06
-7.105858382e-06
-8.926920226e-06
-1.095124434e-05
-1.311915339e-05
-1.534753719e-05
-1.756195212e-05
-1.966351633e-05
-2.154789323e-05
-2.313157353e-05
-2.434384373e-05
-2.51344369e-05
-2.547970186e-05
-2.538371081e-05
-2.487534623e-05
-2.400257849e-05
-2.282748001e-05
-2.142098291e-05
-1.98591196e-05
-1.823079989e-05
-1.659659511e-05
-1.50110548e-05
-1.349704777e-05
-1.203947532e-05
-1.062278484e-05
-9.283318209e-06
-8.120987241e-06
-7.254256902e-06
-6.758810899e-06
-6.612194929e-06
-6.710063569e-06
-6.92048108e-06
-7.14211529e-06
-7.340741873e-06
-7.537199982e-06
-7.774356342e-06
-8.079579143e-06
-8.456713247e-06
-8.891522061e-06
-9.365459316e-06
-9.861636025e-06
-1.037945339e-05
-1.091139086e-05
-1.145154334e-05
-1.198942163e-05
-1.252174755e-05
-1.30392654e-05
-1.353471267e-05
-1.400753159e-05
-1.445080898e-05
-1.48607509e-05
-1.523067444e-05
-1.556091032e-05
-1.584905846e-05
-1.609047715e-05
-1.627693428e-05
-1.640192547e-05
-1.646390449e-05
-1.64648684e-05
-1.640447282e-05
-1.628044633e-05
-1.608336959e-05
-1.581003815e-05
-1.546208734e-05
-1.502627612e-05
-1.44905471e-05
-1.385311427e-05
-1.321480279e-05
-1.271986047e-05
-1.231335302e-05
-1.172881321e-05
-1.089596275e-05
-9.946394223e-06
-8.931408837e-06
-7.82836064e-06
-6.792334655e-06
-5.82932687e-06
-4.657157044e-06
-3.328132104e-06
-1.943275388e-06
-5.479619337e-07
8.159091293e-07
1.761125987e-06
7.533490061e-07
-3.026533462e-07
-1.695630341e-06
-3.06167005e-06
)


101
(
-8.26892136e-15
-8.071257999e-10
-7.086098518e-09
-2.79994078e-08
-7.284057841e-08
-1.494824826e-07
-2.658964256e-07
-4.404503032e-07
-6.896990396e-07
-1.037479405e-06
-1.512125764e-06
-2.146215809e-06
-2.966784517e-06
-4.008545463e-06
-5.293512002e-06
-6.822406678e-06
-8.582152445e-06
-1.054775437e-05
-1.266991239e-05
-1.487090734e-05
-1.708258175e-05
-1.921391202e-05
-2.116460582e-05
-2.285160662e-05
-2.420201114e-05
-2.515999935e-05
-2.569332672e-05
-2.579544298e-05
-2.548411624e-05
-2.479729847e-05
-2.378824818e-05
-2.252039898e-05
-2.106326959e-05
-1.950233169e-05
-1.790075549e-05
-1.632085331e-05
-1.480107546e-05
-1.334451017e-05
-1.193659338e-05
-1.058578114e-05
-9.351165094e-06
-8.333716918e-06
-7.634912824e-06
-7.290268332e-06
-7.248953428e-06
-7.399088452e-06
-7.619665539e-06
-7.836475216e-06
-8.038429029e-06
-8.258765831e-06
-8.533924355e-06
-8.882227248e-06
-9.299727457e-06
-9.769368138e-06
-1.027364004e-05
-1.080488742e-05
-1.135466745e-05
-1.191992941e-05
-1.249137128e-05
-1.306553765e-05
-1.363420013e-05
-1.418751678e-05
-1.472274221e-05
-1.523437413e-05
-1.571937107e-05
-1.617350518e-05
-1.65886624e-05
-1.696807789e-05
-1.730774914e-05
-1.760003818e-05
-1.783913128e-05
-1.801883685e-05
-1.8135879e-05
-1.819276548e-05
-1.818986761e-05
-1.812190715e-05
-1.797948096e-05
-1.776035472e-05
-1.746067097e-05
-1.707415112e-05
-1.658619406e-05
-1.602834034e-05
-1.55277908e-05
-1.514383085e-05
-1.47004255e-05
-1.40157133e-05
-1.315120852e-05
-1.22197966e-05
-1.11949119e-05
-1.01389744e-05
-9.167559502e-06
-8.0472204e-06
-6.726211128e-06
-5.310701358e-06
-3.864017476e-06
-2.482290753e-06
-1.542862582e-06
-2.700772261e-06
-3.949764195e-06
-5.722437039e-06
-7.565104258e-06
)


101
(
-8.26875511e-15
-7.630808619e-10
-6.84578124e-09
-2.721037811e-08
-7.090556742e-08
-1.455322841e-07
-2.586511688e-07
-4.27485135e-07
-6.679121858e-07
-1.002298581e-06
-1.457505714e-06
-2.064473697e-06
-2.849811515e-06
-3.846011158e-06
-5.076486737e-06
-6.545488985e-06
-8.243231782e-06
-1.014832357e-05
-1.222031343e-05
-1.438761563e-05
-1.658800483e-05
-1.873790555e-05
-2.074194091e-05
-2.251869371e-05
-2.399409334e-05
-2.510809443e-05
-2.582130768e-05
-2.611769977e-05
-2.600443404e-05
-2.550931944e-05
-2.467655171e-05
-2.356193497e-05
-2.222819312e-05
-2.075509428e-05
-1.920549391e-05
-1.764558917e-05
-1.612542989e-05
-1.466602911e-05
-1.326376017e-05
-1.191526608e-05
-1.064573648e-05
-9.52614755e-06
-8.657909308e-06
-8.11415441e-06
-7.898918427e-06
-7.94167246e-06
-8.127141048e-06
-8.352751045e-06
-8.569357703e-06
-8.78672247e-06
-9.038308314e-06
-9.355595656e-06
-9.748967376e-06
-1.020699795e-05
-1.071284978e-05
-1.125102222e-05
-1.181755083e-05
-1.240345819e-05
-1.300526033e-05
-1.361538068e-05
-1.422997295e-05
-1.483692555e-05
-1.543180944e-05
-1.60097288e-05
-1.656720257e-05
-1.710079446e-05
-1.760148882e-05
-1.806958734e-05
-1.85019443e-05
-1.889645484e-05
-1.924570305e-05
-1.954327143e-05
-1.977892294e-05
-1.99545184e-05
-2.007171869e-05
-2.012972616e-05
-2.011899809e-05
-2.003273794e-05
-1.9866992e-05
-1.961997144e-05
-1.927810667e-05
-1.88443848e-05
-1.838774117e-05
-1.801173702e-05
-1.766531519e-05
-1.713678546e-05
-1.637659452e-05
-1.551701618e-05
-1.456947985e-05
-1.354161579e-05
-1.254553028e-05
-1.146729282e-05
-1.016109078e-05
-8.721889812e-06
-7.214341854e-06
-5.790946402e-06
-4.836509998e-06
-6.327867271e-06
-7.935004567e-06
-1.008229605e-05
-1.232329782e-05
)


101
(
-8.268758209e-15
-7.198667182e-10
-6.609221091e-09
-2.643316194e-08
-6.900172165e-08
-1.416553353e-07
-2.515658298e-07
-4.148685917e-07
-6.467666364e-07
-9.68238681e-07
-1.404701252e-06
-1.985505268e-06
-2.736694397e-06
-3.688745849e-06
-4.865900442e-06
-6.275451092e-06
-7.910772837e-06
-9.753908446e-06
-1.177195618e-05
-1.389983259e-05
-1.608099689e-05
-1.823891757e-05
-2.028370717e-05
-2.213666341e-05
-2.372361683e-05
-2.498149161e-05
-2.586506676e-05
-2.635003106e-05
-2.643372535e-05
-2.613405703e-05
-2.548602796e-05
-2.453752094e-05
-2.334427502e-05
-2.197927557e-05
-2.050285455e-05
-1.898173212e-05
-1.747316103e-05
-1.601331688e-05
-1.461408074e-05
-1.32727383e-05
-1.199346754e-05
-1.081581049e-05
-9.823085605e-06
-9.102023234e-06
-8.700140367e-06
-8.597278223e-06
-8.70645848e-06
-8.917275219e-06
-9.148136233e-06
-9.375131372e-06
-9.616166863e-06
-9.907775818e-06
-1.027497429e-05
-1.07158176e-05
-1.121721278e-05
-1.176175003e-05
-1.234297321e-05
-1.295062946e-05
-1.357931265e-05
-1.422354627e-05
-1.488135058e-05
-1.554032311e-05
-1.619268057e-05
-1.683664433e-05
-1.74683368e-05
-1.807854394e-05
-1.866559459e-05
-1.922251775e-05
-1.974984877e-05
-2.024615974e-05
-2.070342878e-05
-2.111817751e-05
-2.147808396e-05
-2.177938017e-05
-2.202112307e-05
-2.22039226e-05
-2.232762908e-05
-2.23795109e-05
-2.235125372e-05
-2.224514297e-05
-2.204703121e-05
-2.175415635e-05
-2.13919696e-05
-2.104849802e-05
-2.075830314e-05
-2.037039112e-05
-1.974486805e-05
-1.896435413e-05
-1.80909679e-05
-1.7123274e-05
-1.611252174e-05
-1.506767959e-05
-1.376426418e-05
-1.231150907e-05
-1.074482736e-05
-9.272550333e-06
-8.269399951e-06
-1.014451492e-05
-1.217368224e-05
-1.463886581e-05
-1.749067237e-05
)


101
(
-8.268761271e-15
-6.774908163e-10
-6.37642134e-09
-2.566766972e-08
-6.712851967e-08
-1.378498255e-07
-2.446356698e-07
-4.025895446e-07
-6.262444745e-07
-9.352697948e-07
-1.353669757e-06
-1.90925365e-06
-2.627389202e-06
-3.536711088e-06
-4.661828435e-06
-6.012580393e-06
-7.58532839e-06
-9.365368685e-06
-1.132630508e-05
-1.340955566e-05
-1.556418151e-05
-1.772028469e-05
-1.979377842e-05
-2.170953341e-05
-2.339435523e-05
-2.478330327e-05
-2.582651952e-05
-2.649258874e-05
-2.676996792e-05
-2.66672432e-05
-2.621038227e-05
-2.543901058e-05
-2.440144601e-05
-2.316361036e-05
-2.178200755e-05
-2.032142222e-05
-1.884211055e-05
-1.739102194e-05
-1.599564199e-05
-1.466217452e-05
-1.338752127e-05
-1.21861257e-05
-1.111513704e-05
-1.025484148e-05
-9.677340495e-06
-9.408270502e-06
-9.402639568e-06
-9.565854385e-06
-9.797724217e-06
-1.00399579e-05
-1.028652992e-05
-1.056570895e-05
-1.091000659e-05
-1.133198685e-05
-1.182633026e-05
-1.237666422e-05
-1.297163143e-05
-1.360265569e-05
-1.425881078e-05
-1.493771819e-05
-1.563599814e-05
-1.634756028e-05
-1.705991103e-05
-1.777278903e-05
-1.847941047e-05
-1.917000656e-05
-1.984487133e-05
-2.049539262e-05
-2.112459381e-05
-2.172459399e-05
-2.229214559e-05
-2.282527455e-05
-2.331296292e-05
-2.374976756e-05
-2.412759265e-05
-2.444230183e-05
-2.470109781e-05
-2.489264972e-05
-2.501459717e-05
-2.505384215e-05
-2.50033245e-05
-2.485931842e-05
-2.462381259e-05
-2.435406893e-05
-2.411520995e-05
-2.383888309e-05
-2.336066011e-05
-2.268020074e-05
-2.188013862e-05
-2.098096024e-05
-1.997509374e-05
-1.895554831e-05
-1.766263726e-05
-1.618872362e-05
-1.457426065e-05
-1.30359436e-05
-1.194115506e-05
-1.419962493e-05
-1.661691754e-05
-1.912123351e-05
-2.170874375e-05
)


101
(
-8.26875511e-15
-6.359589682e-10
-6.147383258e-09
-2.491380184e-08
-6.528542363e-08
-1.341139171e-07
-2.378558923e-07
-3.906367167e-07
-6.063271666e-07
-9.033610463e-07
-1.304366851e-06
-1.83565706e-06
-2.521840892e-06
-3.389853445e-06
-4.464308172e-06
-5.757108761e-06
-7.267384399e-06
-8.983488789e-06
-1.088466924e-05
-1.291865796e-05
-1.504005264e-05
-1.718519835e-05
-1.927597888e-05
-2.124139908e-05
-2.301026251e-05
-2.451692009e-05
-2.570798388e-05
-2.654613157e-05
-2.701199721e-05
-2.71055191e-05
-2.684385385e-05
-2.625835858e-05
-2.538973875e-05
-2.429653576e-05
-2.303074432e-05
-2.165367228e-05
-2.022524592e-05
-1.879829704e-05
-1.741317163e-05
-1.608906315e-05
-1.482552915e-05
-1.362311891e-05
-1.251438833e-05
-1.156005716e-05
-1.083662577e-05
-1.040204694e-05
-1.025612437e-05
-1.033774794e-05
-1.054686908e-05
-1.080144833e-05
-1.106654506e-05
-1.135015741e-05
-1.168197966e-05
-1.208922887e-05
-1.25753142e-05
-1.312843342e-05
-1.373862783e-05
-1.439484252e-05
-1.508337109e-05
-1.579963315e-05
-1.654127236e-05
-1.730647739e-05
-1.80846959e-05
-1.887154643e-05
-1.965496739e-05
-2.043551682e-05
-2.120284495e-05
-2.195380858e-05
-2.26875437e-05
-2.339758331e-05
-2.408410722e-05
-2.474013606e-05
-2.536042012e-05
-2.593908458e-05
-2.646459548e-05
-2.692584803e-05
-2.732144894e-05
-2.766192998e-05
-2.793524052e-05
-2.812814915e-05
-2.823677099e-05
-2.824760787e-05
-2.815171485e-05
-2.799012455e-05
-2.78170207e-05
-2.763168975e-05
-2.728935157e-05
-2.672765395e-05
-2.60014539e-05
-2.516418811e-05
-2.41842422e-05
-2.316423175e-05
-2.190144351e-05
-2.039723759e-05
-1.873344461e-05
-1.711837535e-05
-1.594255085e-05
-1.842645826e-05
-2.101656512e-05
-2.312615919e-05
-2.503793712e-05
)


101
(
-8.26875511e-15
-5.952794438e-10
-5.922185926e-09
-2.417153884e-08
-6.347211513e-08
-1.304462447e-07
-2.312225177e-07
-3.79000179e-07
-5.869975951e-07
-8.724835006e-07
-1.256750808e-06
-1.7646577e-06
-2.419993032e-06
-3.248116186e-06
-4.273356602e-06
-5.509241141e-06
-6.957384034e-06
-8.609023001e-06
-1.044830179e-05
-1.242897142e-05
-1.451108251e-05
-1.663688091e-05
-1.873415209e-05
-2.073649081e-05
-2.257550098e-05
-2.418597718e-05
-2.55121466e-05
-2.65119648e-05
-2.715935803e-05
-2.744635233e-05
-2.738143182e-05
-2.698787784e-05
-2.629919146e-05
-2.536597462e-05
-2.423553605e-05
-2.296478391e-05
-2.161104464e-05
-2.022870398e-05
-1.886634972e-05
-1.755617449e-05
-1.630715997e-05
-1.511741157e-05
-1.400151502e-05
-1.299669643e-05
-1.216825764e-05
-1.15889776e-05
-1.129570677e-05
-1.126790236e-05
-1.142645493e-05
-1.168114585e-05
-1.196951418e-05
-1.227367124e-05
-1.261031962e-05
-1.301257634e-05
-1.349462323e-05
-1.40513394e-05
-1.46781812e-05
-1.536140954e-05
-1.608812006e-05
-1.684835608e-05
-1.764077184e-05
-1.846301113e-05
-1.931239668e-05
-2.017793122e-05
-2.104654973e-05
-2.192440576e-05
-2.279203796e-05
-2.365006407e-05
-2.449480015e-05
-2.532696897e-05
-2.614096298e-05
-2.692629769e-05
-2.768530866e-05
-2.840840923e-05
-2.908539725e-05
-2.970658048e-05
-3.025905728e-05
-3.074904344e-05
-3.117107343e-05
-3.152246998e-05
-3.179343434e-05
-3.195477905e-05
-3.2009686e-05
-3.197015693e-05
-3.187178931e-05
-3.175723885e-05
-3.152335126e-05
-3.107515739e-05
-3.042102767e-05
-2.962971906e-05
-2.868161548e-05
-2.763189134e-05
-2.637980352e-05
-2.48438979e-05
-2.310372669e-05
-2.140209068e-05
-2.012840121e-05
-2.248778422e-05
-2.482533947e-05
-2.606922976e-05
-2.706999358e-05
)


101
(
-8.268761271e-15
-5.554600303e-10
-5.700783576e-09
-2.344082298e-08
-6.168818073e-08
-1.268452603e-07
-2.247312363e-07
-3.676694839e-07
-5.682369483e-07
-8.426048472e-07
-1.2107764e-06
-1.696192857e-06
-2.321779019e-06
-3.111424092e-06
-4.088948692e-06
-5.26910786e-06
-6.65568909e-06
-8.242618454e-06
-1.001833131e-05
-1.194223208e-05
-1.397963597e-05