/*--------------------------------*- C++ -*----------------------------------*\
| =========                 |                                                 |
| \\      /  F ield         | OpenFOAM: The Open Source CFD Toolbox           |
|  \\    /   O peration     | Version:  2.3.1                                 |
|   \\  /    A nd           | Web:      www.OpenFOAM.org                      |
|    \\/     M anipulation  |                                                 |
\*---------------------------------------------------------------------------*/
FoamFile
{
    version     2.0;
    format      ascii;
    class       dictionary;
    location    "constant";
    object      GRPSI3;
}
// * * * * * * * * * * * * * * * * * * * * * * * * * * * * * * * * * * * * * //

GRPSI3_table
101
(

101
(
-0.07169705408
-0.07484529257
-0.07900173276
-0.0798029768
-0.07873393536
-0.07673288678
-0.07423066051
-0.07150816002
-0.06880410732
-0.06617273686
-0.06365714637
-0.06129677433
-0.05904909651
-0.05691802377
-0.05495815008
-0.05311173604
-0.05134016316
-0.04973601509
-0.04819047003
-0.04671614637
-0.04543169338
-0.04415843038
-0.04293379681
-0.04183486628
-0.04081334766
-0.03985250926
-0.03895478396
-0.03810500647
-0.03730243819
-0.03655196595
-0.03585121715
-0.03522964948
-0.03457275997
-0.03393066609
-0.03338871993
-0.03286510556
-0.03238517752
-0.03192534796
-0.03145171968
-0.03099134631
-0.03059701136
-0.03022344133
-0.02984477847
-0.02950756148
-0.02918137957
-0.02886459652
-0.02856220126
-0.02826964431
-0.02799107475
-0.02772504506
-0.02747566001
-0.02723359305
-0.02700384467
-0.02678699021
-0.02658108884
-0.02637145684
-0.02617881992
-0.02599825877
-0.02581901849
-0.02565155601
-0.0254889798
-0.02533746066
-0.02519104682
-0.02505062327
-0.02491673784
-0.02478956066
-0.02466965903
-0.02455289775
-0.02444247641
-0.02433895642
-0.02423925229
-0.02414268404
-0.02405295653
-0.02397232205
-0.02389797739
-0.0238241495
-0.02375160617
-0.02368726766
-0.02362904291
-0.02357494396
-0.02352183364
-0.02347306542
-0.02342960029
-0.02338962312
-0.02335469717
-0.02332281307
-0.02329388635
-0.02326797005
-0.0232445934
-0.02322501733
-0.02320901153
-0.02319467598
-0.02318281025
-0.02317366294
-0.02316668155
-0.02315637746
-0.01157448714
-1.720535674e-22
-4.899405123e-20
-1.203706215e-35
9.798810246e-20
)


101
(
-0.0709800576
-0.07409679183
-0.07821162329
-0.07900482221
-0.07794642292
-0.07596615125
-0.07348889222
-0.07079273779
-0.06811571209
-0.06551066192
-0.06302018059
-0.06068334297
-0.0584581124
-0.05634833906
-0.05440801921
-0.05258002318
-0.0508261941
-0.04923812792
-0.04770805354
-0.04624843036
-0.04497679895
-0.04371631323
-0.04250396004
-0.04141605917
-0.04040480857
-0.03945365035
-0.03856499644
-0.03772383318
-0.0369294372
-0.03618664585
-0.03549310203
-0.03487795943
-0.034227932
-0.03359260506
-0.03305642908
-0.03253845891
-0.03206376701
-0.0316090037
-0.03114063338
-0.03068547991
-0.03029569072
-0.02992646005
-0.02955226398
-0.0292190774
-0.02889685596
-0.02858395951
-0.02828529333
-0.02799639178
-0.02772138156
-0.0274587942
-0.02721265344
-0.02697376935
-0.02674709826
-0.02653319609
-0.02633012979
-0.02612343515
-0.02593354935
-0.02575562911
-0.02557906926
-0.0254141755
-0.02525417339
-0.0251051457
-0.0249612808
-0.02482331108
-0.02469187509
-0.02456723708
-0.02444985055
-0.02433570991
-0.02422800094
-0.02412710428
-0.02403013574
-0.023936683
-0.02385008142
-0.0237724876
-0.0237012918
-0.02363122532
-0.02356256803
-0.02350221119
-0.02344842235
-0.02339898134
-0.02335110202
-0.02330782547
-0.02327021701
-0.02323679007
-0.02320836155
-0.02318366139
-0.0231625599
-0.02314498395
-0.02312951122
-0.02311909253
-0.02311176958
-0.02310474885
-0.02310160583
-0.02310023972
-0.02310032203
-0.02309745873
-0.01163889263
-0.0001842449745
-0.0001886077177
-0.0001925030209
-0.0001925030209
)


101
(
-0.07026306112
-0.07334829109
-0.07742151381
-0.07820666761
-0.07715891047
-0.07519941572
-0.07274712393
-0.07007731556
-0.06742731686
-0.06484858698
-0.06238321481
-0.0600699116
-0.0578671283
-0.05577865435
-0.05385788834
-0.05204831032
-0.05031222503
-0.04874024075
-0.04722563705
-0.04578071434
-0.04452190452
-0.04327419608
-0.04207412327
-0.04099725206
-0.03999626948
-0.03905479144
-0.03817520893
-0.03734265988
-0.03655643621
-0.03582132576
-0.03513498691
-0.03452626939
-0.03388310402
-0.03325454402
-0.03272413824
-0.03221181226
-0.03174235649
-0.03129265943
-0.03082954708
-0.03037961352
-0.02999437008
-0.02962947877
-0.02925974948
-0.02893059331
-0.02861233235
-0.02830332251
-0.02800838539
-0.02772313924
-0.02745168836
-0.02719254334
-0.02694964688
-0.02671394564
-0.02649035186
-0.02627940197
-0.02607917074
-0.02587541345
-0.02568827878
-0.02551299944
-0.02533912003
-0.02517679499
-0.02501936698
-0.02487283075
-0.02473151479
-0.02459599889
-0.02446701235
-0.0243449135
-0.02423004207
-0.02411852207
-0.02401352546
-0.02391525213
-0.02382101919
-0.02373068196
-0.02364720632
-0.02357265315
-0.0235046062
-0.02343830114
-0.0233735299
-0.02331715472
-0.02326780179
-0.02322301873
-0.0231803704
-0.02314258551
-0.02311083373
-0.02308395703
-0.02306202593
-0.02304450972
-0.02303123344
-0.02302199785
-0.02301442905
-0.02301316773
-0.02301452762
-0.02301482172
-0.02302040141
-0.02302681651
-0.02303429526
-0.02303851707
-0.01170294217
-0.0003684884374
-0.0003772155268
-0.0003850086787
-0.0003850086787
)


101
(
-0.06954606465
-0.07259979035
-0.07663140434
-0.07740851301
-0.07637139802
-0.07443268019
-0.07200535564
-0.06936189333
-0.06673892163
-0.06418651204
-0.06174624902
-0.05945648024
-0.05727614419
-0.05520896964
-0.05330775747
-0.05151659746
-0.04979825597
-0.04824235358
-0.04674322056
-0.04531299833
-0.04406701009
-0.04283207893
-0.04164428649
-0.04057844495
-0.03958773038
-0.03865593254
-0.03778542141
-0.03696148659
-0.03618343522
-0.03545600566
-0.03477687179
-0.03417457934
-0.03353827604
-0.03291648299
-0.03239184739
-0.03188516562
-0.03142094597
-0.03097631517
-0.03051846079
-0.03007374713
-0.02969304944
-0.0293324975
-0.02896723498
-0.02864210922
-0.02832780874
-0.02802268551
-0.02773147746
-0.02744988671
-0.02718199517
-0.02692629249
-0.02668664031
-0.02645412194
-0.02623360545
-0.02602560785
-0.02582821169
-0.02562739176
-0.02544300821
-0.02527036978
-0.0250991708
-0.02493941448
-0.02478456057
-0.0246405158
-0.02450174877
-0.0243686867
-0.0242421496
-0.02412258992
-0.02401023358
-0.02390133422
-0.02379904998
-0.02370339998
-0.02361190263
-0.02352468093
-0.02344433121
-0.0233728187
-0.0233079206
-0.02324537697
-0.02318449176
-0.02313209825
-0.02308718123
-0.02304705611
-0.02300963878
-0.02297734555
-0.02295145045
-0.02293112398
-0.02291569031
-0.02290535804
-0.02289990699
-0.02289901176
-0.02289934687
-0.02290724294
-0.02291728567
-0.02292489459
-0.02293919699
-0.0229533933
-0.02296848353
-0.02297956984
-0.01176676702
-0.0005527243063
-0.0005658266896
-0.0005775280966
-0.0005775280966
)


101
(
-0.06882906817
-0.07185128961
-0.07584129487
-0.07661035841
-0.07558388558
-0.07366594467
-0.07126358734
-0.0686464711
-0.0660505264
-0.0635244371
-0.06110928324
-0.05884304887
-0.05668516008
-0.05463928493
-0.05275762659
-0.05098488461
-0.0492842869
-0.04774446641
-0.04626080407
-0.04484528231
-0.04361211566
-0.04238996178
-0.04121444972
-0.04015963783
-0.03917919129
-0.03825707363
-0.03739563389
-0.03658031329
-0.03581043423
-0.03509068556
-0.03441875667
-0.03382288929
-0.03319344806
-0.03257842196
-0.03205955654
-0.03155851897
-0.03109953545
-0.03065997091
-0.03020737449
-0.02976788074
-0.0293917288
-0.02903551622
-0.02867472048
-0.02835362513
-0.02804328513
-0.0277420485
-0.02745456953
-0.02717663417
-0.02691230197
-0.02666004163
-0.02642363374
-0.02619429823
-0.02597685904
-0.02577181373
-0.02557725265
-0.02537937007
-0.02519773764
-0.02502774012
-0.02485922156
-0.02470203397
-0.02454975416
-0.02440820084
-0.02427198275
-0.02414137451
-0.02401728685
-0.02390026634
-0.0237904251
-0.02368414638
-0.02358457451
-0.02349154783
-0.02340278608
-0.02331867989
-0.02324145611
-0.02317298425
-0.023111235
-0.02305245279
-0.02299545362
-0.02294704178
-0.02290656067
-0.02287109349
-0.02283890716
-0.0228121056
-0.02279206717
-0.02277829093
-0.02276935469
-0.02276620636
-0.02276858054
-0.02277602566
-0.02278426469
-0.02280131814
-0.02282004371
-0.02283496746
-0.02285799257
-0.02287997008
-0.02290276754
-0.02292062157
-0.01183050597
-0.0007369808317
-0.0007544395959
-0.0007700314409
-0.0007700314409
)


101
(
-0.06811207155
-0.07110278873
-0.07505118525
-0.07581220366
-0.07479637298
-0.07289920899
-0.07052181892
-0.06793104874
-0.06536213105
-0.06286236204
-0.06047231735
-0.05822961739
-0.05609417586
-0.05406960011
-0.05220749562
-0.05045317165
-0.04877031774
-0.04724657915
-0.04577838749
-0.04437756621
-0.04315722114
-0.04194784454
-0.04078461287
-0.03974083065
-0.03877065212
-0.03785821465
-0.0370058463
-0.03619913993
-0.03543743317
-0.0347253654
-0.03406064148
-0.03347119917
-0.03284862002
-0.03224036086
-0.03172726563
-0.03123187226
-0.03077812487
-0.03034362659
-0.02989628813
-0.02946201429
-0.02909040811
-0.02873853489
-0.02838220593
-0.02806514099
-0.02775876147
-0.02746141145
-0.02717766154
-0.02690338159
-0.02664260872
-0.02639379072
-0.02616062712
-0.02593447448
-0.02572011258
-0.02551801956
-0.02532629355
-0.02513134833
-0.02495246702
-0.02478511041
-0.02461927229
-0.02446465342
-0.02431494771
-0.02417588584
-0.0240422167
-0.02391406228
-0.02379242406
-0.02367794271
-0.02357061658
-0.0234669585
-0.02337009899
-0.02327969564
-0.02319366949
-0.02311267881
-0.02303858097
-0.02297314977
-0.02291454937
-0.02285952858
-0.02280641545
-0.02276198528
-0.02272594007
-0.02269513084
-0.02266817551
-0.02264686561
-0.02263268386
-0.02262545785
-0.02262301904
-0.02262705466
-0.02263725406
-0.02265303954
-0.0226691825
-0.02269539332
-0.02272280174
-0.02274504031
-0.02277678814
-0.02280654685
-0.02283704789
-0.02286166652
-0.01189426161
-0.0009212751539
-0.0009430596119
-0.0009625130372
-0.0009625130372
)


101
(
-0.06739507521
-0.07035428813
-0.07426107592
-0.07501404921
-0.07400886068
-0.07213247361
-0.06978005076
-0.06721562664
-0.06467373595
-0.06220028723
-0.05983535168
-0.05761618614
-0.05550319186
-0.05349991551
-0.05165736485
-0.04992145889
-0.04825634877
-0.04674869207
-0.04529597109
-0.04390985028
-0.0427023268
-0.04150572747
-0.04035477618
-0.03932202361
-0.0383621131
-0.03745935581
-0.03661605886
-0.0358179667
-0.03506443225
-0.03436004537
-0.03370252642
-0.03311950919
-0.03250379211
-0.03190229989
-0.03139497485
-0.03090522567
-0.03045671441
-0.03002728239
-0.02958520189
-0.02915614796
-0.02878908752
-0.02844155367
-0.02808969149
-0.02777665696
-0.02747423792
-0.0271807745
-0.02690075366
-0.0266301291
-0.02637291558
-0.02612753991
-0.02589762061
-0.02567465083
-0.02546336622
-0.02526422549
-0.02507533455
-0.02488332669
-0.0247071965
-0.02454248079
-0.0243793231
-0.02422727295
-0.02408014134
-0.02394357093
-0.02381245072
-0.02368675013
-0.02356756135
-0.02345561918
-0.02335080814
-0.0232497707
-0.02315562356
-0.02306784353
-0.02298455297
-0.02290667782
-0.0228357059
-0.02277331536
-0.02271786381
-0.02266660443
-0.02261737735
-0.02257692884
-0.02254531955
-0.02251916826
-0.02249744392
-0.02248162569
-0.02247330061
-0.02247262483
-0.02247668344
-0.02248790301
-0.02250592763
-0.02253005347
-0.02255410034
-0.02258946854
-0.02262555981
-0.0226551132
-0.02269558373
-0.02273312365
-0.02277137505
-0.02280271265
-0.01195794548
-0.001105519899
-0.001131676976
-0.001155036173
-0.001155036173
)


101
(
-0.0666780786
-0.06960578725
-0.0734709663
-0.07421589446
-0.07322134809
-0.07136573794
-0.06903828233
-0.06650020428
-0.06398534059
-0.06153821217
-0.05919838578
-0.05700275466
-0.05491220764
-0.05293023069
-0.05110723388
-0.04938974593
-0.04774237961
-0.04625080481
-0.04481355451
-0.04344213418
-0.04224743228
-0.04106361024
-0.03992493933
-0.03890321642
-0.03795357393
-0.03706049683
-0.03622627127
-0.03543679334
-0.03469143119
-0.03399472521
-0.03334441124
-0.03276781908
-0.03215896407
-0.03156423879
-0.03106268394
-0.03057857896
-0.03013530383
-0.02971093807
-0.02927411554
-0.02885028151
-0.02848776683
-0.02814457234
-0.02779717693
-0.02748817282
-0.02718971425
-0.02690013744
-0.02662384568
-0.02635687651
-0.02610322233
-0.02586128901
-0.02563461399
-0.02541482708
-0.02520661976
-0.02501043133
-0.02482437546
-0.02463530495
-0.02446192588
-0.02429985108
-0.02413937382
-0.0239898924
-0.02384533489
-0.02371125594
-0.02358268466
-0.0234594379
-0.02334269856
-0.02323329555
-0.02313099961
-0.02303258281
-0.02294114804
-0.02285599134
-0.02277543638
-0.02270067674
-0.02263283076
-0.02257348087
-0.02252117817
-0.02247368022
-0.02242833918
-0.02239187234
-0.02236469895
-0.02234320561
-0.02232671227
-0.0223163857
-0.0223139173
-0.02231979175
-0.02233034779
-0.02234875131
-0.02237460116
-0.02240706735
-0.02243901814
-0.02248354372
-0.02252831783
-0.02256518605
-0.0226143793
-0.02265970042
-0.02270606867
-0.02274382519
-0.01202131232
-0.001289731581
-0.001320254089
-0.001347511014
-0.001347511014
)


101
(
-0.06596108225
-0.06885728665
-0.07268085698
-0.07341774001
-0.07243383579
-0.07059900255
-0.06829651418
-0.06578478218
-0.06329694549
-0.06087613735
-0.05856142012
-0.05638932341
-0.05432122364
-0.05236054609
-0.05055710311
-0.04885803318
-0.04722841065
-0.04575291773
-0.04433113811
-0.04297441825
-0.04179253794
-0.04062149317
-0.03949510264
-0.03848440939
-0.03754503491
-0.036661638
-0.03583648382
-0.03505562011
-0.03431843027
-0.03362940518
-0.03298629618
-0.0324161291
-0.03181413615
-0.03122617782
-0.03073039315
-0.03025193238
-0.02981389338
-0.02939459387
-0.0289630293
-0.02854441517
-0.02818644625
-0.02784759112
-0.02750466249
-0.02719968878
-0.0269051907
-0.02661950049
-0.0263469378
-0.02608362403
-0.02583352918
-0.0255950382
-0.02537160747
-0.02515500342
-0.0249498734
-0.02475663726
-0.02457341646
-0.0243872833
-0.02421665535
-0.02405722146
-0.02389942464
-0.02375251193
-0.02361052852
-0.02347894103
-0.02335291869
-0.02323212575
-0.02311783586
-0.02301097202
-0.02291119117
-0.02281539501
-0.0227266726
-0.02264413923
-0.02256631986
-0.02249467574
-0.0224299557
-0.02237364646
-0.02232449261
-0.02228075608
-0.02223930107
-0.0222068159
-0.02218407843
-0.02216724302
-0.02215598069
-0.02215114578
-0.02215453405
-0.02216695873
-0.0221840122
-0.02220959966
-0.02224327473
-0.02228408127
-0.02232393599
-0.02237761895
-0.0224310759
-0.02247525894
-0.02253317489
-0.02258627722
-0.02264051063
-0.02268489888
-0.01208490926
-0.001473977395
-0.001508864099
-0.001540017938
-0.001540017938
)


101
(
-0.06524408537
-0.0681087855
-0.07189074706
-0.07261958497
-0.07164632291
-0.06983226659
-0.06755474548
-0.06506935955
-0.06260854988
-0.06021406205
-0.05792445399
-0.0557758917
-0.0537302392
-0.05179086106
-0.05000697193
-0.04832632002
-0.04671444129
-0.04525503028
-0.04384872135
-0.04250670197
-0.04133764325
-0.04017937577
-0.03906526562
-0.03806560205
-0.03713649559
-0.03626277887
-0.03544669609
-0.0346744466
-0.03394542907
-0.03326408488
-0.03262818086
-0.03206443885
-0.03146930798
-0.0308881166
-0.03039810212
-0.02992528555
-0.02949248268
-0.02907824943
-0.02865194283
-0.02823854861
-0.02788512544
-0.02755060967
-0.02721214783
-0.02691120454
-0.02662066693
-0.02633886333
-0.02607002971
-0.02581037134
-0.02556383584
-0.0253287872
-0.02510860076
-0.02489517957
-0.02469312685
-0.02450284299
-0.02432245727
-0.02413926147
-0.02397138465
-0.02381459167
-0.02365947527
-0.02351513129
-0.02337572198
-0.02324662594
-0.02312315255
-0.02300481343
-0.02289297298
-0.02278864831
-0.02269138257
-0.02259820705
-0.02251219701
-0.02243228697
-0.02235720319
-0.02228867459
-0.02222708048
-0.0221738119
-0.0221278069
-0.02208783179
-0.02205026283
-0.02202175933
-0.02200345777
-0.02199128031
-0.02198524897
-0.02198590573
-0.02199515068
-0.0220141256
-0.02203767649
-0.0220704479
-0.0221119482
-0.02216109511
-0.02220885375
-0.02227169409
-0.02233383389
-0.02238533176
-0.02245197043
-0.02251285397
-0.02257491414
-0.02262596548
-0.01214854712
-0.00165824197
-0.001697484204
-0.0017325267
-0.0017325267
)


101
(
-0.06452708903
-0.06736028489
-0.07110063774
-0.07182143052
-0.07085881061
-0.06906553121
-0.06681297732
-0.06435393745
-0.06192015478
-0.05955198723
-0.05728748832
-0.05516246045
-0.0531392552
-0.05122117646
-0.04945684116
-0.04779460726
-0.04620047233
-0.04475714321
-0.04336630495
-0.04203898604
-0.04088274891
-0.0397372587
-0.03863542893
-0.03764679501
-0.03672795657
-0.03586392003
-0.03505690864
-0.03429327338
-0.03357242815
-0.03289876485
-0.03227006581
-0.03171274887
-0.03112448007
-0.03055005563
-0.03006581133
-0.02959863896
-0.02917107222
-0.02876190523
-0.02834085659
-0.02793268227
-0.02758380486
-0.02725362845
-0.02691963338
-0.0266227205
-0.02633614338
-0.02605822638
-0.02579312183
-0.02553711886
-0.02529414269
-0.02506253639
-0.02484559424
-0.02463535592
-0.02443638049
-0.02424904892
-0.02407149827
-0.02389123983
-0.02372611412
-0.02357196205
-0.02341952609
-0.02327775082
-0.02314091561
-0.02301431103
-0.02289338657
-0.02277750128
-0.02266811028
-0.02256632477
-0.02247157412
-0.02238101925
-0.02229772157
-0.02222043486
-0.02214808668
-0.02208267359
-0.02202420541
-0.02197397749
-0.02193112134
-0.02189490765
-0.02186122473
-0.0218367029
-0.02182283724
-0.02181531772
-0.02181451738
-0.0218206658
-0.02183576743
-0.02186129258
-0.0218913409
-0.02193129625
-0.02198062177
-0.02203810903
-0.02209377159
-0.02216576931
-0.02223659195
-0.02229540465
-0.02237076603
-0.02243943076
-0.02250941062
-0.02256705814
-0.01221211544
-0.001842503094
-0.001886108687
-0.001925045825
-0.001925045825
)


101
(
-0.06381009268
-0.06661178429
-0.07031052841
-0.07102327607
-0.07007129831
-0.06829879582
-0.06607120917
-0.06363851535
-0.06123175968
-0.05888991242
-0.05665052266
-0.0545490292
-0.05254827121
-0.05065149186
-0.04890671039
-0.0472628945
-0.04568650336
-0.04425925613
-0.04288388855
-0.04157127011
-0.04042785456
-0.03929514163
-0.03820559224
-0.03722798798
-0.03631941756
-0.0354650612
-0.0346671212
-0.03391210016
-0.03319942723
-0.03253344482
-0.03191195076
-0.03136105889
-0.03077965216
-0.03021199466
-0.02973352055
-0.02927199237
-0.02884966176
-0.02844556103
-0.02802977035
-0.02762681594
-0.02728248427
-0.02695664723
-0.02662711894
-0.02633423647
-0.02605161982
-0.02577758943
-0.02551621395
-0.02526386637
-0.02502444954
-0.02479628558
-0.02458258772
-0.02437553226
-0.02417963413
-0.02399525485
-0.02382053927
-0.02364321818
-0.0234808436
-0.02332933243
-0.0231795769
-0.02304037036
-0.02290610925
-0.02278199612
-0.0226636206
-0.02255018913
-0.02244324757
-0.02234400123
-0.02225176568
-0.02216383144
-0.02208324614
-0.02200858275
-0.02193897016
-0.02187667259
-0.02182133035
-0.02177414308
-0.02173443578
-0.02170198351
-0.02167218663
-0.02165164646
-0.02164221671
-0.02163935514
-0.0216437858
-0.02165542588
-0.02167638418
-0.02170845956
-0.0217450053
-0.0217921446
-0.02184929535
-0.02191512296
-0.02197868944
-0.02205984453
-0.02213935001
-0.02220547753
-0.02228956162
-0.02236600756
-0.022443943
-0.02250816736
-0.01227565964
-0.002026753688
-0.00207471051
-0.002117531108
-0.002117531108
)


101
(
-0.06309309634
-0.06586328369
-0.06952041909
-0.07022512162
-0.06928378601
-0.06753206044
-0.06532944102
-0.06292309325
-0.06054336458
-0.0582278376
-0.056013557
-0.05393559795
-0.05195728721
-0.05008180725
-0.04835657962
-0.04673118175
-0.04517253439
-0.04376136905
-0.04240147216
-0.04110355419
-0.03997296022
-0.03885302456
-0.03777575555
-0.03680918095
-0.03591087854
-0.03506620237
-0.03427733376
-0.03353092693
-0.0328264263
-0.0321681248
-0.0315538357
-0.0310093689
-0.03043482424
-0.02987393369
-0.02940122976
-0.02894534579
-0.0285282513
-0.02812921683
-0.02771868411
-0.0273209496
-0.02698116369
-0.02665966601
-0.0263346045
-0.02604575244
-0.02576709626
-0.02549695248
-0.02523930607
-0.02499061389
-0.0247547564
-0.02453003477
-0.0243195812
-0.02411570861
-0.02392288777
-0.02374146078
-0.02356958027
-0.02339519653
-0.02323557307
-0.02308670281
-0.02293962771
-0.02280298989
-0.02267130288
-0.02254968121
-0.02243385463
-0.02232287699
-0.02221838486
-0.02212167769
-0.02203195724
-0.02194664364
-0.0218687707
-0.02179673064
-0.02172985365
-0.0216706716
-0.02161845528
-0.02157430867
-0.02153775022
-0.02150905937
-0.02148314853
-0.02146659003
-0.02146159619
-0.02146339255
-0.02147305421
-0.02149018596
-0.02151700092
-0.02155562654
-0.02159866971
-0.02165299295
-0.02171796892
-0.02179213689
-0.02186360728
-0.02195391975
-0.02204210808
-0.02211555042
-0.02220835722
-0.02229258436
-0.02237838448
-0.02244925397
-0.01233926844
-0.002210997629
-0.002263325634
-0.00231004891
-0.00231004891
)


101
(
-0.06237609999
-0.06511478309
-0.06873030976
-0.06942696717
-0.06849627371
-0.06676532505
-0.06458767287
-0.06220767116
-0.05985496948
-0.05756576279
-0.05537659134
-0.0533221667
-0.05136630321
-0.04951212265
-0.04780644885
-0.04619946899
-0.04465856542
-0.04326348197
-0.04191905576
-0.04063583826
-0.03951806587
-0.03841090749
-0.03734591886
-0.03639037391
-0.03550233952
-0.03466734353
-0.03388754631
-0.03314975371
-0.03245342538
-0.03180280477
-0.03119572065
-0.03065767892
-0.03008999633
-0.02953587272
-0.02906893898
-0.0286186992
-0.02820684084
-0.02781287263
-0.02740759787
-0.02701508327
-0.02667984311
-0.02636268479
-0.02604209005
-0.0257572684
-0.02548257271
-0.02521631553
-0.02496239818
-0.02471736141
-0.02448506325
-0.02426378397
-0.02405657468
-0.02385588495
-0.02366614141
-0.02348766671
-0.02331862127
-0.02314717489
-0.02299030255
-0.0228440732
-0.02269967852
-0.02256560943
-0.02243649651
-0.0223173663
-0.02220408865
-0.02209556484
-0.02199352216
-0.02189935416
-0.0218121488
-0.02172945584
-0.02165429526
-0.02158487853
-0.02152073713
-0.0214646706
-0.02141558022
-0.02137447426
-0.02134106466
-0.02131613523
-0.02129411043
-0.02128153359
-0.02128097566
-0.02128742997
-0.02130232262
-0.02132494603
-0.02135761767
-0.02140279352
-0.02145233411
-0.0215138413
-0.02158664249
-0.02166915081
-0.02174852513
-0.02184799497
-0.02194486614
-0.02202562331
-0.02212715281
-0.02221916116
-0.02231285904
-0.02239035511
-0.01240287795
-0.002395276949
-0.002451924088
-0.002502501155
-0.002502501154
)


101
(
-0.06165910312
-0.06436628194
-0.06794019985
-0.06862881212
-0.06770876082
-0.06599858909
-0.06384590416
-0.06149224853
-0.05916657387
-0.05690368748
-0.0547396252
-0.052708735
-0.05077531877
-0.04894243762
-0.04725631767
-0.04566775583
-0.04414459607
-0.04276559453
-0.041436639
-0.04016812198
-0.03906317119
-0.03796879009
-0.03691608184
-0.03597156657
-0.0350938002
-0.0342684844
-0.03349775858
-0.0327685802
-0.03208042418
-0.03143748447
-0.03083760533
-0.03030598867
-0.02974516816
-0.0291978115
-0.02873664795
-0.02829205237
-0.02788543014
-0.02749652819
-0.0270965114
-0.02670921671
-0.0263785223
-0.02606570335
-0.02574957539
-0.02546878415
-0.02519804894
-0.02493567837
-0.0246854901
-0.02444410872
-0.02421536991
-0.02399753296
-0.02379356797
-0.0235960611
-0.02340939485
-0.02323387245
-0.02306766208
-0.02289915306
-0.02274503184
-0.0226014434
-0.02245972916
-0.02232822878
-0.02220168997
-0.02208505121
-0.02197432251
-0.02186825252
-0.02176865928
-0.02167703045
-0.0215923402
-0.02151226788
-0.02143981967
-0.02137302626
-0.02131162046
-0.02125866945
-0.021212705
-0.0211746397
-0.02114437895
-0.02112321094
-0.02110507218
-0.02109647702
-0.021100355
-0.02111146725
-0.02113159091
-0.02115970598
-0.0211982343
-0.02124996039
-0.02130599841
-0.02137468954
-0.02145531596
-0.02154616465
-0.02163344289
-0.02174207012
-0.02184762413
-0.02193569613
-0.02204594835
-0.02214573791
-0.02224734916
-0.02233146678
-0.01246646675
-0.00257952805
-0.002640531855
-0.002694997131
-0.002694997131
)


101
(
-0.06094210624
-0.06361778078
-0.06715008993
-0.06783065708
-0.06692124794
-0.06523185314
-0.06310413546
-0.0607768259
-0.05847817826
-0.05624161217
-0.05410265907
-0.05209530329
-0.05018433433
-0.04837275259
-0.04670618649
-0.04513604268
-0.04363062672
-0.04226770708
-0.04095422224
-0.0397004057
-0.0386082765
-0.03752667269
-0.03648624483
-0.03555275922
-0.03468526088
-0.03386962527
-0.03310797084
-0.03238740669
-0.03170742298
-0.03107216417
-0.03047949001
-0.02995429843
-0.02940033999
-0.02885975028
-0.02840435691
-0.02796540554
-0.02756401945
-0.02718018375
-0.02678542493
-0.02640335014
-0.02607720149
-0.0257687219
-0.02545706073
-0.0251802999
-0.02491352517
-0.02465504121
-0.02440858201
-0.02417085603
-0.02394567656
-0.02373128196
-0.02353056125
-0.02333623725
-0.0231526483
-0.02298007819
-0.0228167029
-0.02265113123
-0.02249976113
-0.0223588136
-0.02221977979
-0.02209084814
-0.02196688343
-0.02185273613
-0.02174455637
-0.0216409402
-0.02154379641
-0.02145470675
-0.02137253159
-0.02129507991
-0.02122534407
-0.021161174
-0.02110250379
-0.0210526683
-0.02100982978
-0.02097480514
-0.02094769324
-0.02093028665
-0.02091603394
-0.02091142045
-0.02091973434
-0.02093550454
-0.02096085919
-0.02099446594
-0.02103885094
-0.02109712725
-0.02115966271
-0.02123553779
-0.02132398944
-0.02142317848
-0.02151836065
-0.02163614526
-0.02175038212
-0.02184576895
-0.02196474389
-0.02207231465
-0.02218196291
-0.02227263576
-0.01252995146
-0.002763708522
-0.002829120512
-0.00288752066
-0.00288752066
)


101
(
-0.06022511043
-0.06286928074
-0.0663599812
-0.06703250322
-0.06613373622
-0.06446511832
-0.06236236786
-0.06006140433
-0.05778978367
-0.05557953785
-0.05346569388
-0.05148187249
-0.04959335077
-0.04780306842
-0.04615605613
-0.04460433031
-0.04311665813
-0.04176982037
-0.0404718062
-0.03923269012
-0.03815338249
-0.03708455595
-0.03605640846
-0.0351339525
-0.03427672216
-0.03347076673
-0.03271818369
-0.03200623375
-0.03133442234
-0.03070684441
-0.03012137522
-0.02960260871
-0.02905551233
-0.02852168956
-0.02807206637
-0.02763875919
-0.02724260923
-0.02686383978
-0.02647433892
-0.02609748404
-0.02577588114
-0.0254717409
-0.0251645465
-0.02489181609
-0.02462900183
-0.02437440446
-0.02413167434
-0.02389760375
-0.02367598361
-0.02346503135
-0.02326755493
-0.02307641379
-0.02289590213
-0.0227262843
-0.02256574408
-0.02240310976
-0.02225449079
-0.02211618416
-0.02197983078
-0.02185346785
-0.02173207724
-0.02162042139
-0.02151479056
-0.02141362823
-0.02131893387
-0.02123238338
-0.02115272331
-0.02107789227
-0.02101086879
-0.02094932205
-0.02089338743
-0.02084666745
-0.02080695487
-0.02077497087
-0.02075100782
-0.02073736266
-0.02072699598
-0.02072636415
-0.02073911395
-0.02075954208
-0.02079012773
-0.02082922613
-0.0208794678
-0.02094429435
-0.02101332722
-0.02109638624
-0.02119266311
-0.0213001925
-0.02140327858
-0.02153022056
-0.02165314026
-0.0217558419
-0.02188353954
-0.0219988915
-0.02211641701
-0.02221374576
-0.01259358499
-0.002947978195
-0.003017719524
-0.00307998263
-0.00307998263
)


101
(
-0.05950811355
-0.06212077958
-0.06556987128
-0.06623434818
-0.06534622334
-0.06369838237
-0.06162059915
-0.0593459817
-0.05710138806
-0.05491746255
-0.05282872774
-0.05086844079
-0.04900236633
-0.04723338339
-0.04560592495
-0.04407261716
-0.04260268878
-0.04127193292
-0.03998938944
-0.03876497385
-0.03769848781
-0.03664243855
-0.03562657145
-0.03471514516
-0.03386818284
-0.0330719076
-0.03232839595
-0.03162506025
-0.03096142114
-0.03034152411
-0.0297632599
-0.02925091846
-0.02871068416
-0.02818362834
-0.02773977534
-0.02731211236
-0.02692119853
-0.02654749535
-0.02616325245
-0.02579161748
-0.02547456033
-0.02517475946
-0.02487203184
-0.02460333184
-0.02434447806
-0.0240937673
-0.02385476625
-0.02362435106
-0.02340629027
-0.02319878034
-0.02300454821
-0.02281658994
-0.02263915558
-0.02247249004
-0.02231478489
-0.02215508793
-0.02200922008
-0.02187355436
-0.02173988142
-0.02161608721
-0.0214972707
-0.02138810631
-0.02128502442
-0.02118631591
-0.021094071
-0.02101005967
-0.02093291471
-0.02086070431
-0.0207963932
-0.02073746978
-0.02068427076
-0.0206406663
-0.02060407965
-0.02057513631
-0.02055432212
-0.02054443837
-0.02053795774
-0.02054130758
-0.02055849329
-0.02058357937
-0.02061939602
-0.02066398609
-0.02072008443
-0.02079146121
-0.02086699152
-0.02095723449
-0.02106133658
-0.02117720633
-0.02128819634
-0.0214242957
-0.02155589825
-0.02166591472
-0.02180233508
-0.02192546825
-0.02205091095
-0.02215487818
-0.01265721278
-0.003132269917
-0.003206307515
-0.003272401953
-0.003272401953
)


101
(
-0.05879111667
-0.06137227842
-0.06477976137
-0.06543619313
-0.06455871045
-0.06293164641
-0.06087883045
-0.05863055907
-0.05641299245
-0.05425538724
-0.05219176161
-0.05025500908
-0.04841138189
-0.04666369836
-0.04505579377
-0.043540904
-0.04208871943
-0.04077404548
-0.03950697268
-0.03829725757
-0.03724359313
-0.03620032115
-0.03519673444
-0.03429633781
-0.03345964352
-0.03267304847
-0.03193860822
-0.03124388674
-0.03058841994
-0.02997620381
-0.02940514458
-0.02889922822
-0.02836585599
-0.02784556711
-0.02740748431
-0.02698546553
-0.02659978783
-0.02623115091
-0.02585216598
-0.02548575091
-0.02517323952
-0.02487777802
-0.02457951718
-0.02431484759
-0.0240599543
-0.02381313014
-0.02357785816
-0.02335109837
-0.02313659692
-0.02293252933
-0.0227415415
-0.02255676609
-0.02238240903
-0.02221869578
-0.02206382571
-0.0219070661
-0.02176394938
-0.02163092456
-0.02149993205
-0.02137870657
-0.02126246416
-0.02115579122
-0.02105525828
-0.02095900359
-0.02086920812
-0.02078773597
-0.0207131061
-0.02064351634
-0.0205819176
-0.02052561751
-0.02047515409
-0.02043466515
-0.02040120443
-0.02037530175
-0.02035763641
-0.02035151409
-0.0203489195
-0.02035625101
-0.02037787263
-0.02040761665
-0.0204486643
-0.02049874604
-0.02056070106
-0.02063862808
-0.02072065581
-0.02081808273
-0.02093001005
-0.02105422017
-0.0211731141
-0.02131837085
-0.02145865624
-0.02157598754
-0.02172113061
-0.02185204499
-0.02198533076
-0.02209597874
-0.01272087786
-0.003316552898
-0.0033949165
-0.003464870774
-0.003464870774
)


101
(
-0.05807412086
-0.06062377838
-0.06398965263
-0.06463803928
-0.06377119874
-0.0621649116
-0.06013706285
-0.05791513751
-0.05572459786
-0.05359331292
-0.05155479642
-0.04964157829
-0.04782039833
-0.04609401418
-0.04450566342
-0.04300919164
-0.04157475084
-0.04027615877
-0.03902455664
-0.03782954199
-0.03678869912
-0.03575820441