/*--------------------------------*- C++ -*----------------------------------*\
| =========                 |                                                 |
| \\      /  F ield         | OpenFOAM: The Open Source CFD Toolbox           |
|  \\    /   O peration     | Version:  2.3.1                                 |
|   \\  /    A nd           | Web:      www.OpenFOAM.org                      |
|    \\/     M anipulation  |                                                 |
\*---------------------------------------------------------------------------*/
FoamFile
{
    version     2.0;
    format      ascii;
    class       dictionary;
    location    "constant";
    object      GRPSI17;
}
// * * * * * * * * * * * * * * * * * * * * * * * * * * * * * * * * * * * * * //

GRPSI17_table
101
(

101
(
1.429647119e-08
1.150851393e-07
5.090468291e-07
1.288426573e-06
2.417812823e-06
3.847034864e-06
5.690754446e-06
8.053236811e-06
1.101620593e-05
1.473095635e-05
1.930764031e-05
2.47155487e-05
3.104622932e-05
3.810635887e-05
4.540990881e-05
5.272848705e-05
5.972292759e-05
6.559415445e-05
7.019659705e-05
7.322848162e-05
7.424210031e-05
7.335738086e-05
7.056922195e-05
6.622911463e-05
6.067799075e-05
5.428812203e-05
4.748903679e-05
4.054807068e-05
3.379863126e-05
2.752350258e-05
2.185157778e-05
1.704206451e-05
1.233237185e-05
8.092489715e-06
4.770383119e-06
7.094272457e-07
-3.159201178e-06
-2.034817025e-06
-6.07948255e-09
-9.395729381e-07
-1.583159949e-06
-2.056822047e-06
-2.429107241e-06
-2.679576057e-06
-2.874745451e-06
-3.040814435e-06
-3.184406039e-06
-3.319604542e-06
-3.456838291e-06
-3.61652242e-06
-3.808314447e-06
-4.037732764e-06
-4.311176942e-06
-4.63998692e-06
-5.023715294e-06
-5.4906796e-06
-5.992310866e-06
-6.553550525e-06
-7.189322157e-06
-7.869521953e-06
-8.662955026e-06
-9.497363933e-06
-1.037234081e-05
-1.133918462e-05
-1.238548734e-05
-1.346793733e-05
-1.455926846e-05
-1.575063032e-05
-1.702081917e-05
-1.833707957e-05
-1.976555703e-05
-2.136644525e-05
-2.319824475e-05
-2.680241837e-05
-2.854468324e-05
-2.617887193e-05
-2.54151014e-05
-2.682628703e-05
-2.820143407e-05
-2.968390011e-05
-3.144042471e-05
-3.351471237e-05
-3.702944044e-05
-3.725691514e-05
-3.484864042e-05
-3.535923402e-05
-3.69001495e-05
-3.878240789e-05
-4.263169163e-05
-4.263744595e-05
-4.07424967e-05
-4.36420744e-05
-4.554895122e-05
-4.696668189e-05
-4.726667305e-05
-4.650915125e-05
-2.350284946e-05
-6.448594559e-13
-9.69597894e-23
-7.608358376e-25
1.939195788e-22
)


101
(
1.297814696e-08
1.101671688e-07
4.911948219e-07
1.245755117e-06
2.338397272e-06
3.718209067e-06
5.488501473e-06
7.749063576e-06
1.057574184e-05
1.410954241e-05
1.845754318e-05
2.36038416e-05
2.962186371e-05
3.636678049e-05
4.341216635e-05
5.051015305e-05
5.735372054e-05
6.328538202e-05
6.801647926e-05
7.132704396e-05
7.283809391e-05
7.247020293e-05
7.028855503e-05
6.657283478e-05
6.158818773e-05
5.568035852e-05
4.924635843e-05
4.257387333e-05
3.596849206e-05
2.971603784e-05
2.398481066e-05
1.89969222e-05
1.433338587e-05
1.003584611e-05
6.447577497e-06
2.703772256e-06
-1.062590428e-06
-1.971314351e-06
-8.560166774e-07
-7.238823174e-07
-1.164868264e-06
-1.653571028e-06
-2.091057847e-06
-2.432940912e-06
-2.689941549e-06
-2.888451823e-06
-3.047112398e-06
-3.186196197e-06
-3.320493085e-06
-3.464982284e-06
-3.631717058e-06
-3.827031739e-06
-4.052567408e-06
-4.323391976e-06
-4.656745615e-06
-5.060707316e-06
-5.517163583e-06
-6.021558501e-06
-6.585554575e-06
-7.202363406e-06
-7.895045956e-06
-8.654589499e-06
-9.458810778e-06
-1.03256086e-05
-1.128152061e-05
-1.229976064e-05
-1.33380362e-05
-1.442162562e-05
-1.558348807e-05
-1.681017408e-05
-1.808976091e-05
-1.945550277e-05
-2.09695563e-05
-2.330827194e-05
-2.5716154e-05
-2.631281293e-05
-2.584500983e-05
-2.584879033e-05
-2.655537606e-05
-2.779135654e-05
-2.931362156e-05
-3.09972387e-05
-3.34044255e-05
-3.552607546e-05
-3.56202822e-05
-3.492513763e-05
-3.526895244e-05
-3.660510593e-05
-3.881947393e-05
-4.110664364e-05
-4.141892987e-05
-4.14072231e-05
-4.337831751e-05
-4.520033934e-05
-4.610213758e-05
-4.585108292e-05
-2.290954071e-05
-6.85757747e-07
-3.916359925e-07
-1.223796042e-07
-1.154733232e-07
)


101
(
1.171229236e-08
1.053891601e-07
4.737765205e-07
1.204092708e-06
2.260940529e-06
3.59284486e-06
5.292475381e-06
7.455020735e-06
1.015091795e-05
1.351124102e-05
1.763963005e-05
2.253264789e-05
2.824931216e-05
3.46833845e-05
4.146507987e-05
4.833678594e-05
5.501591242e-05
6.096232691e-05
6.579945494e-05
6.934421872e-05
7.128810182e-05
7.141238006e-05
6.979881146e-05
6.668418139e-05
6.226579341e-05
5.685258888e-05
5.081047316e-05
4.443141728e-05
3.800629732e-05
3.181527203e-05
2.605207666e-05
2.092774075e-05
1.622665028e-05
1.18953661e-05
8.134117698e-06
4.468603967e-06
8.057808352e-07
-1.21469729e-06
-1.238793009e-06
-9.637641724e-07
-1.071645633e-06
-1.429402417e-06
-1.867310512e-06
-2.272830543e-06
-2.604347445e-06
-2.86186453e-06
-3.05607137e-06
-3.212457636e-06
-3.353295807e-06
-3.493878537e-06
-3.647199864e-06
-3.82279373e-06
-4.026725652e-06
-4.263787675e-06
-4.547121239e-06
-4.887558474e-06
-5.287263199e-06
-5.739893383e-06
-6.242876594e-06
-6.798400221e-06
-7.414191999e-06
-8.091966298e-06
-8.829078234e-06
-9.630957448e-06
-1.050369715e-05
-1.143381828e-05
-1.240278298e-05
-1.341606333e-05
-1.448559152e-05
-1.56207347e-05
-1.680228713e-05
-1.80330742e-05
-1.932636355e-05
-2.097856266e-05
-2.305471724e-05
-2.474831054e-05
-2.54955866e-05
-2.558690184e-05
-2.568905198e-05
-2.636128065e-05
-2.761033212e-05
-2.908923982e-05
-3.082881436e-05
-3.290915913e-05
-3.455383023e-05
-3.487313471e-05
-3.458593196e-05
-3.516752852e-05
-3.675674537e-05
-3.869092217e-05
-4.045383866e-05
-4.09905988e-05
-4.167077186e-05
-4.39400135e-05
-4.495613943e-05
-4.361948329e-05
-2.260489473e-05
-2.566157417e-06
-2.28475893e-06
-2.033643045e-06
-2.033556589e-06
)


101
(
1.04981213e-08
1.007492014e-07
4.567857384e-07
1.163422313e-06
2.185401836e-06
3.470855071e-06
5.102491583e-06
7.170814122e-06
9.741271335e-06
1.293539535e-05
1.685308527e-05
2.150130064e-05
2.692768745e-05
3.30565306e-05
3.957078817e-05
4.621117029e-05
5.271426139e-05
5.863659285e-05
6.355350115e-05
6.729359722e-05
6.961095695e-05
7.01952245e-05
6.911471392e-05
6.657537135e-05
6.271755467e-05
5.780822735e-05
5.21812983e-05
4.612227901e-05
3.991204543e-05
3.382244406e-05
2.806055697e-05
2.283775716e-05
1.806072846e-05
1.368359381e-05
9.825128894e-06
6.141740874e-06
2.520393389e-06
-1.012421512e-07
-1.118450199e-06
-1.220364327e-06
-1.219857593e-06
-1.409839088e-06
-1.765206139e-06
-2.179640598e-06
-2.573705292e-06
-2.902785574e-06
-3.154259782e-06
-3.345368336e-06
-3.503512653e-06
-3.649638119e-06
-3.798145053e-06
-3.961850207e-06
-4.147660624e-06
-4.361644134e-06
-4.61535169e-06
-4.90923097e-06
-5.252286418e-06
-5.65270324e-06
-6.100707715e-06
-6.598142101e-06
-7.150274544e-06
-7.757715839e-06
-8.423262335e-06
-9.151631047e-06
-9.944211966e-06
-1.079489842e-05
-1.168837086e-05
-1.26316496e-05
-1.363081833e-05
-1.468471169e-05
-1.578751777e-05
-1.69350966e-05
-1.811025081e-05
-1.941106371e-05
-2.10197277e-05
-2.278867164e-05
-2.425394647e-05
-2.503865924e-05
-2.523596627e-05
-2.546936693e-05
-2.626289115e-05
-2.754002302e-05
-2.902282416e-05
-3.070326453e-05
-3.254441699e-05
-3.394596218e-05
-3.42081626e-05
-3.419537514e-05
-3.516182939e-05
-3.682491247e-05
-3.869619924e-05
-4.017330948e-05
-4.090723167e-05
-4.255893887e-05
-4.35444696e-05
-4.138143811e-05
-2.217899881e-05
-4.65977718e-06
-4.206558635e-06
-3.823366105e-06
-3.844084743e-06
)


101
(
9.334848086e-09
9.624538885e-08
4.40216376e-07
1.123727302e-06
2.111741501e-06
3.352154669e-06
4.918369703e-06
6.896153173e-06
9.346344321e-06
1.238134789e-05
1.609707604e-05
2.050906426e-05
2.565605345e-05
3.148630004e-05
3.77310634e-05
4.413584427e-05
5.045301863e-05
5.631831429e-05
6.128712054e-05
6.518726228e-05
6.782396589e-05
6.88310581e-05
6.824937405e-05
6.625780804e-05
6.294988259e-05
5.854950138e-05
5.335692688e-05
4.76437216e-05
4.16813004e-05
3.573285157e-05
3.000986871e-05
2.472715654e-05
1.986466656e-05
1.541927406e-05
1.146116485e-05
7.764297242e-06
4.18116304e-06
1.192173157e-06
-5.848241066e-07
-1.265047981e-06
-1.431649682e-06
-1.551152583e-06
-1.800531628e-06
-2.167432558e-06
-2.584219239e-06
-2.975694214e-06
-3.294802024e-06
-3.537636851e-06
-3.728327661e-06
-3.89190445e-06
-4.045374733e-06
-4.204957602e-06
-4.380005831e-06
-4.576499807e-06
-4.802721157e-06
-5.066850701e-06
-5.370963876e-06
-5.721922442e-06
-6.117020235e-06
-6.558147133e-06
-7.053841063e-06
-7.600173779e-06
-8.200754011e-06
-8.859878004e-06
-9.57374461e-06
-1.034494743e-05
-1.116994764e-05
-1.20439931e-05
-1.296902698e-05
-1.393955137e-05
-1.49614214e-05
-1.60390054e-05
-1.714891505e-05
-1.829849632e-05
-1.958894306e-05
-2.109199885e-05
-2.268831671e-05
-2.40056409e-05
-2.469005667e-05
-2.491235622e-05
-2.529152899e-05
-2.622763217e-05
-2.756079832e-05
-2.90335915e-05
-3.064301647e-05
-3.230431834e-05
-3.339041885e-05
-3.359517562e-05
-3.400714302e-05
-3.531890389e-05
-3.704579123e-05
-3.880050966e-05
-3.992259396e-05
-4.135856876e-05
-4.222828429e-05
-3.987118881e-05
-2.20554605e-05
-6.207950689e-06
-5.424033621e-06
-4.707852908e-06
-4.688465105e-06
)


101
(
8.221680212e-09
9.187582496e-08
4.24062415e-07
1.084991394e-06
2.039920839e-06
3.236660798e-06
4.739933626e-06
6.630751243e-06
8.965684625e-06
1.184844173e-05
1.537075651e-05
1.955513997e-05
2.443342015e-05
2.99725242e-05
3.594731231e-05
4.211307589e-05
4.823596766e-05
5.401634729e-05
5.900896936e-05
6.303626622e-05
6.59430049e-05
6.733287431e-05
6.721520806e-05
6.574248794e-05
6.296939869e-05
5.90783256e-05
5.433478699e-05
4.899094629e-05
4.330714165e-05
3.753716975e-05
3.189308606e-05
2.659134537e-05
2.165370419e-05
1.713071501e-05
1.308498864e-05
9.346496552e-06
5.777248063e-06
2.585868737e-06
2.580014853e-07
-1.027085425e-06
-1.552885799e-06
-1.758188338e-06
-1.950494509e-06
-2.244948452e-06
-2.639332416e-06
-3.065433592e-06
-3.451134837e-06
-3.760895784e-06
-3.999456477e-06
-4.190810839e-06
-4.357744938e-06
-4.521020459e-06
-4.692965651e-06
-4.880396802e-06
-5.087648627e-06
-5.325510026e-06
-5.598295491e-06
-5.913232697e-06
-6.265485295e-06
-6.653159472e-06
-7.095265483e-06
-7.58604557e-06
-8.125927526e-06
-8.72360206e-06
-9.370238991e-06
-1.006710119e-05
-1.081796933e-05
-1.161901511e-05
-1.247809951e-05
-1.337884027e-05
-1.431716601e-05
-1.531140648e-05
-1.635285077e-05
-1.742586143e-05
-1.855551114e-05
-1.981794435e-05
-2.125370449e-05
-2.271059863e-05
-2.383446839e-05
-2.438996112e-05
-2.465068135e-05
-2.520519381e-05
-2.628276436e-05
-2.764239364e-05
-2.90954518e-05
-3.065129586e-05
-3.207307708e-05
-3.280439192e-05
-3.311887141e-05
-3.402460843e-05
-3.560866023e-05
-3.737716538e-05
-3.874944996e-05
-4.020375551e-05
-4.096716663e-05
-3.852866807e-05
-2.163125861e-05
-6.941557264e-06
-6.714494276e-06
-6.537740695e-06
-6.567420479e-06
)


101
(
7.15782357e-09
8.76386231e-08
4.083179271e-07
1.047198682e-06
1.969902225e-06
3.124292902e-06
4.567011763e-06
6.374326313e-06
8.598846493e-06
1.133602337e-05
1.467327221e-05
1.863867961e-05
2.325875518e-05
2.851482853e-05
3.422061426e-05
4.014487372e-05
4.606649766e-05
5.173846978e-05
5.672765662e-05
6.085102195e-05
6.398276333e-05
6.571411258e-05
6.602456393e-05
6.504034209e-05
6.278328386e-05
5.93971297e-05
5.511253228e-05
5.015841179e-05
4.478154272e-05
3.922561471e-05
3.369945405e-05
2.841983639e-05
2.343060433e-05
1.883047611e-05
1.470061375e-05
1.090561827e-05
7.329835545e-06
4.02632381e-06
1.320274296e-06
-5.043000863e-07
-1.485241007e-06
-1.926083582e-06
-2.160256773e-06
-2.403783211e-06
-2.748531986e-06
-3.173606718e-06
-3.607781342e-06
-3.988061126e-06
-4.288794107e-06
-4.523030569e-06
-4.714577587e-06
-4.888910883e-06
-5.064427187e-06
-5.251018842e-06
-5.448930523e-06
-5.666272174e-06
-5.912648493e-06
-6.196254357e-06
-6.514142943e-06
-6.864005358e-06
-7.259871513e-06
-7.698916597e-06
-8.181009183e-06
-8.71744493e-06
-9.30445137e-06
-9.936145986e-06
-1.061646976e-05
-1.13461535e-05
-1.213171178e-05
-1.29668776e-05
-1.384015884e-05
-1.475567974e-05
-1.57172124e-05
-1.671796355e-05
-1.775749319e-05
-1.887172888e-05
-2.011180459e-05
-2.146836457e-05
-2.277035765e-05
-2.369823752e-05
-2.413784128e-05
-2.447274143e-05
-2.521608441e-05
-2.640659462e-05
-2.776758674e-05
-2.919707397e-05
-3.064822098e-05
-3.176422554e-05
-3.227032015e-05
-3.289170757e-05
-3.424076916e-05
-3.598768713e-05
-3.754615117e-05
-3.90312548e-05
-3.960218887e-05
-3.714242386e-05
-2.154566132e-05
-8.104305873e-06
-7.788453401e-06
-7.490868495e-06
-7.474551509e-06
)


101
(
6.142481825e-09
8.353189566e-08
3.929770371e-07
1.010333547e-06
1.901648925e-06
3.014972415e-06
4.399436609e-06
6.126600757e-06
8.245390498e-06
1.084344351e-05
1.400376216e-05
1.775878982e-05
2.213098227e-05
2.711264858e-05
3.255172853e-05
3.823297707e-05
4.394762885e-05
4.949148865e-05
5.445152219e-05
5.864147414e-05
6.195691869e-05
6.398840925e-05
6.46900472e-05
6.416257653e-05
6.239953859e-05
5.95093692e-05
5.568864307e-05
5.114062117e-05
4.60958571e-05
4.078674828e-05
3.541629477e-05
3.019985289e-05
2.519062976e-05
2.052474384e-05
1.631330951e-05
1.245148113e-05
8.852085104e-06
5.483798538e-06
2.529825068e-06
2.69457609e-07
-1.18153328e-06
-1.966361072e-06
-2.358535312e-06
-2.614718471e-06
-2.914630064e-06
-3.310769554e-06
-3.76374183e-06
-4.202718541e-06
-4.57297167e-06
-4.864709847e-06
-5.094029325e-06
-5.29034154e-06
-5.47806282e-06
-5.669217581e-06
-5.865830713e-06
-6.07481603e-06
-6.301579686e-06
-6.557368509e-06
-6.845005909e-06
-7.161812216e-06
-7.519534137e-06
-7.916049583e-06
-8.35068315e-06
-8.831645558e-06
-9.360383333e-06
-9.932025861e-06
-1.054976204e-05
-1.121436493e-05
-1.192915488e-05
-1.269681732e-05
-1.350499055e-05
-1.434893596e-05
-1.52327481e-05
-1.615819059e-05
-1.712374253e-05
-1.814377395e-05
-1.924366475e-05
-2.044410117e-05
-2.171069188e-05
-2.284098097e-05
-2.356564952e-05
-2.392587197e-05
-2.439392253e-05
-2.5325919e-05
-2.657921224e-05
-2.791733336e-05
-2.929792865e-05
-3.05731653e-05
-3.134607845e-05
-3.189453521e-05
-3.297884898e-05
-3.460171966e-05
-3.626798679e-05
-3.778087917e-05
-3.831042328e-05
-3.602821893e-05
-2.152331471e-05
-9.068808998e-06
-8.775183413e-06
-8.494165416e-06
-8.476980192e-06
)


101
(
5.174852787e-09
7.955376568e-08
3.780339652e-07
9.743807505e-07
1.835125268e-06
2.908623096e-06
4.23704526e-06
5.887302325e-06
7.90488514e-06
1.037005974e-05
1.336136407e-05
1.691454101e-05
2.104898656e-05
2.576525735e-05
3.094111555e-05
3.637885399e-05
4.188203418e-05
4.728138252e-05
5.21885011e-05
5.641713682e-05
5.987830666e-05
6.216936736e-05
6.322449394e-05
6.31206608e-05
6.182680612e-05
5.941947003e-05
5.606259493e-05
5.19325612e-05
4.724138422e-05
4.220863916e-05
3.702952139e-05
3.191624012e-05
2.692321161e-05
2.221288078e-05
1.792766759e-05
1.399290672e-05
1.035449634e-05
6.942373295e-06
3.831737134e-06
1.244382216e-06
-6.37062204e-07
-1.819876218e-06
-2.472080384e-06
-2.828813089e-06
-3.122611154e-06
-3.483057179e-06
-3.927830603e-06
-4.404288947e-06
-4.840216835e-06
-5.19722928e-06
-5.477446423e-06
-5.708715001e-06
-5.916114899e-06
-6.118535257e-06
-6.323181108e-06
-6.53207702e-06
-6.747844853e-06
-6.984734441e-06
-7.248456743e-06
-7.537612627e-06
-7.862694377e-06
-8.220922761e-06
-8.614585417e-06
-9.050066592e-06
-9.528584041e-06
-1.004763245e-05
-1.06066996e-05
-1.120797088e-05
-1.185300735e-05
-1.255128755e-05
-1.329633212e-05
-1.407969666e-05
-1.489689865e-05
-1.574415416e-05
-1.663272733e-05
-1.757558565e-05
-1.857740971e-05
-1.964515521e-05
-2.079150791e-05
-2.194907802e-05
-2.288911278e-05
-2.342626778e-05
-2.377936108e-05
-2.443470172e-05
-2.550933299e-05
-2.676649439e-05
-2.806703059e-05
-2.935531971e-05
-3.033406648e-05
-3.091831264e-05
-3.178193836e-05
-3.326799771e-05
-3.496497676e-05
-3.648847559e-05
-3.700748499e-05
-3.478937675e-05
-2.140966332e-05
-1.005660086e-05
-9.850931145e-06
-9.687101466e-06
-9.706545585e-06
)


101
(
4.254128848e-09
7.570235297e-08
3.63482968e-07
9.393252986e-07
1.770296427e-06
2.80517071e-06
4.07967903e-06
5.656163649e-06
7.576906097e-06
9.915236466e-06
1.274521511e-05
1.610497246e-05
2.001161969e-05
2.447178885e-05
2.938895449e-05
3.458369095e-05
3.98720499e-05
4.511336139e-05
4.994604119e-05
5.418711888e-05
5.775895371e-05
6.027037947e-05
6.164098424e-05
6.192642774e-05
6.107438408e-05
5.913286674e-05
5.62351364e-05
5.253037966e-05
4.82102592e-05
4.34799135e-05
3.852500515e-05
3.355296253e-05
2.861432248e-05
2.388869724e-05
1.954496273e-05
1.553604167e-05
1.18445559e-05
8.392831668e-06
5.184188325e-06
2.367543801e-06
1.284889677e-07
-1.455269141e-06
-2.439792752e-06
-2.989971607e-06
-3.343437017e-06
-3.687645586e-06
-4.109156103e-06
-4.597446902e-06
-5.083964933e-06
-5.509410268e-06
-5.853380742e-06
-6.131736807e-06
-6.369061454e-06
-6.589925242e-06
-6.805871818e-06
-7.022738562e-06
-7.237603284e-06
-7.4640857e-06
-7.712750994e-06
-7.979959166e-06
-8.278247871e-06
-8.605459083e-06
-8.963659544e-06
-9.359306107e-06
-9.792703098e-06
-1.026415547e-05
-1.077130824e-05
-1.131574086e-05
-1.190034127e-05
-1.253345912e-05
-1.321374943e-05
-1.393236623e-05
-1.468438906e-05
-1.546459015e-05
-1.628050911e-05
-1.714566101e-05
-1.806541921e-05
-1.903636927e-05
-2.006112522e-05
-2.113881771e-05
-2.216199775e-05
-2.289128373e-05
-2.328634909e-05
-2.373483603e-05
-2.457602103e-05
-2.572432042e-05
-2.694649335e-05
-2.818189359e-05
-2.926551737e-05
-2.993818001e-05
-3.065754412e-05
-3.197287709e-05
-3.362922177e-05
-3.514796656e-05
-3.568109961e-05
-3.366809185e-05
-2.136984175e-05
-1.093860411e-05
-1.08884256e-05
-1.092339085e-05
-1.100722761e-05
)


101
(
3.379502416e-09
7.197578795e-08
3.493183977e-07
9.051525852e-07
1.707128675e-06
2.704543505e-06
3.927184291e-06
5.432923453e-06
7.261037603e-06
9.47834816e-06
1.215445855e-05
1.532910212e-05
1.901770317e-05
2.323125719e-05
2.789517471e-05
3.284840504e-05
3.791969565e-05
4.29919654e-05
4.773102836e-05
5.196011532e-05
5.56102567e-05
5.830450567e-05
5.995270282e-05
6.05921346e-05
6.015233062e-05
5.86561083e-05
5.620834046e-05
5.293146182e-05
4.899549626e-05
4.458963606e-05
3.988867527e-05
3.509366837e-05
3.024753959e-05
2.554019998e-05
2.116064594e-05
1.708400532e-05
1.332969088e-05
9.833540481e-06
6.559560511e-06
3.589745763e-06
1.07568395e-06
-8.721648968e-07
-2.220668569e-06
-3.042556993e-06
-3.535711963e-06
-3.909392781e-06
-4.311311535e-06
-4.790361797e-06
-5.306575127e-06
-5.794181589e-06
-6.209085319e-06
-6.547489398e-06
-6.826698495e-06
-7.072547202e-06
-7.305695277e-06
-7.53838418e-06
-7.761705115e-06
-7.986902187e-06
-8.227459947e-06
-8.47965386e-06
-8.756018775e-06
-9.058759884e-06
-9.388409149e-06
-9.748511357e-06
-1.014137174e-05
-1.057212756e-05
-1.103595969e-05
-1.153162705e-05
-1.206169113e-05
-1.263258618e-05
-1.324868554e-05
-1.39053304e-05
-1.459612606e-05
-1.53123864e-05
-1.605722065e-05
-1.684545411e-05
-1.768918404e-05
-1.857803593e-05
-1.950216245e-05
-2.047472883e-05
-2.147346517e-05
-2.23192194e-05
-2.283228041e-05
-2.318860356e-05
-2.379291475e-05
-2.477877156e-05
-2.592009429e-05
-2.708003035e-05
-2.818848092e-05
-2.894788042e-05
-2.957505745e-05
-3.070994496e-05
-3.22794838e-05
-3.377595469e-05
-3.431276508e-05
-3.250630619e-05
-2.139099549e-05
-1.194607344e-05
-1.199326732e-05
-1.201298962e-05
-1.198991751e-05
)


101
(
2.550155884e-09
6.837219443e-08
3.35534633e-07
8.718482167e-07
1.645589066e-06
2.606671673e-06
3.779411651e-06
5.217325786e-06
6.956871477e-06
9.058778218e-06
1.158824199e-05
1.458592971e-05
1.806602984e-05
2.204256597e-05
2.645946877e-05
3.117363875e-05
3.602666395e-05
4.092112822e-05
4.554974833e-05
4.974432015e-05
5.344297457e-05
5.628443836e-05
5.817292705e-05
5.913047723e-05
5.907152072e-05
5.799700861e-05
5.598586248e-05
5.313473529e-05
4.959139152e-05
4.552777973e-05
4.110660073e-05
3.652132294e-05
3.180450551e-05
2.715122173e-05
2.276470781e-05
1.863558901e-05
1.481613539e-05
1.12670946e-05
7.940345432e-06
4.8693414e-06
2.157550275e-06
-9.30927987e-08
-1.797730779e-06
-2.941224277e-06
-3.651723167e-06
-4.119697308e-06
-4.529416896e-06
-4.992531594e-06
-5.517579402e-06
-6.051789429e-06
-6.535737647e-06
-6.943679724e-06
-7.277807524e-06
-7.560039207e-06
-7.819865888e-06
-8.072493394e-06
-8.309693241e-06
-8.542116471e-06
-8.782955203e-06
-9.029802936e-06
-9.291212989e-06
-9.573725275e-06
-9.879755852e-06
-1.021252542e-05
-1.057256856e-05
-1.096431489e-05
-1.138969226e-05
-1.184530769e-05
-1.232821709e-05
-1.284490743e-05
-1.340071964e-05
-1.399530917e-05
-1.462495739e-05
-1.528016808e-05
-1.595940588e-05
-1.667525283e-05
-1.744413696e-05
-1.825260724e-05
-1.908958498e-05
-1.996565586e-05
-2.088625344e-05
-2.175802993e-05
-2.238489932e-05
-2.274378877e-05
-2.315863076e-05
-2.394190143e-05
-2.498193944e-05
-2.606386001e-05
-2.712644318e-05
-2.793914624e-05
-2.852236651e-05
-2.947168232e-05
-3.091534011e-05
-3.236779639e-05
-3.292191509e-05
-3.135900393e-05
-2.143240187e-05
-1.300238345e-05
-1.333740495e-05
-1.368240756e-05
-1.373930702e-05
)


101
(
1.765267354e-09
6.48896977e-08
3.221261157e-07
8.393981053e-07
1.585645601e-06
2.511487658e-06
3.63621647e-06
5.009120839e-06
6.664008502e-06
8.655921436e-06
1.104572214e-05
1.387444336e-05
1.715537352e-05
2.090452971e-05
2.508131349e-05
2.955976459e-05
3.419434796e-05
3.890420546e-05
4.34078754e-05
4.754744595e-05
5.126725202e-05
5.42224816e-05
5.631500821e-05
5.755472928e-05
5.784393789e-05
5.716479273e-05
5.557289683e-05
5.31406723e-05
4.999364077e-05
4.628550412e-05
4.216557476e-05
3.781864696e-05
3.326560687e-05
2.870271409e-05
2.434212432e-05
2.018368535e-05
1.630603402e-05
1.269802257e-05
9.318289539e-06
6.175174048e-06
3.327748173e-06
8.440873726e-07
-1.177219982e-06
-2.656597596e-06
-3.644532083e-06
-4.280104892e-06
-4.748698299e-06
-5.209125287e-06
-5.728865742e-06
-6.289676915e-06
-6.832546737e-06
-7.3132925e-06
-7.713839384e-06
-8.046459787e-06
-8.341214555e-06
-8.619411589e-06
-8.87674711e-06
-9.123606015e-06
-9.373068186e-06
-9.622482707e-06
-9.877997906e-06
-1.014730196e-05
-1.04352665e-05
-1.074514022e-05
-1.108050279e-05
-1.144141889e-05
-1.183053241e-05
-1.225071379e-05
-1.269365142e-05
-1.316396832e-05
-1.36674842e-05
-1.420207812e-05
-1.477005469e-05
-1.536637501e-05
-1.598636232e-05
-1.663506746e-05
-1.732763161e-05
-1.805922595e-05
-1.881595885e-05
-1.960025192e-05
-2.042765439e-05
-2.126081614e-05
-2.194777091e-05
-2.236123826e-05
-2.26647972e-05
-2.322955458e-05
-2.41241776e-05
-2.512373373e-05
-2.610765871e-05
-2.692052802e-05
-2.748330345e-05
-2.826859658e-05
-2.954296476e-05
-3.091376104e-05
-3.148435447e-05
-3.018515129e-05
-2.1609477e-05
-1.435297505e-05
-1.50149321e-05
-1.562832969e-05
-1.567525195e-05
)


101
(
1.024010698e-09
6.152642145e-08
3.090873358e-07
8.077884305e-07
1.52726716e-06
2.418926072e-06
3.4974588e-06
4.808064769e-06
6.382058031e-06
8.26918469e-06
1.052606687e-05
1.319362391e-05
1.628449238e-05
1.981589075e-05
2.375999095e-05
2.800689371e-05
3.242382937e-05
3.694404657e-05
4.131045627e-05
4.537662875e-05
4.909268465e-05
5.213050228e-05
5.439213888e-05
5.58783248e-05
5.648212e-05
5.616979427e-05
5.497625714e-05
5.295160893e-05
5.019977185e-05
4.685566206e-05
4.305398519e-05
3.896968153e-05
3.46113462e-05
3.017392094e-05
2.587421292e-05
2.171565302e-05
1.779569545e-05
1.412876432e-05
1.069110846e-05
7.487365095e-06
4.546668801e-06
1.894734368e-06
-3.857376394e-07
-2.182233395e-06
-3.479241218e-06
-4.347919929e-06
-4.940495481e-06
-5.434748249e-06
-5.951550827e-06
-6.520740041e-06
-7.104610833e-06
-7.654338786e-06
-8.12920982e-06
-8.523921611e-06
-8.863890154e-06
-9.177194444e-06
-9.462129218e-06
-9.729825975e-06
-9.994877693e-06
-1.025451555e-05
-1.051275786e-05
-1.077556177e-05
-1.10525591e-05
-1.134791855e-05
-1.166363421e-05
-1.199860114e-05
-1.235848515e-05
-1.274576317e-05
-1.315508458e-05
-1.358866618e-05
-1.404753624e-05
-1.452852906e-05
-1.503620436e-05
-1.557296384e-05
-1.613461364e-05
-1.672253223e-05
-1.734714874e-05
-1.800060115e-05
-1.867681847e-05
-1.937677053e-05
-2.01106668e-05
-2.086766443e-05
-2.155225154e-05
-2.202136279e-05
-2.228367919e-05
-2.265318076e-05
-2.336217017e-05
-2.425674534e-05
-2.51510428e-05
-2.591519667e-05
-2.644804354e-05
-2.708724283e-05
-2.81699371e-05
-2.942104746e-05
-2.999097168e-05
-2.898117208e-05
-2.196932274e-05
-1.610087801e-05
-1.709183373e-05
-1.807070081e-05
-1.822131056e-05
)


101
(
3.255504551e-10
5.828048488e-08
2.964128205e-07
7.770056048e-07
1.470423427e-06
2.32892355e-06
3.363003214e-06
4.613920032e-06
6.110638413e-06
7.897986819e-06
1.002845555e-05
1.254245022e-05
1.545213294e-05
1.877532366e-05
2.249460825e-05
2.65148922e-05
3.07158906e-05
3.504302212e-05
3.926195125e-05
4.323840524e-05
4.692816704e-05
5.001977132e-05
5.241726237e-05
5.411481962e-05
5.49991097e-05
5.50233428e-05
5.420435738e-05
5.257201371e-05
5.02096148e-05
4.723320151e-05
4.376211085e-05
3.996039991e-05
3.582385225e-05
3.154413455e-05
2.733966776e-05
2.321337887e-05
1.927444927e-05
1.555710286e-05
1.205886811e-05
8.795787244e-06
5.784675988e-06
3.01446931e-06
5.365672716e-07
-1.533652359e-06
-3.139787073e-06
-4.286423005e-06
-5.068695295e-06
-5.650803039e-06
-6.186721894e-06
-6.757707545e-06
-7.365191182e-06
-7.972099924e-06
-8.521881161e-06
-8.988698278e-06
-9.387146986e-06
-9.745172022e-06
-1.006562655e-05
-1.035994545e-05
-1.064598499e-05
-1.092452065e-05
-1.119477475e-05
-1.145863195e-05
-1.173158771e-05
-1.202079645e-05
-1.232240241e-05
-1.263867668e-05
-1.297450622e-05
-1.333496797e-05
-1.371729341e-05
-1.411754833e-05
-1.453950198e-05
-1.497673329e-05
-1.543125735e-05
-1.590941413e-05
-1.641090475e-05
-1.694157347e-05
-1.750321992e-05
-1.808285058e-05
-1.868159091e-05
-1.929602941e-05
-1.993666777e-05
-2.060575453e-05
-2.124211258e-05
-2.172757181e-05
-2.19866903e-05
-2.221611949e-05
-2.271814061e-05
-2.346983358e-05
-2.426657858e-05
-2.494208186e-05
-2.542770904e-05
-2.592033902e-05
-2.678679423e-05
-2.789432423e-05
-2.844539574e-05
-2.770972388e-05
-2.248144158e-05
-1.825725734e-05
-1.950928299e-05
-2.094531981e-05
-2.137886507e-05
)


101
(
-3.309543974e-10
5.515000838e-08
2.840971569e-07
7.470363322e-07
1.415085004e-06
2.241418922e-06
3.232719081e-06
4.426455964e-06
5.849377781e-06
7.541759407e-06
9.552083016e-06
1.191990447e-05
1.465703494e-05
1.778145152e-05
2.128412164e-05
2.508339375e-05
2.907104107e-05
3.320306988e-05
3.726626929e-05
4.113875232e-05
4.478195563e-05
4.790090537e-05
5.040289016e-05
5.227774799e-05
5.340835014e-05
5.373762999e-05
5.326697168e-05
5.200816053e-05
5.002511739e-05
4.741524771e-05
4.428221782e-05
4.077861778e-05
3.688674642e-05
3.27933594e-05
2.871640106e-05
2.465555002e-05
2.072609573e-05
1.697523288e-05
1.341995589e-05
1.009548582e-05
7.022717617e-06
4.167118598e-06
1.545546582e-06
-7.4443685e-07
-2.632670238e-06
-4.073219001e-06
-5.098079364e-06
-5.829832898e-06
-6.425654346e-06
-7.009545748e-06
-7.630361877e-06
-8.277815451e-06
-8.895487724e-06
-9.440245278e-06
-9.908567524e-06
-1.032249562e-05
-1.068812069e-05
-1.101700532e-05
-1.13299402e-05
-1.16317029e-05
-1.192259995e-05
-1.219947467e-05
-1.247778784e-05
-1.276741799e-05
-1.306085175e-05
-1.3364062e-05
-1.368387121e-05
-1.402548565e-05
-1.438428595e-05
-1.475621796e-05
-1.51482168e-05
-1.554934639e-05
-1.596069737e-05
-1.638759357e-05
-1.68271479e-05
-1.729603739e-05
-1.779749663e-05
-1.83141005e-05
-1.883801091e-05
-1.936549786e-05
-1.991614307e-05
-2.048815253e-05
-2.104700205e-05
-2.151276015e-05
-2.176849335e-05
-2.189863092e-05
-2.220348781e-05
-2.277622385e-05
-2.34518023e-05
-2.401015179e-05
-2.442263161e-05
-2.477478635e-05
-2.540311241e-05
-2.633267085e-05
-2.683819166e-05
-2.634806648e-05
-2.313300408e-05
-2.077664049e-05
-2.201344231e-05
-2.316252702e-05
-2.339633104e-05
)


101
(
-9.463509437e-10
5.213310989e-08
2.721349776e-07
7.178675644e-07
1.361223312e-06
2.156353081e-06
3.106480414e-06
4.245448758e-06
5.597914083e-06
7.199947135e-06
9.096159541e-06
1.132497618e-05
1.389793655e-05
1.683285638e-05
2.012735293e-05
2.371181597e-05
2.748951058e-05
3.142573728e-05
3.532678208e-05
3.908302184e-05
4.266162665e-05
4.578384508e-05
4.836106164e-05
5.038053599e-05
5.172358869e-05
5.232562143e-05
5.217514589e-05
5.126800038e-05
4.965022727e-05
4.740134487e-05
4.460927137e-05
4.141451501e-05
3.778567507e-05
3.390312898e-05
2.998253124e-05
2.601887728e-05
2.212982451e-05
1.836917714e-05
1.476810201e-05
1.138342973e-05
8.250620228e-06
5.325610122e-06
2.59962902e-06
1.441102104e-07
-1.981776853e-06
-3.705921608e-06
-5.004396295e-06
-5.941547754e-06
-6.650422289e-06
-7.277383518e-06
-7.913900258e-06
-8.587534534e-06
-9.260952618e-06
-9.882032808e-06
-1.042635154e-05
-1.090848565e-05
-1.133203564e-05
-1.170468872e-05
-1.205077562e-05
-1.238242191e-05
-1.270161899e-05
-1.30020555e-05
-1.329665675e-05
-1.359106793e-05
-1.38863728e-05
-1.418655424e-05
-1.449279798e-05
-1.481966673e-05
-1.516106814e-05
-1.551411185e-05
-1.588205472e-05
-1.625304619e-05
-1.663020587e-05
-1.701358949e-05
-1.73976682e-05
-1.779842693e-05
-1.823930186e-05
-1.869664216e-05
-1.914781009e-05
-1.959755988e-05
-2.005612649e-05
-2.052069839e-05
-2.098462927e-05
-2.139287765e-05
-2.16282555e-05
-2.168845036e-05
-2.181410481e-05
-2.218193591e-05
-2.270311274e-05
-2.312487016e-05
-2.342775269e-05
-2.363754033e-05
-2.401980007e-05
-2.472632533e-05
-2.516653351e-05
-2.491883013e-05
-2.378952449e-05
-2.33312716e-05
-2.420898392e-05
-2.496669182e-05
-2.520242093e-05
)


101
(
-1.521496747e-09
4.922783073e-08
2.605208975e-07
6.89486403e-07
1.308810298e-06
2.073668519e-06
2.984165147e-06
4.070680887e-06
5.355894459e-06
6.872006194e-06
8.659908817e-06
1.075666224e-05
1.317357646e-05
1.592808795e-05
1.902299669e-05
2.239936632e-05
2.597125921e-05
2.971215212e-05
3.344632088e-05
3.70759716e-05
4.057404613e-05
4.367783579e-05
4.630328025e-05
4.84363991e-05
4.995886377e-05
5.080098437e-05
5.094098406e-05
5.03609491e-05
4.909072986e-05
4.719317392e-05
4.474069231e-05
4.186085814e-05
3.850864964e-05
3.485701482e-05
3.111759176e-05
2.728004143e-05
2.346217567e-05
1.97199278e-05
1.609248538e-05
1.265467557e-05
9.461480536e-06
6.472763551e-06
3.666261717e-06