/*--------------------------------*- C++ -*----------------------------------*\
| =========                 |                                                 |
| \\      /  F ield         | OpenFOAM: The Open Source CFD Toolbox           |
|  \\    /   O peration     | Version:  2.3.1                                 |
|   \\  /    A nd           | Web:      www.OpenFOAM.org                      |
|    \\/     M anipulation  |                                                 |
\*---------------------------------------------------------------------------*/
FoamFile
{
    version     2.0;
    format      ascii;
    class       dictionary;
    location    "constant";
    object      GRPSI54;
}
// * * * * * * * * * * * * * * * * * * * * * * * * * * * * * * * * * * * * * //

GRPSI54_table
101
(

101
(
-8.378030894e-29
-4.724788805e-18
-1.251426136e-16
-1.143518234e-15
-5.246760404e-15
-1.444534035e-14
-2.866255354e-14
-4.984504168e-14
-7.429281229e-14
-9.919537112e-14
-1.196610021e-13
-1.321375904e-13
-1.34164412e-13
-1.217954631e-13
-9.739940013e-14
-6.454331471e-14
-2.661897247e-14
1.060881393e-14
4.032535598e-14
6.116249607e-14
7.187577899e-14
7.61139296e-14
7.0951498e-14
6.173714762e-14
5.1563532e-14
4.161355785e-14
3.275624489e-14
2.547092439e-14
1.93846113e-14
1.47163734e-14
1.114226502e-14
8.538587108e-15
6.777618829e-15
4.81156693e-15
3.579593162e-15
2.654524435e-15
1.559940994e-15
5.346343093e-16
1.00837457e-15
8.593936441e-16
6.40449709e-16
4.938620523e-16
3.636902456e-16
2.682026946e-16
2.044881331e-16
1.513088683e-16
1.135404861e-16
8.244289751e-17
6.005455685e-17
4.254377255e-17
3.023560732e-17
2.119530514e-17
1.468135713e-17
1.002295627e-17
6.787475659e-18
4.585283862e-18
2.931772895e-18
1.938409417e-18
1.225001716e-18
7.760608215e-19
4.742307554e-19
2.88493083e-19
1.722637763e-19
9.979902398e-20
5.601373356e-20
3.097882568e-20
1.669512513e-20
8.720568696e-21
4.353780504e-21
2.108665125e-21
9.748799812e-22
4.343320289e-22
1.833742439e-22
7.271623895e-23
2.650107356e-23
9.369979777e-24
3.398072451e-24
1.108876833e-24
3.363404213e-25
9.370046447e-26
2.388115988e-26
4.971004144e-27
1.02679091e-27
1.695631702e-28
3.092582138e-29
1.177961165e-29
4.282017565e-30
1.118629865e-30
1.735226354e-31
2.854418355e-32
4.615471931e-33
6.261278526e-34
7.794990073e-35
6.380610592e-36
8.072876038e-37
9.439663184e-38
8.597310761e-40
3.599788925e-39
4.177812269e-36
-3.22330316e-26
-4.109840377e-26
)


101
(
-8.378030876e-29
-4.274533396e-18
-1.181584976e-16
-1.088337074e-15
-4.951721901e-15
-1.351247651e-14
-2.656619107e-14
-4.535555278e-14
-6.612902889e-14
-8.590653951e-14
-1.000231703e-13
-1.052950567e-13
-9.971640356e-14
-8.050325144e-14
-5.032308369e-14
-1.318421385e-14
2.692476549e-14
6.435877678e-14
9.238950148e-14
1.104655954e-13
1.16881544e-13
1.152168379e-13
1.050644431e-13
9.081418894e-14
7.563694047e-14
6.111711678e-14
4.824514929e-14
3.752376058e-14
2.873422864e-14
2.188676218e-14
1.662474721e-14
1.269008074e-14
9.838006177e-15
7.286889663e-15
5.46834443e-15
4.095269681e-15
2.797691544e-15
1.651922338e-15
1.667267595e-15
1.418637618e-15
1.107389139e-15
8.526705961e-16
6.410998921e-16
4.799823979e-16
3.624797718e-16
2.708873651e-16
2.028220285e-16
1.496884255e-16
1.100172259e-16
7.974603826e-17
5.752227491e-17
4.111010159e-17
2.913501367e-17
2.045470906e-17
1.42164592e-17
9.788515035e-18
6.580313544e-18
4.422614105e-18
2.916892165e-18
1.905374334e-18
1.223592906e-18
7.762892601e-19
4.843325489e-19
2.966868375e-19
1.7812189e-19
1.049541527e-19
6.048406228e-20
3.403376032e-20
1.870271687e-20
9.97609738e-21
5.15204185e-21
2.571188534e-21
1.250764702e-21
5.847213236e-22
2.60575862e-22
1.115756088e-22
4.593238552e-23
1.80550709e-23
6.806960345e-24
2.432808638e-24
8.16735909e-25
2.501295162e-25
7.227582448e-26
1.896426606e-26
4.392298404e-27
9.398443794e-28
2.160353167e-28
6.57332277e-29
1.539249154e-29
3.039130041e-30
6.530393865e-31
1.395169479e-31
3.115135563e-32
5.425596002e-33
9.87663566e-34
1.701831811e-34
5.02432026e-36
4.014033521e-35
3.457920782e-34
1.092650245e-30
-1.692316797e-20
)


101
(
-8.378030876e-29
-3.460420555e-18
-1.054722428e-16
-9.897400853e-16
-4.436980279e-15
-1.191773609e-14
-2.305394872e-14
-3.799072505e-14
-5.297286838e-14
-6.480127587e-14
-6.919890003e-14
-6.352076326e-14
-4.640556771e-14
-1.67159666e-14
2.256690919e-14
6.688044501e-14
1.113934671e-13
1.505720977e-13
1.777443788e-13
1.930579425e-13
1.943562718e-13
1.84796899e-13
1.672294648e-13
1.450453168e-13
1.216109499e-13
9.922699694e-14
7.920691396e-14
6.219362751e-14
4.824315125e-14
3.714543721e-14
2.850105215e-14
2.187964723e-14
1.684620161e-14
1.292062034e-14
9.867759195e-15
7.458890758e-15
5.611952056e-15
4.074707787e-15
3.281618604e-15
2.731655662e-15
2.202406568e-15
1.726695895e-15
1.332423363e-15
1.019237004e-15
7.770875317e-16
5.914556733e-16
4.491115422e-16
3.395687551e-16
2.551552987e-16
1.9044548e-16
1.410594605e-16
1.037571716e-16
7.583452262e-17
5.505459926e-17
3.962881315e-17
2.827519372e-17
1.993582811e-17
1.391691361e-17
9.621135457e-18
6.573654302e-18
4.446887336e-18
2.975164099e-18
1.964856753e-18
1.281184395e-18
8.232175624e-19
5.198715346e-19
3.228192122e-19
1.965376136e-19
1.178833983e-19
6.929319108e-20
3.971360321e-20
2.216195358e-20
1.210619937e-20
6.44158693e-21
3.315270825e-21
1.648593478e-21
7.896229141e-22
3.652727229e-22
1.631762281e-22
7.0528224e-23
2.934654018e-23
1.147818262e-23
4.266393394e-24
1.49895565e-24
4.863594139e-25
1.449627461e-25
3.978088614e-26
1.15006422e-26
3.252763746e-27
7.890480692e-28
1.692115585e-28
3.943349104e-29
9.676774997e-30
2.211800421e-30
5.181251778e-31
1.020067247e-31
3.321882873e-33
8.326808373e-32
7.06816794e-31
1.617674661e-26
2.07377219e-26
)


101
(
-8.378030876e-29
-2.800222168e-18
-9.501140442e-17
-9.110965432e-16
-4.048388249e-15
-1.076936241e-14
-2.063888791e-14
-3.317870602e-14
-4.474010673e-14
-5.203985845e-14
-5.103029031e-14
-3.927117331e-14
-1.561675502e-14
2.039635683e-14
6.585842457e-14
1.160840327e-13
1.658193471e-13
2.09416016e-13
2.400350255e-13
2.572290321e-13
2.587819599e-13
2.471365852e-13
2.260849461e-13
1.990381393e-13
1.696770511e-13
1.409197647e-13
1.145657623e-13
9.158971767e-14
7.233436195e-14
5.665116924e-14
4.415317935e-14
3.438541535e-14
2.678785283e-14
2.093428836e-14
1.632513145e-14
1.267075151e-14
9.756529282e-15
7.460281123e-15
5.888412957e-15
4.795645453e-15
3.907489274e-15
3.135333841e-15
2.481701464e-15
1.944916523e-15
1.515262115e-15
1.178316101e-15
9.145850482e-16
7.085513457e-16
5.465185704e-16
4.196554907e-16
3.201661903e-16
2.427539545e-16
1.83051346e-16
1.373548111e-16
1.024241596e-16
7.579085072e-17
5.567973252e-17
4.054883098e-17
2.930673017e-17
2.095463945e-17
1.485984621e-17
1.045515724e-17
7.282492524e-18
5.027246684e-18
3.434270663e-18
2.311131674e-18
1.533946713e-18
1.003509995e-18
6.480918283e-19
4.133037886e-19
2.579119896e-19
1.577640033e-19
9.46479494e-20
5.574967106e-20
3.206647388e-20
1.796834257e-20
9.745572191e-21
5.142398567e-21
2.631434472e-21
1.309549262e-21
6.346259403e-22
2.949187588e-22
1.310594062e-22
5.601515974e-23
2.266643351e-23
8.591971529e-24
3.019028276e-24
1.027964262e-24
3.481352119e-25
1.103191771e-25
3.038128164e-26
8.037448283e-27
2.075460586e-27
5.235146377e-28
1.38979206e-28
2.945877113e-29
1.90882514e-30
6.395201441e-29
5.123283836e-28
7.954925271e-27
1.692322208e-20
)


101
(
-8.378031656e-29
-2.260680293e-18
-8.619650762e-17
-8.463943528e-16
-3.745157645e-15
-9.911053239e-15
-1.889974455e-14
-2.986161688e-14
-3.925047687e-14
-4.370191857e-14
-3.923349326e-14
-2.338585847e-14
5.013908947e-15
4.620991725e-14
9.749007274e-14
1.541947681e-13
2.10769345e-13
2.612771048e-13
2.985226895e-13
3.210142748e-13
3.262018507e-13
3.157700725e-13
2.9370436e-13
2.634811802e-13
2.291623688e-13
1.943015877e-13
1.613089662e-13
1.31664914e-13
1.061233737e-13
8.475615214e-14
6.729801001e-14
5.328260376e-14
4.213727679e-14
3.347796537e-14
2.658936607e-14
2.113616235e-14
1.660521161e-14
1.303578137e-14
1.0373992e-14
8.415619729e-15
6.892407358e-15
5.621678767e-15
4.548396167e-15
3.649242046e-15
2.907774171e-15
2.309785105e-15
1.831430619e-15
1.451660487e-15
1.148219866e-15
9.055380004e-16
7.105962841e-16
5.545546365e-16
4.306619371e-16
3.332329527e-16
2.568143092e-16
1.966783872e-16
1.497861666e-16
1.13303959e-16
8.527246074e-17
6.359912652e-17
4.704985208e-17
3.462646896e-17
2.526556339e-17
1.831331149e-17
1.318508125e-17
9.388158986e-18
6.606264649e-18
4.592924737e-18
3.152656122e-18
2.149641526e-18
1.441942645e-18
9.516627433e-19
6.170259361e-19
3.939611834e-19
2.470011076e-19
1.518651468e-19
9.133612771e-20
5.359346244e-20
3.051463076e-20
1.696661374e-20
9.217609361e-21
4.901456123e-21
2.500795199e-21
1.237350049e-21
5.881848228e-22
2.671179098e-22
1.135559206e-22
4.627284649e-23
1.834040252e-23
7.094275637e-24
2.484013787e-24
8.13932556e-25
2.614479331e-25
7.74598186e-26
2.371187219e-26
5.825255184e-27
6.082495281e-28
1.430012052e-26
1.095667366e-25
2.060168885e-24
1.082285229e-23
)


101
(
-8.378030895e-29
-1.816372923e-18
-7.861442624e-17
-7.915403402e-16
-3.500218416e-15
-9.243481408e-15
-1.758462027e-14
-2.744053503e-14
-3.533510682e-14
-3.779951598e-14
-3.079680583e-14
-1.170912457e-14
2.079090947e-14
6.698095818e-14
1.243937268e-13
1.884822115e-13
2.535057213e-13
3.131365416e-13
3.596909442e-13
3.905204596e-13
4.023613599e-13
3.960203457e-13
3.753361734e-13
3.436665498e-13
3.053623506e-13
2.646564761e-13
2.246457813e-13
1.874383598e-13
1.543638963e-13
1.258762502e-13
1.019700567e-13
8.223703012e-14
6.613935747e-14
5.341331484e-14
4.314734768e-14
3.486696769e-14
2.803895569e-14
2.248223315e-14
1.813442005e-14
1.48106836e-14
1.22155762e-14
1.008999516e-14
8.311952271e-15
6.810449996e-15
5.545377479e-15
4.498128406e-15
3.640285441e-15
2.947649656e-15
2.386181327e-15
1.928626183e-15
1.553879117e-15
1.24599195e-15
9.947079122e-16
7.915814021e-16
6.286271847e-16
4.969104613e-16
3.908764843e-16
3.05855655e-16
2.383110827e-16
1.844444117e-16
1.418803236e-16
1.086569002e-16
8.265862959e-17
6.24837141e-17
4.700693142e-17
3.510982263e-17
2.597384915e-17
1.902482915e-17
1.377911581e-17
9.902638091e-18
7.047976816e-18
4.957203682e-18
3.437556969e-18
2.349894852e-18
1.581740862e-18
1.047959796e-18
6.842408728e-19
4.376703134e-19
2.730888761e-19
1.665857006e-19
9.9448363e-20
5.851112271e-20
3.341426297e-20
1.853472213e-20
1.001045203e-20
5.210019653e-21
2.584984854e-21
1.222332452e-21
5.635793554e-22
2.548734047e-22
1.076896554e-22
4.223124609e-23
1.647020215e-23
6.012747439e-24
2.194357275e-24
6.335716375e-25
9.362946427e-26
2.386762992e-24
1.702437348e-23
2.477051627e-22
3.808652913e-21
)


101
(
-8.378030876e-29
-1.447729538e-18
-7.196977788e-17
-7.437467477e-16
-3.295553343e-15
-8.703056213e-15
-1.654105618e-14
-2.557211766e-14
-3.236124576e-14
-3.331456671e-14
-2.425825881e-14
-2.334802182e-15
3.402948764e-14
8.5295463e-14
1.493086386e-13
2.217115786e-13
2.967022848e-13
3.675731323e-13
4.260764797e-13
4.683857035e-13
4.90179582e-13
4.911705102e-13
4.747848751e-13
4.440063206e-13
4.032488429e-13
3.57416893e-13
3.103609622e-13
2.648873204e-13
2.230431547e-13
1.858409443e-13
1.536959243e-13
1.264405091e-13
1.035748546e-13
8.508284275e-14
6.99181457e-14
5.74897899e-14
4.71553015e-14
3.856647238e-14
3.161435343e-14
2.611260381e-14
2.174448288e-14
1.816763397e-14
1.519681162e-14
1.268304113e-14
1.053712985e-14
8.72417078e-15
7.20270972e-15
5.947795911e-15
4.915166993e-15
4.061238491e-15
3.350703453e-15
2.754059159e-15
2.255868711e-15
1.842702391e-15
1.502742514e-15
1.221842889e-15
9.902522032e-16
7.98861836e-16
6.421457681e-16
5.132850238e-16
4.082467239e-16
3.235442479e-16
2.551280925e-16
2.002349206e-16
1.564816362e-16
1.217064988e-16
9.395084796e-17
7.201007742e-17
5.467374807e-17
4.118894614e-17
3.081917985e-17
2.283959433e-17
1.675148133e-17
1.213598425e-17
8.681291209e-18
6.123598093e-18
4.272137668e-18
2.936997526e-18
1.983221986e-18
1.311675333e-18
8.493225327e-19
5.41529233e-19
3.396123604e-19
2.070879996e-19
1.238479591e-19
7.203614219e-20
4.043994382e-20
2.171509811e-20
1.14080451e-20
5.849650396e-21
2.891202458e-21
1.325059374e-21
6.050056065e-22
2.648050253e-22
1.124763068e-22
4.111129804e-23
8.6535111e-24
1.825408546e-22
1.2055736e-21
1.485075883e-20
5.860861204e-20
)


101
(
-8.378030876e-29
-1.139642135e-18
-6.605053312e-17
-7.011123277e-16
-3.119162692e-15
-8.248943587e-15
-1.567582547e-14
-2.405552374e-14
-2.997907054e-14
-2.971120943e-14
-1.888340751e-14
5.656523807e-15
4.580416291e-14
1.023143489e-13
1.734343587e-13
2.550892522e-13
3.415445009e-13
4.258095191e-13
4.990605839e-13
5.563164236e-13
5.919216969e-13
6.041976441e-13
5.95828524e-13
5.692149582e-13
5.284603694e-13
4.790227063e-13
4.25567528e-13
3.716386168e-13
3.200787001e-13
2.726149964e-13
2.302965589e-13
1.933841422e-13
1.615270473e-13
1.35087133e-13
1.129566284e-13
9.450971971e-14
7.895966473e-14
6.579968273e-14
5.487435911e-14
4.595532753e-14
3.871743995e-14
3.274402309e-14
2.777034193e-14
2.355075356e-14
1.992182507e-14
1.681379574e-14
1.415280657e-14
1.190928838e-14
1.003247833e-14
8.456690148e-15
7.122599991e-15
5.986435559e-15
5.020104733e-15
4.197080359e-15
3.505450074e-15
2.92377253e-15
2.432516918e-15
2.016288738e-15
1.667160825e-15
1.372249854e-15
1.124686317e-15
9.190347412e-16
7.473714205e-16
6.058898984e-16
4.895922671e-16
3.945311673e-16
3.164283429e-16
2.522455872e-16
1.995533193e-16
1.565203207e-16
1.221209596e-16
9.454930514e-17
7.280352044e-17
5.554289705e-17
4.187522196e-17
3.120193222e-17
2.302169214e-17
1.680130974e-17
1.210441034e-17
8.567172784e-18
5.964229475e-18
4.083913743e-18
2.768975484e-18
1.833942931e-18
1.195185955e-18
7.592502254e-19
4.736777841e-19
2.834831623e-19
1.664500348e-19
9.557887479e-20
5.321546169e-20
2.802904116e-20
1.469850965e-20
7.499917951e-21
3.674807384e-21
1.652748322e-21
4.680233793e-22
7.747523001e-21
4.613504489e-20
4.587244121e-19
2.077356425e-18
)


101
(
-8.378032436e-29
-8.803843747e-19
-6.070387476e-17
-6.623397199e-16
-2.963057271e-15
-7.855137078e-15
-1.4932781e-14
-2.277466591e-14
-2.799389612e-14
-2.670439987e-14
-1.430000797e-14
1.271485908e-14
5.662068347e-14
1.185734026e-13
1.97316683e-13
2.891813804e-13
3.886445989e-13
4.885736867e-13
5.796226782e-13
6.5573572e-13
7.097222321e-13
7.381803437e-13
7.42592596e-13
7.246819305e-13
6.877314302e-13
6.374613016e-13
5.793032161e-13
5.175581802e-13
4.559148067e-13
3.969291902e-13
3.425001699e-13
2.935782094e-13
2.501474104e-13
2.131121314e-13
1.813282757e-13
1.543334411e-13
1.312491091e-13
1.113919279e-13
9.455520446e-14
8.041883265e-14
6.864763196e-14
5.877885982e-14
5.050647555e-14
4.345662361e-14
3.736205969e-14
3.209385065e-14
2.751357843e-14
2.358129372e-14
2.022413578e-14
1.735774202e-14
1.489759285e-14
1.278066867e-14
1.094882914e-14
9.35628482e-15
7.987129218e-15
6.809642186e-15
5.80033821e-15
4.922934998e-15
4.173846448e-15
3.528053277e-15
2.970362857e-15
2.495448295e-15
2.087577813e-15
1.741774212e-15
1.449438857e-15
1.203538822e-15
9.969798439e-16
8.218582057e-16
6.736772925e-16
5.485084006e-16
4.443853671e-16
3.579199101e-16
2.866954071e-16
2.282549019e-16
1.802003717e-16
1.409455907e-16
1.091495386e-16
8.380724975e-17
6.38407333e-17
4.791973384e-17
3.541890701e-17
2.588024838e-17
1.871542843e-17
1.335679101e-17
9.351618675e-18
6.415387807e-18
4.363935597e-18
2.870941486e-18
1.853326879e-18
1.174557097e-18
7.241236263e-19
4.312708064e-19
2.537773627e-19
1.471386058e-19
8.175636453e-20
4.242209217e-20
1.614367841e-20
2.011772744e-19
1.042880535e-18
7.875168811e-18
4.137729616e-17
)


101
(
-8.378032436e-29
-6.607751421e-19
-5.582009143e-17
-6.265440197e-16
-2.821849104e-15
-7.504754774e-15
-1.427776207e-14
-2.166282242e-14
-2.629353958e-14
-2.413277497e-14
-1.030834851e-14
1.906311863e-14
6.671239436e-14
1.343031713e-13
2.211851727e-13
3.242360634e-13
4.383061198e-13
5.563121567e-13
6.684919249e-13
7.678561077e-13
8.455893721e-13
8.963016839e-13
9.197463701e-13
9.166396028e-13
8.890795372e-13
8.425308302e-13
7.82920882e-13
7.152693548e-13
6.441554445e-13
5.73064626e-13
5.048982966e-13
4.415479169e-13
3.836446741e-13
3.330001614e-13
2.883298282e-13
2.495865786e-13
2.159677847e-13
1.86607509e-13
1.611899047e-13
1.393043798e-13
1.206069848e-13
1.04593904e-13
9.104580497e-14
7.942098541e-14
6.931994783e-14
6.053122499e-14
5.278708027e-14
4.602077593e-14
4.012399224e-14
3.501521394e-14
3.057932408e-14
2.672381377e-14
2.334308977e-14
2.03585372e-14
1.771839241e-14
1.541200428e-14
1.340841054e-14
1.163234408e-14
1.008573027e-14
8.729313852e-15
7.529897909e-15
6.481447558e-15
5.564043039e-15
4.763751334e-15
4.067794154e-15
3.465152815e-15
2.95123678e-15
2.505485592e-15
2.120016263e-15
1.783835571e-15
1.493845882e-15
1.244567407e-15
1.032841418e-15
8.534258129e-16
7.010705938e-16
5.711989791e-16
4.615721575e-16
3.705796379e-16
2.955624316e-16
2.333209826e-16
1.818069494e-16
1.404031799e-16
1.073556651e-16
8.145621316e-17
6.081935866e-17
4.451060815e-17
3.240601614e-17
2.307982612e-17
1.613430313e-17
1.115738773e-17
7.495789118e-18
4.932443578e-18
3.20742214e-18
2.063897901e-18
1.287906174e-18
7.534466995e-19
3.502292152e-19
3.364356233e-18
1.509338958e-17
8.496573975e-17
2.698458327e-16
)


101
(
-8.375906491e-29
-4.736507075e-19
-5.131897959e-17
-5.931172119e-16
-2.691910495e-15
-7.186692505e-15
-1.368914061e-14
-2.06796773e-14
-2.481103806e-14
-2.189868028e-14
-6.792612889e-15
2.482370022e-14
7.61962132e-14
1.496088467e-13
2.451409323e-13
3.603739747e-13
4.906954491e-13
6.293192599e-13
7.662591778e-13
8.937922611e-13
1.001490803e-12
1.081844888e-12
1.132444845e-12
1.1521527e-12
1.141849884e-12
1.10592792e-12
1.05024054e-12
9.804638267e-13
9.0211736e-13
8.196469381e-13
7.370235643e-13
6.57245378e-13
5.819180839e-13
5.144814169e-13
4.533368765e-13
3.990389507e-13
3.511030836e-13
3.085943422e-13
2.710742078e-13
2.380468973e-13
2.091792074e-13
1.838923449e-13
1.621749154e-13
1.433843025e-13
1.269504114e-13
1.125565603e-13
9.971751879e-14
8.831169959e-14
7.819975788e-14
6.931860739e-14
6.150310283e-14
5.463410896e-14
4.855965368e-14
4.312250695e-14
3.821405761e-14
3.388920577e-14
3.003545089e-14
2.657937084e-14
2.349960858e-14
2.077154826e-14
1.831698401e-14
1.611811199e-14
1.415376528e-14
1.239811984e-14
1.084082337e-14
9.457119288e-15
8.242930293e-15
7.179032741e-15
6.240952796e-15
5.403845913e-15
4.66122873e-15
4.002050726e-15
3.424703012e-15
2.920748613e-15
2.480736706e-15
2.093681773e-15
1.756175611e-15
1.46586246e-15
1.214785574e-15
1.000116938e-15
8.158389437e-16
6.597521548e-16
5.294435634e-16
4.224312445e-16
3.328309248e-16
2.575065366e-16
1.981040666e-16
1.506969711e-16
1.128267371e-16
8.337815175e-17
6.028325378e-17
4.304977248e-17
3.033598331e-17
2.121446608e-17
1.455794901e-17
9.485322121e-18
5.286547902e-18
3.709850739e-17
1.435341407e-16
6.424535397e-16
1.879048778e-15
)


101
(
-8.368444016e-29
-3.133837431e-19
-4.714198294e-17
-5.616375927e-16
-2.570805336e-15
-6.893689429e-15
-1.315310503e-14
-1.979972589e-14
-2.350554527e-14
-1.994546989e-14
-3.688386008e-15
3.00664235e-14
8.513662066e-14
1.645437843e-13
2.692348905e-13
3.976662387e-13
5.459501259e-13
7.078570067e-13
8.734965876e-13
1.034694655e-12
1.179400079e-12
1.298039712e-12
1.385699348e-12
1.438374589e-12
1.45552733e-12
1.439874341e-12
1.396553466e-12
1.331458669e-12
1.25091066e-12
1.160161597e-12
1.064256907e-12
9.674577518e-13
8.725828952e-13
7.854414984e-13
7.041544793e-13
6.300949515e-13
5.633350436e-13
5.030925955e-13
4.489988445e-13
4.006026205e-13
3.573849788e-13
3.186570625e-13
2.847342415e-13
2.550444883e-13
2.288467255e-13
2.057439065e-13
1.849738213e-13
1.662864304e-13
1.494467258e-13
1.344456253e-13
1.210452893e-13
1.091291226e-13
9.850926417e-14
8.891143708e-14
8.01628064e-14
7.230082827e-14
6.518569251e-14
5.869137306e-14
5.282106678e-14
4.755003975e-14
4.275859881e-14
3.838337921e-14
3.440084818e-14
3.07637364e-14
2.746142253e-14
2.449068766e-14
2.180483462e-14
1.940646133e-14
1.726500206e-14
1.531654404e-14
1.355627324e-14
1.195541655e-14
1.050358787e-14
9.202078781e-15
8.038411e-15
6.994880955e-15
6.05672934e-15
5.220031342e-15
4.476425087e-15
3.816115962e-15
3.229675094e-15
2.714601788e-15
2.267372403e-15
1.882725388e-15
1.551751465e-15
1.259977224e-15
1.013353226e-15
8.103907585e-16
6.407120447e-16
5.000238875e-16
3.836920952e-16
2.923049573e-16
2.200674427e-16
1.640875805e-16
1.212036653e-16
8.605733816e-17
5.512233786e-17
2.971350359e-16
9.958066313e-16
3.595125538e-15
8.586424186e-15
)


101
(
-8.363104402e-29
-1.754773701e-19
-4.324626967e-17
-5.318096307e-16
-2.456852394e-15
-6.620834471e-15
-1.266079606e-14
-1.900717876e-14
-2.234748726e-14
-1.823110951e-14
-9.588244742e-16
3.483042206e-14
9.356293294e-14
1.791039073e-13
2.93436453e-13
4.360879308e-13
6.041690017e-13
7.922553623e-13
9.908765879e-13
1.191790576e-12
1.381200783e-12
1.547784019e-12
1.683979953e-12
1.782315206e-12
1.840078986e-12
1.857740452e-12
1.839192969e-12
1.789774532e-12
1.716165758e-12
1.623943638e-12
1.519074182e-12
1.407262734e-12
1.292746447e-12
1.184273457e-12
1.079724467e-12
9.817134207e-13
8.911983903e-13
8.079231715e-13
7.319735864e-13
6.631964489e-13
6.005896051e-13
5.432070761e-13
4.918337107e-13
4.461378256e-13
4.053304372e-13
3.690715889e-13
3.363315764e-13
3.066453681e-13
2.795331113e-13
2.55077614e-13
2.328026355e-13
2.127276615e-13
1.947636615e-13
1.78396338e-13
1.633409031e-13
1.495155764e-13
1.369822689e-13
1.252965842e-13
1.146323657e-13
1.048722184e-13
9.595875489e-14
8.766970586e-14
7.999746395e-14
7.288460109e-14
6.632518379e-14
6.028886285e-14
5.471364824e-14
4.964259962e-14
4.501107394e-14
4.07806578e-14
3.689052995e-14
3.329860279e-14
2.993969379e-14
2.684328037e-14
2.400453796e-14
2.140651961e-14
1.903087894e-14
1.686419505e-14
1.486678095e-14
1.304759222e-14
1.137828683e-14
9.872151944e-15
8.512764136e-15
7.299160296e-15
6.23124208e-15
5.261925544e-15
4.391221195e-15
3.648239046e-15
3.007344387e-15
2.454852858e-15
1.972879535e-15
1.578490447e-15
1.249333317e-15
9.824609847e-16
7.661399216e-16
5.816725316e-16
4.1308967e-16
1.767126299e-15
5.18677227e-15
1.55675412e-14
3.441316651e-14
)


101
(
-8.363107536e-29
-5.643626841e-20
-3.959835786e-17
-5.034235138e-16
-2.348882458e-15
-6.36470443e-15
-1.220598435e-14
-1.829145301e-14
-2.131686892e-14
-1.672296995e-14
1.421292695e-15
3.914058451e-14
1.014893753e-13
1.932639215e-13
3.176815198e-13
4.755587236e-13
6.653712654e-13
8.828039313e-13
1.119053721e-12
1.366450826e-12
1.60900265e-12
1.834209588e-12
2.03202374e-12
2.191499884e-12
2.306921554e-12
2.375405652e-12
2.398782152e-12
2.380924629e-12
2.32833489e-12
2.246455464e-12
2.141787897e-12
2.021182864e-12
1.890254489e-12
1.76152747e-12
1.632469595e-12
1.507474041e-12
1.388830018e-12
1.277292627e-12
1.173968317e-12
1.079244808e-12
9.916633354e-13
9.097338827e-13
8.347719994e-13
7.666518704e-13
7.048269164e-13
6.494118308e-13
5.991403318e-13
5.533125113e-13
5.111470962e-13
4.726289999e-13
4.369226433e-13
4.043309553e-13
3.750389153e-13
3.481244218e-13
3.232121177e-13
3.0007612e-13
2.788894104e-13
2.589299283e-13
2.403235461e-13
2.230919899e-13
2.072783868e-13
1.923965967e-13
1.783233244e-13
1.651780875e-13
1.529352571e-13
1.413435134e-13
1.305259611e-13
1.203836832e-13
1.110531922e-13
1.024050597e-13
9.432463532e-14
8.67893561e-14
7.961622457e-14
7.283553837e-14
6.64408713e-14
6.043404149e-14
5.489419445e-14
4.972191496e-14
4.485181139e-14
4.031012603e-14
3.599874834e-14
3.200932011e-14
2.832600021e-14
2.492606292e-14
2.182775598e-14
1.898696873e-14
1.635229392e-14
1.39814471e-14
1.189704794e-14
1.005796157e-14
8.371272094e-15
6.958889819e-15
5.70665349e-15
4.671484857e-15
3.797919963e-15
3.032744947e-15
2.304466933e-15
8.061332909e-15
2.095879242e-14
5.415859358e-14
1.207387169e-13
)


101
(
-8.363110633e-29
4.649520635e-20
-3.617199556e-17
-4.76327844e-16
-2.246067971e-15
-6.122890995e-15
-1.178386047e-14
-1.764444698e-14
-2.040135356e-14
-1.539918777e-14
3.484742705e-15
4.300757331e-14
1.089225325e-13
2.070219956e-13
3.419570307e-13
5.160526836e-13
7.294847282e-13
9.794791862e-13
1.258166818e-12
1.558982865e-12
1.864019309e-12
2.160079223e-12
2.435079067e-12
2.674166973e-12
2.868363137e-12
3.010500329e-12
3.098847118e-12
3.134485307e-12
3.123133692e-12
3.069924626e-12
2.981668251e-12
2.865253057e-12
2.726502908e-12
2.583300863e-12
2.432228138e-12
2.280147228e-12
2.131099879e-12
1.987356618e-12
1.851879806e-12
1.725931519e-12
1.608103575e-12
1.495666014e-12
1.390592238e-12
1.292980383e-12
1.202697343e-12
1.120688917e-12
1.045657004e-12
9.771290334e-13
9.136631812e-13
8.550289694e-13
8.002394625e-13
7.495810612e-13
7.035084752e-13
6.610323909e-13
6.216049013e-13
5.847249393e-13
5.505246905e-13
5.181314135e-13
4.872954635e-13
4.583614765e-13
4.313852802e-13
4.060716644e-13
3.817451401e-13
3.589116179e-13
3.372948927e-13
3.164089874e-13
2.965784653e-13
2.77660805e-13
2.60056595e-13
2.433599135e-13
2.275600829e-13
2.126996159e-13
1.983487021e-13
1.846170085e-13
1.71324676e-13
1.583915241e-13
1.462318826e-13
1.346936976e-13
1.238180559e-13
1.133404657e-13
1.031760415e-13
9.353590056e-14
8.437973636e-14
7.579032798e-14
6.775059298e-14
6.018577952e-14
5.306704677e-14
4.642625268e-14
4.040119089e-14
3.503155959e-14
2.992775957e-14
2.556541817e-14
2.15644058e-14
1.81569037e-14
1.523257208e-14
1.259500825e-14
1.002033245e-14
2.966136423e-14
6.926180706e-14
1.582569477e-13
2.896014281e-13
)


101
(
-8.363104402e-29
1.356093368e-19
-3.294657635e-17
-4.504100928e-16
-2.147802019e-15
-5.893610502e-15
-1.139071211e-14
-1.706000063e-14
-1.959130081e-14
-1.424191132e-14
5.267356687e-15
4.643039626e-14
1.158509632e-13
2.203760561e-13
3.66263107e-13
5.575807768e-13
7.964156855e-13
1.082013313e-12
1.40789701e-12
1.768647456e-12
2.146403915e-12
2.527232204e-12
2.898031798e-12
3.238627582e-12
3.537139779e-12
3.781830153e-12
3.965183488e-12
4.083948062e-12
4.142432684e-12
4.144958284e-12
4.098068321e-12
4.007774015e-12
3.878484974e-12
3.734277589e-12
3.570354748e-12
3.396853656e-12
3.219821664e-12
3.043296815e-12
2.873272526e-12
2.712933923e-12
2.560736919e-12
2.412904383e-12
2.272438758e-12
2.138879302e-12
2.012439846e-12
1.895700982e-12
1.78792207e-12
1.689382665e-12
1.597093731e-12
1.511333439e-12
1.431084476e-12
1.356071519e-12
1.286582872e-12
1.222639416e-12
1.162913551e-12
1.106438165e-12
1.054233996e-12
1.00453329e-12
9.563730375e-13
9.102638409e-13
8.668283919e-13
8.259487114e-13
7.866206121e-13
7.494028818e-13
7.130475592e-13
6.782374295e-13
6.441522138e-13
6.109654158e-13
5.794386662e-13
5.49012693e-13
5.200918386e-13
4.923337755e-13
4.653470066e-13
4.392119623e-13
4.134546651e-13
3.876508579e-13
3.622733656e-13
3.382662618e-13
3.151653204e-13
2.926685887e-13
2.706205917e-13
2.490115048e-13
2.277985217e-13
2.077611329e-13
1.88566898e-13
1.7019882e-13
1.525660599e-13
1.358369038e-13
1.200872505e-13
1.059270802e-13
9.231393441e-14
8.027268793e-14
6.918526948e-14
5.938730242e-14
5.091689253e-14
4.317877354e-14
3.557024108e-14
9.142386984e-14
1.944216837e-13
4.046773724e-13
7.049344512e-13
)


101
(
-8.363104402e-29
2.129974716e-19
-2.994452595e-17
-4.255858268e-16
-2.053634978e-15
-5.675456161e-15
-1.102351636e-14
-1.653310643e-14
-1.888230586e-14
-1.32408627e-14
6.796675082e-15
4.941611137e-14
1.222561673e-13
2.332958002e-13
3.905439669e-13
6.000903326e-13
8.660909052e-13
1.190288667e-12
1.568261677e-12
1.995211722e-12
2.456715251e-12
2.93761312e-12
3.425139679e-12
3.89256496e-12
4.325188575e-12
4.707305425e-12
5.023939393e-12
5.265498946e-12
5.43378819e-12
5.531052587e-12
5.561708536e-12
5.53055442e-12
5.440232355e-12
5.320151597e-12
5.163307971e-12
4.984034381e-12
4.790295649e-12
4.587530253e-12
4.385502824e-12
4.19128662e-12
4.004154071e-12
3.819750253e-12
3.641716442e-12
3.468548103e-12
3.30040405e-12
3.142235417e-12
2.994511287e-12
2.858786302e-12
2.73082242e-12
2.611545718e-12
2.499550993e-12
2.394291718e-12
2.29534382e-12
2.203948963e-12
2.118423273e-12
2.036528118e-12
1.961300358e-12
1.889189855e-12
1.819094237e-12
1.750491945e-12
1.685036654e-12
1.622655636e-12
1.563328498e-12
1.506365425e-12
1.44956672e-12
1.395283636e-12
1.34022122e-12
1.285729607e-12
1.232534094e-12
1.181093023e-12
1.131086499e-12
1.08176333e-12
1.033581632e-12
9.86170906e-13
9.386603847e-13
8.904712625e-13
8.418050389e-13
7.936772624e-13
7.467402805e-13
7.010481103e-13
6.560077752e-13
6.102033117e-13
5.645802922e-13
5.20432245e-13
4.77540094e-13
4.358849501e-13
3.95068012e-13
3.561498431e-13
3.184156219e-13
2.840398223e-13
2.51194229e-13
2.209056115e-13
1.931378734e-13
1.680857069e-13
1.460379391e-13
1.260038837e-13
1.062883334e-13
2.441153021e-13
4.810144698e-13
9.381312876e-13
1.627159876e-12
)


101
(
-8.363110633e-29
2.804286781e-19
-2.711690965e-17
-4.017893189e-16
-1.963218049e-15
-5.467299142e-15
-1.067967206e-14
-1.60590498e-14
-1.827636354e-14
-1.240571005e-14
8.096914424e-15
5.199035551e-14
1.281425123e-13
2.4571621e-13
4.145803831e-13
6.431461466e-13
9.379379385e-13
1.303731937e-12
1.739044414e-12
2.239999007e-12
2.797001642e-12
3.394452125e-12
4.020310264e-12
4.643171174e-12
5.244090804e-12
5.804679043e-12
6.302048892e-12
6.717675715e-12
7.049233242e-12
7.294794304e-12
7.454121186e-12
7.530231445e-12
7.52455301e-12
7.4701441e-12
7.355813896e-12
7.201052486e-12
7.015756217e-12
6.805735854e-12
6.584763211e-12
6.365961124e-12
6.150978008e-12
5.935009574e-12
5.72361537e-12
5.514018487e-12
5.30509974e-12
5.104110402e-12
4.912624429e-12
4.735311943e-12
4.569330491e-12
4.413943071e-12
4.267024918e-12
4.128369465e-12
3.996855667e-12
3.874469455e-12
3.760316742e-12
3.65161137e-12
3.551305754e-12
3.453872038e-12
3.360497785e-12
3.268090021e-12
3.175477112e-12
3.088017602e-12
3.004510673e-12
2.923210924e-12
2.841804268e-12
2.76223381e-12
2.680143378e-12
2.596975624e-12
2.513632905e-12
2.431902026e-12
2.348917742e-12
2.266787865e-12
2.185280174e-12
2.103043676e-12
2.019541423e-12
1.934205488e-12
1.844908807e-12
1.753143266e-12
1.662447548e-12
1.573053744e-12
1.483825915e-12
1.391969384e-12
1.298988784e-12
1.206878541e-12
1.115007847e-12
1.026432067e-12
9.374815191e-13
8.518857643e-13
7.67598321e-13
6.896430599e-13
6.15481091e-13
5.455422244e-13
4.808553601e-13
4.220774645e-13