/*--------------------------------*- C++ -*----------------------------------*\
| =========                 |                                                 |
| \\      /  F ield         | OpenFOAM: The Open Source CFD Toolbox           |
|  \\    /   O peration     | Version:  2.3.1                                 |
|   \\  /    A nd           | Web:      www.OpenFOAM.org                      |
|    \\/     M anipulation  |                                                 |
\*---------------------------------------------------------------------------*/
FoamFile
{
    version     2.0;
    format      ascii;
    class       dictionary;
    location    "constant";
    object      GRPSI40;
}
// * * * * * * * * * * * * * * * * * * * * * * * * * * * * * * * * * * * * * //

GRPSI40_table
101
(

101
(
-7.087702809e-08
-2.460251463e-06
-5.067965998e-06
-7.585526036e-06
-9.986874375e-06
-1.22835986e-05
-1.442979723e-05
-1.63869034e-05
-1.816276604e-05
-1.97213326e-05
-2.101435145e-05
-2.207026251e-05
-2.286958094e-05
-2.33956226e-05
-2.365592155e-05
-2.359312233e-05
-2.30755054e-05
-2.190547759e-05
-2.015703806e-05
-1.696545804e-05
-1.300780687e-05
-8.00439276e-06
-1.476413006e-06
5.42175499e-06
1.226948777e-05
1.877334595e-05
2.453110187e-05
2.924121242e-05
3.289939538e-05
3.542825115e-05
3.696683987e-05
3.765829675e-05
3.776601703e-05
3.696344464e-05
3.574253659e-05
3.40251858e-05
3.038146466e-05
2.748955294e-05
3.169076291e-05
3.21426509e-05
3.159798992e-05
3.097656136e-05
3.030578051e-05
2.977708884e-05
2.944114536e-05
2.918118715e-05
2.904368144e-05
2.898785117e-05
2.904463573e-05
2.918780142e-05
2.944634005e-05
2.980964481e-05
3.027502902e-05
3.083340455e-05
3.147564651e-05
3.223608157e-05
3.316172288e-05
3.416124798e-05
3.531437964e-05
3.656116358e-05
3.794051823e-05
3.934749568e-05
4.087694345e-05
4.247773178e-05
4.409907954e-05
4.578285585e-05
4.752738093e-05
4.930547482e-05
5.105172899e-05
5.275060314e-05
5.439870085e-05
5.586746807e-05
5.707101089e-05
5.768464468e-05
5.483359438e-05
5.735921376e-05
6.387092203e-05
6.750837613e-05
6.943583927e-05
7.067794439e-05
7.152803153e-05
7.187921099e-05
7.120585856e-05
6.75897198e-05
7.234546433e-05
7.607712607e-05
7.663222663e-05
7.61167903e-05
7.442800764e-05
6.826976498e-05
7.300219069e-05
7.31860238e-05
6.856007965e-05
6.846423279e-05
6.476393037e-05
6.602282744e-05
6.296881292e-05
7.270805759e-05
8.254158895e-05
9.316355238e-05
0.000103762311
)


101
(
-7.087702794e-08
-2.46030231e-06
-5.06829865e-06
-7.587454644e-06
-9.990978931e-06
-1.229056555e-05
-1.44417303e-05
-1.640649534e-05
-1.819120307e-05
-1.976121899e-05
-2.10686889e-05
-2.2138259e-05
-2.295260721e-05
-2.349514213e-05
-2.377225872e-05
-2.373227249e-05
-2.325176782e-05
-2.214195408e-05
-2.045242519e-05
-1.741427377e-05
-1.354938394e-05
-8.663674875e-06
-2.319118744e-06
4.537071778e-06
1.142703725e-05
1.80337893e-05
2.397012487e-05
2.892563519e-05
3.284938284e-05
3.566958479e-05
3.74917854e-05
3.845220724e-05
3.878737398e-05
3.827206812e-05
3.725071345e-05
3.572857394e-05
3.263167274e-05
2.982689543e-05
3.260027847e-05
3.355697628e-05
3.345872452e-05
3.304120724e-05
3.249446779e-05
3.202271894e-05
3.171330128e-05
3.150631576e-05
3.14240593e-05
3.143303068e-05
3.155075526e-05
3.175952739e-05
3.207933513e-05
3.250632244e-05
3.304371115e-05
3.369422703e-05
3.443812846e-05
3.528799433e-05
3.627957987e-05
3.736596944e-05
3.859285234e-05
3.992545959e-05
4.138941948e-05
4.290960667e-05
4.453759995e-05
4.626079026e-05
4.804242681e-05
4.987597792e-05
5.176374332e-05
5.3695419e-05
5.563369602e-05
5.75317382e-05
5.940107368e-05
6.114274213e-05
6.269928913e-05
6.377391856e-05
6.228057858e-05
6.378923578e-05
6.869620308e-05
7.26955382e-05
7.543722094e-05
7.721730171e-05
7.842440124e-05
7.921781435e-05
7.921866086e-05
7.681666484e-05
7.925946517e-05
8.271783399e-05
8.440794087e-05
8.451373114e-05
8.36387575e-05
7.969291013e-05
8.119797075e-05
8.234852211e-05
7.977604968e-05
7.858478984e-05
7.694409943e-05
7.635106321e-05
7.299266574e-05
8.418730497e-05
9.55406798e-05
0.000108210574
0.0001208848004
)


101
(
-7.087702794e-08
-2.460402392e-06
-5.068953278e-06
-7.591250484e-06
-9.99901361e-06
-1.230409056e-05
-1.446474273e-05
-1.644416109e-05
-1.824579676e-05
-1.983767405e-05
-2.117286022e-05
-2.226884872e-05
-2.311216183e-05
-2.368669074e-05
-2.399690269e-05
-2.400159485e-05
-2.359359706e-05
-2.260185364e-05
-2.103378742e-05
-1.828860025e-05
-1.462883854e-05
-9.984372112e-06
-4.001626087e-06
2.722660641e-06
9.655124539e-06
1.643293329e-05
2.268792495e-05
2.809667844e-05
3.252774632e-05
3.59058842e-05
3.827959442e-05
3.976589845e-05
4.055591122e-05
4.058223266e-05
3.998398984e-05
3.881375103e-05
3.662759008e-05
3.4098263e-05
3.46740102e-05
3.596501294e-05
3.657781234e-05
3.662668736e-05
3.637023351e-05
3.603373419e-05
3.577857472e-05
3.564759322e-05
3.56467902e-05
3.575977875e-05
3.597581507e-05
3.629108758e-05
3.670782401e-05
3.723351073e-05
3.787411574e-05
3.864218339e-05
3.952336607e-05
4.051198493e-05
4.161173232e-05
4.28260993e-05
4.416661269e-05
4.562578854e-05
4.721440109e-05
4.890319918e-05
5.069266507e-05
5.259382617e-05
5.45916053e-05
5.664567471e-05
5.876174291e-05
6.092943568e-05
6.315553831e-05
6.538196802e-05
6.760824431e-05
6.980013928e-05
7.192721544e-05
7.380836959e-05
7.445349663e-05
7.513709431e-05
7.765262624e-05
8.142446928e-05
8.516727971e-05
8.804411544e-05
9.003726511e-05
9.156251525e-05
9.268205038e-05
9.246217662e-05
9.252276167e-05
9.460104657e-05
9.747377835e-05
9.894750832e-05
9.919175383e-05
9.818531477e-05
9.691318108e-05
9.773874849e-05
9.825489939e-05
9.669667079e-05
9.650020471e-05
9.455160783e-05
9.068510671e-05
0.0001038705638
0.000117236382
0.0001320829036
0.0001469967495
)


101
(
-7.087702794e-08
-2.460499228e-06
-5.069587339e-06
-7.594927506e-06
-1.000671296e-05
-1.231683561e-05
-1.448613779e-05
-1.647897493e-05
-1.829616247e-05
-1.99080732e-05
-2.126894633e-05
-2.238997512e-05
-2.326066188e-05
-2.386587078e-05
-2.420878645e-05
-2.425707388e-05
-2.391895291e-05
-2.304114925e-05
-2.160081477e-05
-1.912420604e-05
-1.570146817e-05
-1.131176964e-05
-5.682933806e-06
8.278939897e-07
7.720497886e-06
1.459903672e-05
2.109806779e-05
2.688761551e-05
3.177785768e-05
3.56689895e-05
3.856499949e-05
4.05561565e-05
4.179912866e-05
4.231434925e-05
4.217478373e-05
4.143006713e-05
3.981070309e-05
3.766996332e-05
3.712137214e-05
3.789767289e-05
3.878978143e-05
3.929071594e-05
3.939121094e-05
3.925857053e-05
3.908711613e-05
3.899826089e-05
3.903417563e-05
3.919991798e-05
3.947338399e-05
3.985183658e-05
4.032710953e-05
4.090707216e-05
4.159512225e-05
4.240198414e-05
4.332822526e-05
4.436938089e-05
4.553123377e-05
4.680403266e-05
4.819970269e-05
4.971059625e-05
5.134818854e-05
5.310669049e-05
5.497884746e-05
5.696113843e-05
5.904481167e-05
6.120372468e-05
6.344543682e-05
6.575751287e-05
6.813593005e-05
7.055974473e-05
7.299100855e-05
7.544396473e-05
7.789378873e-05
8.030031314e-05
8.216662332e-05
8.348911011e-05
8.515769101e-05
8.789411542e-05
9.153907605e-05
9.51822594e-05
9.803790166e-05
0.0001001611684
0.0001019638456
0.0001032105716
0.000103773349
0.0001046159278
0.0001068613519
0.0001094039389
0.0001105787601
0.0001107471288
0.0001104090176
0.0001099912685
0.0001109876966
0.0001107389499
0.0001100022821
0.0001090430092
0.0001062024655
0.0001197010922
0.0001332927988
0.000147624771
0.0001619368254
)


101
(
-7.087703454e-08
-2.460593046e-06
-5.070202839e-06
-7.598494219e-06
-1.001410439e-05
-1.23288754e-05
-1.450608977e-05
-1.651128997e-05
-1.834292867e-05
-1.997349665e-05
-2.135864248e-05
-2.2504081e-05
-2.340157547e-05
-2.403729022e-05
-2.441364133e-05
-2.450576062e-05
-2.423615184e-05
-2.346901826e-05
-2.216077416e-05
-1.993397739e-05
-1.676744415e-05
-1.264782831e-05
-7.369208029e-06
-1.129262676e-06
5.646186038e-06
1.255374294e-05
1.922533098e-05
2.532642843e-05
3.062521662e-05
3.49893892e-05
3.838369524e-05
4.086285482e-05
4.255615341e-05
4.352703714e-05
4.383946468e-05
4.356489143e-05
4.242067795e-05
4.068710204e-05
3.964714903e-05
3.978980072e-05
4.056115754e-05
4.131825004e-05
4.176798136e-05
4.191038765e-05
4.188722624e-05
4.185553572e-05
4.191384146e-05
4.210264388e-05
4.241280622e-05
4.283121123e-05
4.334635074e-05
4.395915034e-05
4.467376822e-05
4.55007924e-05
4.644281392e-05
4.749174416e-05
4.866815679e-05
4.995804935e-05
5.13722635e-05
5.289839799e-05
5.454009526e-05
5.631068788e-05
5.819778972e-05
6.020387957e-05
6.232317592e-05
6.453407403e-05
6.683492975e-05
6.922721904e-05
7.168593712e-05
7.422230404e-05
7.678267758e-05
7.937369481e-05
8.198187408e-05
8.463227385e-05
8.712783636e-05
8.923271778e-05
9.109791423e-05
9.329225585e-05
9.631794527e-05
0.000100033164
0.000103577442
0.0001063911279
0.000108661441
0.0001106475237
0.0001121852659
0.0001132938054
0.0001147403682
0.0001172694088
0.0001194582755
0.0001204914526
0.0001209506498
0.0001210148581
0.0001213926738
0.0001219218774
0.0001215413519
0.0001213553054
0.0001203013005
0.0001328516255
0.0001456658163
0.0001604204026
0.0001752545147
)


101
(
-7.08770281e-08
-2.460683148e-06
-5.070799858e-06
-7.601956069e-06
-1.002121011e-05
-1.234027474e-05
-1.45247516e-05
-1.654141093e-05
-1.838662589e-05
-2.003483426e-05
-2.144331477e-05
-2.261308809e-05
-2.353757552e-05
-2.420444476e-05
-2.461574618e-05
-2.475287507e-05
-2.455134048e-05
-2.389225083e-05
-2.271893347e-05
-2.072720824e-05
-1.782704582e-05
-1.399175107e-05
-9.063355124e-06
-3.135393384e-06
3.453711252e-06
1.031832596e-05
1.7091437e-05
2.343509429e-05
2.908745814e-05
3.388306452e-05
3.774989706e-05
4.070443384e-05
4.284748573e-05
4.425611625e-05
4.500025002e-05
4.513459938e-05
4.450859196e-05
4.320707374e-05
4.203829707e-05
4.169944239e-05
4.215212115e-05
4.293586539e-05
4.363616461e-05
4.407098314e-05
4.42631343e-05
4.434313546e-05
4.44455496e-05
4.465856211e-05
4.500133822e-05
4.545883885e-05
4.601775896e-05
4.666934035e-05
4.741650293e-05
4.826883122e-05
4.923648351e-05
5.030877198e-05
5.149157182e-05
5.279124814e-05
5.421253304e-05
5.575277443e-05
5.740714618e-05
5.918539456e-05
6.107899604e-05
6.308486577e-05
6.521080611e-05
6.744803356e-05
6.978017168e-05
7.220561863e-05
7.470765128e-05
7.729455113e-05
7.994869296e-05
8.264120064e-05
8.535251948e-05
8.810374865e-05
9.08546026e-05
9.345720632e-05
9.58108961e-05
9.803581546e-05
0.0001005997813
0.0001039174675
0.0001076849355
0.0001111388335
0.0001139156664
0.0001163151661
0.0001184753796
0.0001202803796
0.0001218263083
0.0001238902844
0.0001265127736
0.0001283337697
0.0001293807961
0.0001301023045
0.0001306620754
0.0001315593099
0.0001317252843
0.0001318478299
0.0001317791609
0.0001443193376
0.0001572165139
0.0001725267494
0.0001879320758
)


101
(
-7.087702794e-08
-2.460770135e-06
-5.071381237e-06
-7.605322372e-06
-1.002805611e-05
-1.235110068e-05
-1.454227327e-05
-1.656961961e-05
-1.842771283e-05
-2.00928219e-05
-2.152406307e-05
-2.27184895e-05
-2.367070959e-05
-2.436998268e-05
-2.481832129e-05
-2.500236326e-05
-2.486929596e-05
-2.43162986e-05
-2.327958188e-05
-2.151126731e-05
-1.888155259e-05
-1.534222787e-05
-1.076669368e-05
-5.180851251e-06
1.162088022e-06
7.913394892e-06
1.471613849e-05
2.123221757e-05
2.717873326e-05
3.235985818e-05
3.666755541e-05
4.008358862e-05
4.267499086e-05
4.451518863e-05
4.568653663e-05
4.623949859e-05
4.609489896e-05
4.525356177e-05
4.419626941e-05
4.358138626e-05
4.368701141e-05
4.432993204e-05
4.514461931e-05
4.583660422e-05
4.629280408e-05
4.656358213e-05
4.677363767e-05
4.704515132e-05
4.743958638e-05
4.796126777e-05
4.859850245e-05
4.933203542e-05
5.016244783e-05
5.109512501e-05
5.214074333e-05
5.329553255e-05
5.455869335e-05
5.592957652e-05
5.741356625e-05
5.901606843e-05
6.073747152e-05
6.257699917e-05
6.453357622e-05
6.659618406e-05
6.876777476e-05
7.105316721e-05
7.34346847e-05
7.591786298e-05
7.848150757e-05
8.111528867e-05
8.383843954e-05
8.661210263e-05
8.94128337e-05
9.223328793e-05
9.50830664e-05
9.790536283e-05
0.0001006103404
0.0001031158602
0.0001055960865
0.0001084766018
0.0001119896662
0.0001157108307
0.000118982337
0.0001217100438
0.0001241986891
0.0001264668116
0.0001284233753
0.0001303961496
0.0001329426315
0.0001353476616
0.0001369503138
0.0001380959157
0.000139019821
0.0001402136524
0.0001408015651
0.0001413808775
0.000142336515
0.0001557125881
0.0001693773348
0.0001844301631
0.0001994687551
)


101
(
-7.087702794e-08
-2.460853711e-06
-5.071947842e-06
-7.608599265e-06
-1.003466281e-05
-1.236140991e-05
-1.455878675e-05
-1.659616561e-05
-1.846657904e-05
-2.014806664e-05
-2.160177177e-05
-2.282145168e-05
-2.380253049e-05
-2.453587147e-05
-2.502370658e-05
-2.525705716e-05
-2.519348546e-05
-2.47451995e-05
-2.384586266e-05
-2.229143682e-05
-1.993207868e-05
-1.669713908e-05
-1.247814646e-05
-7.256860051e-06
-1.210420881e-06
5.361136373e-06
1.212146534e-05
1.873805785e-05
2.491489899e-05
3.043049769e-05
3.514333113e-05
3.900022585e-05
4.203450763e-05
4.430336502e-05
4.589765274e-05
4.687258429e-05
4.719326417e-05
4.682837828e-05
4.604288661e-05
4.536225099e-05
4.520450964e-05
4.563974283e-05
4.645232192e-05
4.73381699e-05
4.808232892e-05
4.863050165e-05
4.905340471e-05
4.947535762e-05
4.999758858e-05
5.065582842e-05
5.144496395e-05
5.234985471e-05
5.336506808e-05
5.448171105e-05
5.571494262e-05
5.706996963e-05
5.853476688e-05
6.010121759e-05
6.177801061e-05
6.356297673e-05
6.545859356e-05
6.746782758e-05
6.957974374e-05
7.180199639e-05
7.412049025e-05
7.654458365e-05
7.905999076e-05
8.166217542e-05
8.433720592e-05
8.70580657e-05
8.98578262e-05
9.270449889e-05
9.560427136e-05
9.851260195e-05
0.0001014220789
0.0001043290254
0.0001071951723
0.0001099356989
0.0001125318831
0.0001151797151
0.0001182690254
0.0001218245646
0.0001253610239
0.0001283653938
0.0001310237727
0.0001334811161
0.0001357251748
0.0001377783157
0.000140094069
0.0001427017838
0.0001447055474
0.0001461644165
0.0001473609882
0.0001487171746
0.0001496322819
0.0001507691488
0.0001522497403
0.000166136233
0.000180303756
0.0001956321735
0.0002111058245
)


101
(
-7.087704114e-08
-2.460934255e-06
-5.072501868e-06
-7.611794277e-06
-1.004105172e-05
-1.237125521e-05
-1.457440644e-05
-1.662126051e-05
-1.850355496e-05
-2.02010671e-05
-2.167714435e-05
-2.292287493e-05
-2.393420464e-05
-2.470356661e-05
-2.523360777e-05
-2.551900383e-05
-2.552643911e-05
-2.518197891e-05
-2.442015064e-05
-2.307164328e-05
-2.097969479e-05
-1.805415127e-05
-1.419506993e-05
-9.355026451e-06
-3.646412508e-06
2.68472964e-06
9.33210374e-06
1.597590688e-05
2.231484095e-05
2.810783286e-05
3.31836166e-05
3.74550045e-05
4.092154898e-05
4.361607775e-05
4.563050314e-05
4.702745985e-05
4.780604633e-05
4.793113448e-05
4.753131924e-05
4.698081583e-05
4.671315036e-05
4.697248079e-05
4.772681649e-05
4.875097271e-05
4.979234099e-05
5.070140795e-05
5.146681922e-05
5.218069778e-05
5.295662419e-05
5.386358677e-05
5.491855973e-05
5.61180955e-05
5.744381709e-05
5.887822416e-05
6.043235829e-05
6.210574246e-05
6.389901083e-05
6.578182766e-05
6.777671208e-05
6.987360977e-05
7.206186128e-05
7.435317834e-05
7.672469087e-05
7.919237152e-05
8.174357894e-05
8.437790007e-05
8.709477839e-05
8.986371793e-05
9.269022879e-05
9.554925053e-05
9.846003427e-05
0.0001014096951
0.0001043897148
0.0001073812756
0.0001103568024
0.0001133199717
0.0001162368401
0.0001190869943
0.0001218197276
0.0001244294014
0.0001271827707
0.0001303687052
0.0001338317404
0.0001370261436
0.0001397693777
0.000142257124
0.0001446122866
0.0001467237702
0.0001488516248
0.0001513234099
0.0001534899722
0.0001551367625
0.0001565296818
0.0001578975008
0.0001590576565
0.000160381642
0.0001621540143
0.0001764204322
0.0001907910889
0.0002053200517
0.0002198683939
)


101
(
-7.087704114e-08
-2.461010691e-06
-5.073042381e-06
-7.614909635e-06
-1.004723676e-05
-1.238067747e-05
-1.458922262e-05
-1.664506981e-05
-1.853891118e-05
-2.025222528e-05
-2.17507266e-05
-2.302342305e-05
-2.406656475e-05
-2.487408623e-05
-2.54491949e-05
-2.578960272e-05
-2.586992641e-05
-2.562884368e-05
-2.500417149e-05
-2.3854737e-05
-2.202537821e-05
-1.941112032e-05
-1.591426715e-05
-1.146763309e-05
-6.130332856e-06
-9.384615788e-08
6.372929851e-06
1.29704008e-05
1.93998998e-05
2.540757281e-05
3.079754872e-05
3.545109716e-05
3.933423112e-05
4.245048098e-05
4.488561698e-05
4.670750728e-05
4.794385701e-05
4.857320203e-05
4.864504994e-05
4.839922658e-05
4.821142206e-05
4.840863194e-05
4.912348854e-05
5.026043778e-05
5.159878351e-05
5.2931626e-05
5.415698022e-05
5.530279159e-05
5.646115587e-05
5.772853096e-05
5.91528889e-05
6.074418845e-05
6.247728511e-05
6.433152198e-05
6.628341338e-05
6.835042622e-05
7.054933076e-05
7.282713498e-05
7.520352611e-05
7.767110817e-05
8.020636736e-05
8.281739808e-05
8.550517469e-05
8.825422767e-05
9.105594446e-05
9.390334585e-05
9.682962447e-05
9.97873784e-05
0.0001027897483
0.0001058123155
0.0001088469445
0.0001119010266
0.0001149544222
0.0001180103732
0.000121051561
0.0001240480507
0.0001269811686
0.0001298689053
0.0001326718918
0.0001353328346
0.0001379237333
0.0001407600046
0.0001439277875
0.0001471405396
0.0001499384399
0.0001524057527
0.0001547253869
0.0001568489341
0.0001588389914
0.0001610840073
0.0001632552184
0.0001649931404
0.0001664356954
0.0001677501679
0.0001690292216
0.0001703891394
0.0001724907973
0.0001864857855
0.0002002672174
0.0002124483845
0.0002244133539
)


101
(
-7.087701376e-08
-2.461082396e-06
-5.073569382e-06
-7.617949039e-06
-1.005323231e-05
-1.238971594e-05
-1.460331932e-05
-1.666774234e-05
-1.85728803e-05
-2.030187646e-05
-2.182295057e-05
-2.312358756e-05
-2.420018739e-05
-2.504809322e-05
-2.567118752e-05
-2.606969861e-05
-2.622504663e-05
-2.608725347e-05
-2.559909757e-05
-2.464265533e-05
-2.306985701e-05
-2.076616556e-05
-1.763259032e-05
-1.358779571e-05
-8.64861081e-06
-2.954226991e-06
3.268799376e-06
9.747871003e-06
1.619461736e-05
2.234977109e-05
2.799918186e-05
3.299694196e-05
3.72771591e-05
4.081055606e-05
4.36715597e-05
4.592754326e-05
4.762856748e-05
4.877664331e-05
4.938449255e-05
4.958838841e-05
4.967398678e-05
4.997375731e-05
5.072779876e-05
5.19806204e-05
5.359776484e-05
5.536730807e-05
5.711244884e-05
5.877861158e-05
6.04137745e-05
6.211706162e-05
6.395751759e-05
6.596444408e-05
6.812610093e-05
7.041199315e-05
7.277847961e-05
7.526804408e-05
7.785680206e-05
8.053385715e-05
8.327371605e-05
8.609641417e-05
8.897311858e-05
9.188582007e-05
9.485762454e-05
9.786186694e-05
0.0001009006245
0.00010395327
0.0001070449462
0.0001101752166
0.0001133309253
0.0001164848079
0.0001196252777
0.0001227569353
0.0001258853994
0.0001289935979
0.0001320715766
0.0001350830733
0.0001380281671
0.0001409195737
0.0001437070602
0.0001464006219
0.0001489687924
0.0001515580707
0.0001543985937
0.0001574420541
0.000160250015
0.0001626798705
0.0001648981585
0.0001669970551
0.0001688922633
0.0001708915257
0.0001729627596
0.0001747001624
0.0001761138666
0.0001773738505
0.0001786833122
0.000180076722
0.0001821765762
0.0001947735358
0.0002068577927
0.0002156992601
0.0002242387134
)


101
(
-7.08770096e-08
-2.461151014e-06
-5.074087441e-06
-7.620923422e-06
-1.005906151e-05
-1.239841749e-05
-1.461678533e-05
-1.668942682e-05
-1.860567451e-05
-2.035030465e-05
-2.18941607e-05
-2.322373285e-05
-2.433545781e-05
-2.52259843e-05
-2.589995847e-05
-2.635969482e-05
-2.65923657e-05
-2.655807465e-05
-2.620561536e-05
-2.543674672e-05
-2.41136072e-05
-2.211725841e-05
-1.934624704e-05
-1.570810501e-05
-1.118696506e-05
-5.874277711e-06
4.764645041e-08
6.338895806e-06
1.272874096e-05
1.896049376e-05
2.480889239e-05
3.010640039e-05
3.475897257e-05
3.870361661e-05
4.199841258e-05
4.470338709e-05
4.688223305e-05
4.856184718e-05
4.974668488e-05
5.050430493e-05
5.102579284e-05
5.15962244e-05
5.249631285e-05
5.38834081e-05
5.573485848e-05
5.788771046e-05
6.013416986e-05
6.234135638e-05
6.448956053e-05
6.665198865e-05
6.890402062e-05
7.12959575e-05
7.383827522e-05
7.650523736e-05
7.926194209e-05
8.21132009e-05
8.503564871e-05
8.803525851e-05
9.108177101e-05
9.419018149e-05
9.734761246e-05
0.0001005194114
0.000103716617
0.0001069249638
0.0001101505159
0.0001133897137
0.0001166076491
0.0001198487697
0.0001231002176
0.0001263391381
0.00012955702
0.0001327457193
0.0001358970601
0.0001390165988
0.0001420998168
0.0001451262596
0.0001480648618
0.000150917569
0.0001536693309
0.0001563312032
0.0001588738265
0.0001613171274
0.0001638715792
0.0001666353282
0.0001693588131
0.0001717558119
0.0001738515627
0.0001758485489
0.0001776561499
0.0001793967613
0.0001812813723
0.0001829567208
0.0001843010782
0.0001854680858
0.0001867037795
0.0001881300848
0.000190210401
0.0002001268418
0.0002093391744
0.0002142885549
0.0002191030166
)


101
(
-7.087700674e-08
-2.461215372e-06
-5.074595245e-06
-7.623834959e-06
-1.006473533e-05
-1.240681234e-05
-1.462968498e-05
-1.671023564e-05
-1.863746189e-05
-2.039772981e-05
-2.196458856e-05
-2.332407271e-05
-2.447255254e-05
-2.540786864e-05
-2.613551799e-05
-2.665954747e-05
-2.697199429e-05
-2.704178588e-05
-2.682419863e-05
-2.623801647e-05
-2.515685347e-05
-2.346207627e-05
-2.105017258e-05
-1.782007879e-05
-1.373070873e-05
-8.831453311e-06
-3.261103634e-06
2.777106565e-06
9.036742154e-06
1.527198303e-05
2.125419437e-05
2.680042185e-05
3.179327187e-05
3.613802684e-05
3.987219712e-05
4.304089676e-05
4.571052824e-05
4.792691851e-05
4.970134445e-05
5.106542427e-05
5.21296755e-05
5.310488872e-05
5.425561348e-05
5.580335651e-05
5.783093903e-05
6.026357362e-05
6.291856478e-05
6.561273128e-05
6.825102612e-05
7.085524848e-05
7.348044155e-05
7.61974651e-05
7.904611281e-05
8.20135236e-05
8.507386656e-05
8.818705393e-05
9.137723999e-05
9.461523691e-05
9.790377868e-05
0.0001012162472
0.0001045715288
0.0001079279595
0.0001112883737
0.0001146456624
0.0001180005543
0.0001213576783
0.0001246779543
0.0001279800999
0.0001312648706
0.0001345375021
0.0001377789131
0.0001409815872
0.0001441199399
0.0001472086815
0.0001502534612
0.0001532474323
0.0001561453927
0.0001589319356
0.0001616093932
0.000164183843
0.0001666410665
0.0001689688379
0.000171269535
0.0001737044353
0.0001762250284
0.0001785305155
0.000180484444
0.0001822886666
0.0001839415569
0.0001854580678
0.0001870550033
0.0001885720956
0.0001898092618
0.0001908187634
0.0001918796065
0.0001931925963
0.0001951378411
0.0002016376731
0.0002073019661
0.0002082290712
0.0002090067665
)


101
(
-7.08770333e-08
-2.461276065e-06
-5.075095482e-06
-7.626691476e-06
-1.007027165e-05
-1.241493742e-05
-1.464208754e-05
-1.673027976e-05
-1.86683971e-05
-2.044435119e-05
-2.203441383e-05
-2.342473671e-05
-2.461152561e-05
-2.559367088e-05
-2.637762869e-05
-2.696889235e-05
-2.736367259e-05
-2.75385204e-05
-2.745512046e-05
-2.704733356e-05
-2.619995302e-05
-2.47987372e-05
-2.273958541e-05
-1.991574909e-05
-1.626698258e-05
-1.180608407e-05
-6.630149466e-06
-9.035033205e-07
5.156852279e-06
1.132285682e-05
1.737002186e-05
2.310722349e-05
2.83993235e-05
3.312248409e-05
3.729080736e-05
4.092772132e-05
4.409127395e-05
4.683633302e-05
4.91856156e-05
5.115663078e-05
5.280499871e-05
5.426620063e-05
5.57512803e-05
5.749330794e-05
5.965038489e-05
6.224723434e-05
6.517051025e-05
6.823250769e-05
7.12831867e-05
7.427355862e-05
7.722190577e-05
8.020105697e-05
8.327590179e-05
8.645161665e-05
8.971461437e-05
9.302132549e-05
9.638874619e-05
9.979605029e-05
0.0001032363574
0.0001066856324
0.0001101619197
0.0001136305569
0.0001170813465
0.0001205246196
0.0001239600326
0.0001273636047
0.0001307355731
0.0001340573743
0.0001373370499
0.0001405924251
0.0001438001106
0.0001469586978
0.0001500469681
0.0001530632836
0.0001560172966
0.000158911754
0.0001617203564
0.00016440533
0.0001669495103
0.0001693802343
0.0001716900402
0.0001738600599
0.0001759216279
0.0001780151159
0.0001802077547
0.0001823022602
0.000184072484
0.0001856304958
0.0001870281537
0.000188280003
0.0001895358128
0.000190761055
0.0001917824284
0.0001925687291
0.0001933390532
0.000194404986
0.0001961047071
0.0001988339845
0.0002007467343
0.0001983101605
0.0001949865771
)


101
(
-7.087705955e-08
-2.461331812e-06
-5.07558708e-06
-7.629494905e-06
-1.007568038e-05
-1.242281818e-05
-1.46540459e-05
-1.674964608e-05
-1.869859442e-05
-2.049031554e-05
-2.210376888e-05
-2.352574507e-05
-2.475229962e-05
-2.578317853e-05
-2.662590533e-05
-2.728719105e-05
-2.776674758e-05
-2.804774626e-05
-2.809774628e-05
-2.786381696e-05
-2.724189119e-05
-2.612505815e-05
-2.441090232e-05
-2.198860493e-05
-1.878431632e-05
-1.478024878e-05
-1.003381276e-05
-4.66934321e-06
1.128986417e-06
7.155537541e-06
1.319598543e-05
1.905878819e-05
2.459783141e-05
2.966229495e-05
3.424176048e-05
3.83329352e-05
4.197662771e-05
4.522586651e-05
4.811153212e-05
5.06487656e-05
5.286566433e-05
5.483607136e-05
5.670391613e-05
5.867486629e-05
6.094240615e-05
6.361124559e-05
6.665626761e-05
6.993748178e-05
7.328071922e-05
7.657110687e-05
7.978997254e-05
8.298146768e-05
8.62086328e-05
8.951092086e-05
9.289421683e-05
9.632226539e-05
9.978336248e-05
0.0001032832807
0.0001067975389
0.0001103173024
0.0001138401009
0.0001173580751
0.0001208462049
0.000124315924
0.0001277613712
0.0001311646897
0.0001345326892
0.0001378361687
0.0001410841452
0.000144271651
0.0001473976796
0.0001504575351
0.000153443251
0.0001563433916
0.0001591601058
0.0001619026574
0.0001645562448
0.0001670815732
0.0001694541571
0.0001716806282
0.0001737764196
0.0001757249045
0.0001775296009
0.0001792691182
0.0001810614323
0.0001828305625
0.0001843291364
0.0001855879463
0.0001866522585
0.0001875492239
0.0001884218178
0.0001892477654
0.0001899189079
0.0001903907896
0.0001907641606
0.0001914626316
0.0001927596977
0.0001919307993
0.0001904763039
0.0001859679948
0.0001816230802
)


101
(
-7.087700674e-08
-2.461379496e-06
-5.076065052e-06
-7.632241477e-06
-1.008096317e-05
-1.243046858e-05
-1.466559601e-05
-1.676839658e-05
-1.872813632e-05
-2.053572887e-05
-2.217274734e-05
-2.362702244e-05
-2.489467346e-05
-2.597606909e-05
-2.687985455e-05
-2.761379866e-05
-2.818030603e-05
-2.856828733e-05
-2.87506141e-05
-2.86849176e-05
-2.828024321e-05
-2.743807959e-05
-2.606060231e-05
-2.403275673e-05
-2.127199603e-05
-1.773670892e-05
-1.344686235e-05
-8.48731455e-06
-3.008094431e-06
2.811403322e-06
8.772508137e-06
1.468881222e-05
2.040901536e-05
2.575922411e-05
3.070493011e-05
3.521380862e-05
3.930364077e-05
4.301625552e-05
4.638302957e-05
4.942168004e-05
5.214932399e-05
5.460162445e-05
5.686251773e-05
5.908785121e-05
6.146745516e-05
6.415397961e-05
6.7206241e-05
7.056102819e-05
7.405987435e-05
7.755344825e-05
8.097837339e-05
8.433318721e-05
8.766023009e-05
9.102615243e-05
9.44526547e-05
9.7920454e-05
0.0001014120791
0.0001049313203
0.0001084613412
0.0001119892922
0.0001155060288
0.0001190133574
0.000122493118
0.0001259363269
0.0001293353233
0.000132692845
0.0001360013801
0.000139248423
0.0001424173391
0.0001455060429
0.0001485166305
0.0001514391358
0.0001542741488
0.00015701058
0.0001596453013
0.0001621889349
0.0001646349637
0.0001669558573
0.0001691126953
0.0001710943057
0.0001729219648
0.000174595813
0.0001761119047
0.0001774871824
0.0001788509764
0.0001802157457
0.0001813637583
0.0001822613996
0.0001829573642
0.0001834424019
0.000183870461
0.0001842514587
0.0001844636234
0.0001845344862
0.0001844496292
0.0001846657742
0.0001853673747
0.0001818344223
0.0001779546117
0.0001727589896
0.0001681798497
)


101
(
-7.087700674e-08
-2.461423399e-06
-5.076529831e-06
-7.634950113e-06
-1.008615103e-05
-1.243793729e-05
-1.467681225e-05
-1.678663217e-05
-1.875713553e-05
-2.058072428e-05
-2.224147882e-05
-2.372852839e-05
-2.503844423e-05
-2.617198769e-05
-2.713889743e-05
-2.794793221e-05
-2.860334963e-05
-2.909895668e-05
-2.94126075e-05
-2.950900416e-05
-2.9313708e-05
-2.873591494e-05
-2.768509237e-05
-2.604213679e-05
-2.371882365e-05
-2.06567709e-05
-1.684285015e-05
-1.232420872e-05
-7.216590315e-06
-1.669966211e-06
4.13860034e-06
1.003107727e-05
1.585359581e-05
2.141581864e-05
2.666087561e-05
3.152813664e-05
3.600981994e-05
4.012989154e-05
4.391176095e-05
4.737393235e-05
5.053196224e-05
5.340699866e-05
5.603616658e-05
5.85223522e-05
6.10249307e-05
6.371126652e-05
6.670128724e-05
7.000746133e-05
7.353046322e-05
7.712071276e-05
8.067179353e-05
8.413784483e-05
8.753092604e-05
9.091479685e-05
9.43282485e-05
9.777388332e-05
0.0001012384445
0.0001047189339
0.0001082074953
0.0001116916209
0.0001151620456
0.0001186109498
0.0001220317446
0.0001254013651
0.0001287156038
0.0001319781287
0.0001351849787
0.0001383264392
0.0001413816476
0.0001443429853
0.0001472094541
0.0001499698885
0.0001526235621
0.000155162173
0.0001575833115
0.0001598939291
0.0001620943803
0.0001641798027
0.0001660973577
0.0001678164016
0.0001693451536
0.0001707196271
0.0001719233737
0.0001729453706
0.000173887087
0.0001748217063
0.0001755968767
0.000176099902
0.0001764202459
0.0001764990363
0.0001764434814
0.0001763881212
0.0001761202036
0.0001757319705
0.000175203925
0.0001748828004
0.0001749126113
0.0001699380008
0.0001649095547
0.0001602293856
0.0001552762985
)


101
(
-7.087705955e-08
-2.461463192e-06
-5.076991549e-06
-7.637625231e-06
-1.009125561e-05
-1.244524781e-05
-1.468773681e-05
-1.680441365e-05
-1.878563778e-05
-2.062532607e-05
-2.23100333e-05
-2.383018913e-05
-2.51833592e-05
-2.637041957e-05
-2.740206337e-05
-2.828805054e-05
-2.9033922e-05
-2.96376584e-05
-3.008204503e-05
-3.033674644e-05
-3.034345534e-05
-3.001934423e-05
-2.928144266e-05
-2.801124701e-05
-2.611476437e-05
-2.35232977e-05
-2.01971719e-05
-1.614844763e-05
-1.145925388e-05
-6.248397028e-06
-6.669848244e-07
5.118941768e-06
1.095478501e-05
1.664009633e-05
2.209937692e-05
2.724577395e-05
3.204602227e-05
3.650364537e-05
4.062820162e-05
4.443337803e-05
4.79370376e-05
5.115733623e-05
5.410306341e-05
5.683592196e-05
5.947343701e-05
6.216594123e-05
6.506286551e-05
6.823972966e-05
7.167511693e-05
7.525096596e-05
7.884033417e-05
8.235839604e-05
8.578402948e-05
8.915515072e-05
9.252071069e-05
9.590340246e-05
9.929318601e-05
0.0001026901881
0.0001060896645
0.0001094834331
0.0001128631113
0.0001162145717
0.0001195314828
0.0001227913307
0.0001259895846
0.0001291178113
0.0001321844433
0.000135182605
0.0001380935527
0.0001409006434
0.0001436060049
0.0001461890067
0.0001486456116
0.0001509746391
0.0001531693376
0.0001552303191
0.0001571737014
0.0001590108999
0.0001606835882