/*--------------------------------*- C++ -*----------------------------------*\
| =========                 |                                                 |
| \\      /  F ield         | OpenFOAM: The Open Source CFD Toolbox           |
|  \\    /   O peration     | Version:  2.3.1                                 |
|   \\  /    A nd           | Web:      www.OpenFOAM.org                      |
|    \\/     M anipulation  |                                                 |
\*---------------------------------------------------------------------------*/
FoamFile
{
    version     2.0;
    format      ascii;
    class       dictionary;
    location    "constant";
    object      GRPSI45;
}
// * * * * * * * * * * * * * * * * * * * * * * * * * * * * * * * * * * * * * //

GRPSI45_table
101
(

101
(
-1.825078984e-21
-6.126393623e-13
-5.940666937e-12
-2.802666067e-11
-8.265040785e-11
-1.766437956e-10
-3.076265685e-10
-4.787651161e-10
-6.706086179e-10
-8.73338515e-10
-1.066065351e-09
-1.231458286e-09
-1.345278734e-09
-1.382051179e-09
-1.320368245e-09
-1.151009786e-09
-8.650049459e-10
-4.606309091e-10
-2.953696382e-11
5.029042824e-10
9.685586288e-10
1.378289757e-09
1.728806632e-09
1.956438791e-09
2.069335612e-09
2.081496824e-09
2.009997948e-09
1.880227016e-09
1.709672806e-09
1.524188679e-09
1.335964387e-09
1.159766961e-09
1.007977718e-09
8.214512028e-10
6.80319701e-10
5.583412008e-10
3.669474175e-10
1.87426902e-10
2.849246411e-10
2.567059015e-10
2.085491425e-10
1.708058652e-10
1.359284563e-10
1.088313472e-10
8.898565006e-11
7.150173193e-11
5.811861828e-11
4.62495489e-11
3.70115303e-11
2.912352895e-11
2.303406772e-11
1.808400257e-11
1.411553679e-11
1.08934423e-11
8.349013757e-12
6.388800027e-12
4.718940812e-12
3.580933132e-12
2.632339051e-12
1.942746153e-12
1.395307086e-12
1.00424786e-12
7.130902839e-13
4.946972066e-13
3.32970059e-13
2.239498245e-13
1.476371375e-13
9.481831446e-14
5.88568263e-14
3.573215804e-14
2.088148202e-14
1.192622981e-14
6.578702707e-15
3.431347332e-15
1.578559378e-15
7.136565107e-16
3.491959874e-16
1.576874532e-16
6.805869392e-17
2.758268782e-17
1.047862068e-17
3.344070218e-18
1.098747522e-18
2.596592677e-19
6.55225519e-20
5.049112665e-20
3.615326331e-20
1.909807381e-20
6.493467308e-21
2.236037844e-21
9.856599282e-22
3.991897748e-22
1.421279013e-22
4.496943321e-23
1.56519141e-23
4.541125076e-24
3.255652419e-25
5.937178629e-25
1.188153153e-24
4.757808834e-24
1.979948261e-23
)


101
(
-1.82507898e-21
-5.929884992e-13
-5.813907637e-12
-2.756549844e-11
-8.14027998e-11
-1.739787103e-10
-3.027245546e-10
-4.702619994e-10
-6.573728589e-10
-8.535733424e-10
-1.038072584e-09
-1.193312532e-09
-1.295476727e-09
-1.319370378e-09
-1.243866922e-09
-1.059417648e-09
-7.57836067e-10
-3.378283813e-10
1.167985311e-10
6.641064443e-10
1.158882928e-09
1.594842078e-09
1.967482387e-09
2.220178969e-09
2.353517561e-09
2.379947764e-09
2.315971955e-09
2.186034483e-09
2.009542655e-09
1.811504503e-09
1.606968699e-09
1.411349263e-09
1.237217722e-09
1.041346124e-09
8.760505973e-10
7.309642618e-10
5.438747132e-10
3.565509978e-10
3.827599138e-10
3.533823905e-10
3.014149893e-10
2.52466749e-10
2.073408126e-10
1.699731649e-10
1.404501676e-10
1.153442399e-10
9.507775219e-11
7.760156086e-11
6.326741829e-11
5.110878708e-11
4.120721094e-11
3.30495355e-11
2.63929132e-11
2.095285863e-11
1.65177814e-11
1.294073284e-11
9.961057702e-12
7.68115689e-12
5.84410033e-12
4.419888028e-12
3.301410749e-12
2.448433549e-12
1.794379461e-12
1.297715747e-12
9.234224926e-13
6.491590218e-13
4.488339717e-13
3.047261196e-13
2.033778454e-13
1.326981984e-13
8.439657799e-14
5.230531518e-14
3.185311229e-14
1.882454715e-14
1.065646432e-14
5.846526586e-15
3.125638143e-15
1.613042598e-15
8.096382849e-16
3.92419632e-16
1.822380238e-16
7.883515865e-17
3.289113426e-17
1.276979489e-17
4.532110967e-18
1.544119784e-18
5.682485486e-19
2.69759217e-19
1.070564384e-19
3.788672089e-20
1.51089818e-20
6.424799548e-21
2.802945373e-21
1.100267065e-21
4.560500049e-22
1.71543916e-22
2.508827528e-23
7.909798394e-23
2.314644161e-22
1.249382802e-21
-1.730922046e-19
)


101
(
-1.82507898e-21
-5.542097334e-13
-5.563086191e-12
-2.665285015e-11
-7.893722033e-11
-1.687244625e-10
-2.930917671e-10
-4.536085973e-10
-6.315054682e-10
-8.150491036e-10
-9.835853294e-10
-1.119121018e-09
-1.198584285e-09
-1.19728107e-09
-1.094541931e-09
-8.800729425e-10
-5.468506313e-10
-9.437718232e-11
4.077405064e-10
9.894031199e-10
1.543176181e-09
2.036452655e-09
2.45949485e-09
2.766885743e-09
2.947052367e-09
3.008459399e-09
2.965739276e-09
2.84113071e-09
2.657057394e-09
2.437566276e-09
2.202155078e-09
1.968601845e-09
1.750164452e-09
1.530058591e-09
1.321528731e-09
1.123276978e-09
9.311640131e-10
7.271176351e-10
6.374156668e-10
5.82841098e-10
5.168131035e-10
4.462276775e-10
3.790829482e-10
3.192419622e-10
2.683401892e-10
2.25399286e-10
1.892277441e-10
1.584392726e-10
1.321147425e-10
1.096441705e-10
9.051106144e-11
7.438096121e-11
6.089417657e-11
4.966169395e-11
4.027514974e-11
3.247309437e-11
2.593829451e-11
2.057789503e-11
1.621485793e-11
1.266924987e-11
9.831625587e-12
7.572337999e-12
5.779336779e-12
4.372021644e-12
3.272047589e-12
2.416602581e-12
1.762820949e-12
1.266910864e-12
9.012619343e-13
6.317032784e-13
4.341409884e-13
2.922696955e-13
1.937104755e-13
1.259765527e-13
7.989948951e-14
4.934834739e-14
2.958340071e-14
1.725766784e-14
9.805615442e-15
5.447176267e-15
2.948495775e-15
1.522326242e-15
7.579521322e-16
3.62703697e-16
1.636305301e-16
6.94094827e-17
2.772920199e-17
1.170011295e-17
4.93882381e-18
1.874719558e-18
6.564008652e-19
2.540713704e-19
1.037752917e-19
4.213868701e-20
1.785476102e-20
6.679709222e-21
9.761894728e-22
6.787748645e-21
2.873186017e-20
2.211949943e-19
1.049331671e-18
)


101
(
-1.82507898e-21
-5.164753621e-13
-5.317648914e-12
-2.575964008e-11
-7.653224611e-11
-1.636279638e-10
-2.838168845e-10
-4.376986145e-10
-6.069280278e-10
-7.786876875e-10
-9.323520616e-10
-1.049547755e-09
-1.107730671e-09
-1.082644617e-09
-9.538431321e-10
-7.100922467e-10
-3.4489333e-10
1.41812492e-10
6.921407697e-10
1.316183573e-09
1.930959957e-09
2.490364898e-09
2.976213712e-09
3.348506877e-09
3.588429055e-09
3.698704558e-09
3.690866063e-09
3.584673283e-09
3.403712181e-09
3.17200099e-09
2.911071989e-09
2.642604543e-09
2.38098137e-09
2.127944008e-09
1.883213706e-09
1.647991011e-09
1.41229326e-09
1.181381915e-09
1.016247598e-09
9.055467004e-10
8.096556286e-10
7.143610708e-10
6.218139506e-10
5.357896348e-10
4.590954883e-10
3.926913602e-10
3.354964848e-10
2.863608085e-10
2.436814904e-10
2.067332321e-10
1.745644039e-10
1.467561846e-10
1.229313525e-10
1.026805967e-10
8.5430611e-11
7.070568463e-11
5.823004221e-11
4.765843755e-11
3.880289654e-11
3.13424151e-11
2.51717376e-11
2.011172693e-11
1.595674936e-11
1.258390825e-11
9.85153988e-12
7.624885304e-12
5.841608042e-12
4.427932239e-12
3.32547298e-12
2.476120018e-12
1.81292226e-12
1.307423351e-12
9.289558892e-13
6.514217816e-13
4.489283038e-13
3.034225703e-13
1.999068242e-13
1.28948078e-13
8.121271584e-14
5.010662746e-14
3.033699429e-14
1.779444697e-14
1.009455848e-14
5.572942987e-15
2.955965723e-15
1.493067434e-15
7.122711582e-16
3.333587464e-16
1.561738187e-16
7.017979278e-17
2.833791464e-17
1.129786836e-17
4.482501435e-18
1.759511693e-18
7.335342952e-19
2.613918425e-19
4.736602203e-20
5.490231752e-19
2.417280911e-18
1.816171189e-17
5.607758658e-17
)


101
(
-1.82507915e-21
-4.797837419e-13
-5.077563492e-12
-2.488581674e-11
-7.418887274e-11
-1.586943679e-10
-2.749129941e-10
-4.225622139e-10
-5.837078472e-10
-7.446076537e-10
-8.845757496e-10
-9.849005132e-10
-1.023392324e-09
-9.761399589e-10
-8.227439756e-10
-5.508630524e-10
-1.53947357e-10
3.680433636e-10
9.671031575e-10
1.639743463e-09
2.318608709e-09
2.951607454e-09
3.512293976e-09
3.961369298e-09
4.275143956e-09
4.45005407e-09
4.493265555e-09
4.421556099e-09
4.258079821e-09
4.026956411e-09
3.751570447e-09
3.453606525e-09
3.151883319e-09
2.861250924e-09
2.578639629e-09
2.313059618e-09
2.028495098e-09
1.757539729e-09
1.531912812e-09
1.358089136e-09
1.216763195e-09
1.087509887e-09
9.644653322e-10
8.481636095e-10
7.408136116e-10
6.447892627e-10
5.601974844e-10
4.866136353e-10
4.221394948e-10
3.654710469e-10
3.15279583e-10
2.708742176e-10
2.319130639e-10
1.981247438e-10
1.688701142e-10
1.433061361e-10
1.211707011e-10
1.019788373e-10
8.554461489e-11
7.129021052e-11
5.905778347e-11
4.876551215e-11
4.002242957e-11
3.270156944e-11
2.66027187e-11
2.14668444e-11
1.717167885e-11
1.361475667e-11
1.069031555e-11
8.359793952e-12
6.457360509e-12
4.927612986e-12
3.709116285e-12
2.760680128e-12
2.027741085e-12
1.468296782e-12
1.045824115e-12
7.310523807e-13
4.992108241e-13
3.348882382e-13
2.208057098e-13
1.433792842e-13
9.020716219e-14
5.552597871e-14
3.320563554e-14
1.920122849e-14
1.056040032e-14
5.637557013e-15
2.951971114e-15
1.523199365e-15
7.298324942e-16
3.334059122e-16
1.517459163e-16
6.508466613e-17
2.871039644e-17
1.078291283e-17
2.399001166e-18
2.537392356e-17
1.094710081e-16
8.811649642e-16
2.533685347e-15
)


101
(
-1.825078984e-21
-4.441335245e-13
-4.842778322e-12
-2.403102148e-11
-7.190586417e-11
-1.539202244e-10
-2.663709767e-10
-4.081774887e-10
-5.618064452e-10
-7.127393501e-10
-8.401556212e-10
-9.250160768e-10
-9.453931995e-10
-8.775422135e-10
-7.010329804e-10
-4.023268954e-10
2.58438241e-11
5.83762882e-10
1.231799513e-09
1.957901622e-09
2.704555114e-09
3.417724774e-09
4.064396749e-09
4.603049901e-09
5.005298853e-09
5.262023305e-09
5.375033781e-09
5.356654031e-09
5.22832012e-09
5.013875205e-09
4.738576117e-09
4.422948994e-09
4.088868432e-09
3.76102994e-09
3.438277456e-09
3.127376926e-09
2.809638387e-09
2.495162833e-09
2.21185992e-09
1.975544015e-09
1.779024025e-09
1.605074313e-09
1.444070896e-09
1.292122108e-09
1.149016705e-09
1.017328639e-09
8.983635898e-10
7.933449696e-10
7.00527972e-10
6.178620211e-10
5.43753554e-10
4.768318413e-10
4.167694767e-10
3.634834313e-10
3.166923007e-10
2.750829635e-10
2.381198745e-10
2.053964706e-10
1.766671914e-10
1.512630301e-10
1.289425548e-10
1.095906775e-10
9.270562341e-11
7.806497728e-11
6.55291889e-11
5.473870465e-11
4.540672414e-11
3.739195631e-11
3.053065895e-11
2.478943029e-11
1.999231473e-11
1.598444871e-11
1.264436176e-11
9.895758038e-12
7.657807872e-12
5.858034059e-12
4.434749271e-12
3.305980791e-12
2.418841789e-12
1.740137911e-12
1.23165582e-12
8.628080619e-13
5.910894151e-13
3.963482608e-13
2.608313923e-13
1.670706781e-13
1.033182596e-13
6.165561851e-14
3.615657026e-14
2.091605347e-14
1.151664184e-14
5.995269292e-15
3.124229987e-15
1.552114565e-15
7.692429328e-16
3.233733509e-16
8.783146034e-17
9.525735845e-16
3.72826769e-15
2.340975561e-14
5.716599121e-14
)


101
(
-1.82507898e-21
-4.095223853e-13
-4.613241332e-12
-2.319481571e-11
-6.968120248e-11
-1.492986512e-10
-2.581719238e-10
-3.945029262e-10
-5.411633515e-10
-6.82990761e-10
-7.989633887e-10
-8.6974251e-10
-8.7356562e-10
-7.86744699e-10
-5.886862192e-10
-2.646807209e-10
1.937734885e-10
7.876287737e-10
1.484478368e-09
2.267486298e-09
3.085513083e-09
3.884568029e-09
4.62699969e-09
5.267919516e-09
5.773497834e-09
6.129702409e-09
6.333087568e-09
6.390081337e-09
6.318550474e-09
6.141027006e-09
5.883404596e-09
5.568107657e-09
5.215619316e-09
4.858003024e-09
4.499822061e-09
4.148504166e-09
3.793830915e-09
3.437347197e-09
3.100260461e-09
2.801569499e-09
2.544056912e-09
2.315806319e-09
2.108409467e-09
1.914326177e-09
1.730166545e-09
1.557472206e-09
1.397436512e-09
1.252973176e-09
1.123745852e-09
1.007597137e-09
9.025499576e-10
8.062094619e-10
7.182776164e-10
6.385841912e-10
5.671510577e-10
5.027730089e-10
4.447102886e-10
3.920907357e-10
3.447970839e-10
3.020616253e-10
2.63714755e-10
2.296401936e-10
1.992787807e-10
1.723376602e-10
1.485756618e-10
1.276859174e-10
1.091466449e-10
9.28290345e-11
7.840554447e-11
6.582455169e-11
5.500725295e-11
4.564940018e-11
3.759929584e-11
3.068725231e-11
2.481694888e-11
1.986519669e-11
1.577630298e-11
1.239615628e-11
9.614855927e-12
7.344412484e-12
5.522057097e-12
4.104152777e-12
3.014526845e-12
2.168631133e-12
1.538953967e-12
1.070435724e-12
7.258721075e-13
4.764369259e-13
3.079531995e-13
1.954946932e-13
1.20876409e-13
7.069392009e-14
4.13487081e-14
2.345391457e-14
1.299565363e-14
6.493260693e-15
2.223511497e-15
1.926065897e-14
6.805007615e-14
3.579023069e-13
8.449244286e-13
)


101
(
-1.82507898e-21
-3.759490025e-13
-4.388901862e-12
-2.237673851e-11
-6.751266844e-11
-1.448217035e-10
-2.502923607e-10
-3.814833666e-10
-5.21704011e-10
-6.552478554e-10
-7.608339834e-10
-8.188488104e-10
-8.07614416e-10
-7.03436008e-10
-4.854173438e-10
-1.377364804e-10
3.49627524e-10
9.788227331e-10
1.723847112e-09
2.565941187e-09
3.458532508e-09
4.348491108e-09
5.194803586e-09
5.950051987e-09
6.573978819e-09
7.047567672e-09
7.362961712e-09
7.520184036e-09
7.53137046e-09
7.415889528e-09
7.199393428e-09
6.906038757e-09
6.555305744e-09
6.182724616e-09
5.798738533e-09
5.414674377e-09
5.025444753e-09
4.629865985e-09
4.244320355e-09
3.88611844e-09
3.565477995e-09
3.277439336e-09
3.016022163e-09
2.772554766e-09
2.541456e-09
2.322751263e-09
2.116158421e-09
1.925194518e-09
1.751649632e-09
1.59386991e-09
1.449256425e-09
1.315775966e-09
1.192516113e-09
1.078187049e-09
9.739333885e-10
8.790559014e-10
7.920460549e-10
7.117461518e-10
6.384170197e-10
5.708523201e-10
5.088744954e-10
4.52604346e-10
4.011755171e-10
3.54812526e-10
3.130205852e-10
2.756283325e-10
2.419088645e-10
2.113928744e-10
1.837195917e-10
1.586329611e-10
1.364491288e-10
1.167103621e-10
9.944622152e-11
8.416974778e-11
7.063334928e-11
5.877171718e-11
4.854872613e-11
3.97917385e-11
3.23177963e-11
2.591391756e-11
2.053016414e-11
1.606277349e-11
1.247898618e-11
9.530543963e-12
7.194917002e-12
5.332572589e-12
3.902506097e-12
2.772240718e-12
1.94232237e-12
1.338649116e-12
9.023830295e-13
5.846015362e-13
3.776697371e-13
2.392719364e-13
1.470565816e-13
8.529019226e-14
3.600961437e-14
2.398994448e-13
7.605718561e-13
3.343975975e-12
8.261596455e-12
)


101
(
-1.82507932e-21
-3.434129319e-13
-4.169713165e-12
-2.157632568e-11
-6.539816556e-11
-1.404829183e-10
-2.427147654e-10
-3.690752121e-10
-5.033616705e-10
-6.294084697e-10
-7.256299674e-10
-7.721360686e-10
-7.473027178e-10
-6.273516001e-10
-3.910115506e-10
-2.13576115e-11
4.932985886e-10
1.156742403e-09
1.948821238e-09
2.85107255e-09
3.820847531e-09
4.806284268e-09
5.763353403e-09
6.644522119e-09
7.402654968e-09
8.012843622e-09
8.462879567e-09
8.746600143e-09
8.869090358e-09
8.844431662e-09
8.696357322e-09
8.450546754e-09
8.126743176e-09
7.76117833e-09
7.36677129e-09
6.961726864e-09
6.546873678e-09
6.120577616e-09
5.695813067e-09
5.285694874e-09
4.903971741e-09
4.553170952e-09
4.232561777e-09
3.933941698e-09
3.650861187e-09
3.381994146e-09
3.124869195e-09
2.882947683e-09
2.658220671e-09
2.450675783e-09
2.258500795e-09
2.080677452e-09
1.914542413e-09
1.757954836e-09
1.612390137e-09
1.477444689e-09
1.352786275e-09
1.235423513e-09
1.127255316e-09
1.026434354e-09
9.319152193e-10
8.446128623e-10
7.631000926e-10
6.880699964e-10
6.191262209e-10
5.561452225e-10
4.987581837e-10
4.456788137e-10
3.966591179e-10
3.512627707e-10
3.098945962e-10
2.722366073e-10
2.381912146e-10
2.074983205e-10
1.796690659e-10
1.545410792e-10
1.319417488e-10
1.119516901e-10
9.445532925e-11
7.886579874e-11
6.512767162e-11
5.332171625e-11
4.33141206e-11
3.485211255e-11
2.765606674e-11
2.162763809e-11
1.68089616e-11
1.276090943e-11
9.554215116e-12
7.05715494e-12
5.110258469e-12
3.611581879e-12
2.528687675e-12
1.751622516e-12
1.176533732e-12
7.532654548e-13
3.89794484e-13
2.020961457e-12
5.718658156e-12
2.063652506e-11
5.268508813e-11
)


101
(
-1.82507932e-21
-3.119128098e-13
-3.955633417e-12
-2.079309814e-11
-6.333538364e-11
-1.362759189e-10
-2.354262714e-10
-3.572512339e-10
-4.860693296e-10
-6.053533818e-10
-6.932066078e-10
-7.294523358e-10
-6.924912534e-10
-5.583934475e-10
-3.054524353e-10
8.434704559e-11
6.244092919e-10
1.320556072e-09
2.158050391e-09
3.120392362e-09
4.16904872e-09
5.254240683e-09
6.329208506e-09
7.34711354e-09
8.255881323e-09
9.023363425e-09
9.631703801e-09
1.006887218e-08
1.033276667e-08
1.043086049e-08
1.038236745e-08
1.021265075e-08
9.943399193e-09
9.612961006e-09
9.231494373e-09
8.824450312e-09
8.400575621e-09
7.958995539e-09
7.508389511e-09
7.058669416e-09
6.624069443e-09
6.212164729e-09
5.83204517e-09
5.476742521e-09
5.139992218e-09
4.819837571e-09
4.510408408e-09
4.214306221e-09
3.932765138e-09
3.669116305e-09
3.423111682e-09
3.194410777e-09
2.979140071e-09
2.774482067e-09
2.578609959e-09
2.394797274e-09
2.224045312e-09
2.061089632e-09
1.908768955e-09
1.765511486e-09
1.628874699e-09
1.50008237e-09
1.378767839e-09
1.264475161e-09
1.15710141e-09
1.056637506e-09
9.646426773e-10
8.785578309e-10
7.982588492e-10
7.224087226e-10
6.513296713e-10
5.850226702e-10
5.237896081e-10
4.674626884e-10
4.154841444e-10
3.67108269e-10
3.223722653e-10
2.817335547e-10
2.45029397e-10
2.11579588e-10
1.809990552e-10
1.538185014e-10
1.297183303e-10
1.087810126e-10
9.015766348e-11
7.367725937e-11
5.9945476e-11
4.803999823e-11
3.797652759e-11
2.977781092e-11
2.287669992e-11
1.731610634e-11
1.298403223e-11
9.659752455e-12
7.030528501e-12
4.885653334e-12
2.899679197e-12
1.229086101e-11
3.1304551e-11
9.246404558e-11
1.860649674e-10
)


101
(
-1.82494693e-21
-2.814482546e-13
-3.746627699e-12
-2.002663993e-11
-6.132219652e-11
-1.321944876e-10
-2.284142009e-10
-3.459867287e-10
-4.697625952e-10
-5.829530793e-10
-6.634072128e-10
-6.906282496e-10
-6.430278091e-10
-4.964511753e-10
-2.286990781e-10
1.793164193e-10
7.426299283e-10
1.469462298e-09
2.350261235e-09
3.371677913e-09
4.499756423e-09
5.688165065e-09
6.888693231e-09
8.053057946e-09
9.128582601e-09
1.007442094e-08
1.086493765e-08
1.148293172e-08
1.192000048e-08
1.217628851e-08
1.22639789e-08
1.220475657e-08
1.202171753e-08
1.175978311e-08
1.142348488e-08
1.104173666e-08
1.063117907e-08
1.019417755e-08
9.735995603e-09
9.264821197e-09
8.794241732e-09
8.333249307e-09
7.899942813e-09
7.492335271e-09
7.105090763e-09
6.736287848e-09
6.376141532e-09
6.025435037e-09
5.685833282e-09
5.363551101e-09
5.05904317e-09
4.773453026e-09
4.504058463e-09
4.245846609e-09
3.994219994e-09
3.757778204e-09
3.532400131e-09
3.316601091e-09
3.11053474e-09
2.916271273e-09
2.729261645e-09
2.549296108e-09
2.37745255e-09
2.21252294e-09
2.055644979e-09
1.90590448e-09
1.765316688e-09
1.633953652e-09
1.510210619e-09
1.391755492e-09
1.278697623e-09
1.170698498e-09
1.068971784e-09
9.734605937e-10
8.838002113e-10
7.986765632e-10
7.184593689e-10
6.438689496e-10
5.73910757e-10
5.09250345e-10
4.489513799e-10
3.932038391e-10
3.423627688e-10
2.967576224e-10
2.549305074e-10
2.162185479e-10
1.824913711e-10
1.528650996e-10
1.265826593e-10
1.038191803e-10
8.386345045e-11
6.71237205e-11
5.318307927e-11
4.188828149e-11
3.255721224e-11
2.43713792e-11
1.638878312e-11
5.579414451e-11
1.284340659e-10
3.257944258e-10
6.140706523e-10
)


101
(
-1.824483912e-21
-2.520198447e-13
-3.542670626e-12
-1.927660866e-11
-5.935691478e-11
-1.282335645e-10
-2.216674382e-10
-3.352567854e-10
-4.543853869e-10
-5.621074778e-10
-6.361080939e-10
-6.554963662e-10
-5.987264529e-10
-4.413487769e-10
-1.606047672e-10
2.636425724e-10
8.479667116e-10
1.603128217e-09
2.524822242e-09
3.603669293e-09
4.810223423e-09
6.103239802e-09
7.434672692e-09
8.7530044e-09
1.000740068e-08
1.114983662e-08
1.214658827e-08
1.297469446e-08
1.3619905e-08
1.407410351e-08
1.434091911e-08
1.443595722e-08
1.43808166e-08
1.422695098e-08
1.397488105e-08
1.365393102e-08
1.328586807e-08
1.287801851e-08
1.243673621e-08
1.1971339e-08
1.149055718e-08
1.10022913e-08
1.053016907e-08
1.008055174e-08
9.650316407e-09
9.239264174e-09
8.836150412e-09
8.438869784e-09
8.047282058e-09
7.669725086e-09
7.306765663e-09
6.962310387e-09
6.636320935e-09
6.322502843e-09
6.016332862e-09
5.723049343e-09
5.439359053e-09
5.163769285e-09
4.89788935e-09
4.644907816e-09
4.400981686e-09
4.163010779e-09
3.932323169e-09
3.707374245e-09
3.489635007e-09
3.281108152e-09
3.079320611e-09
2.888391505e-09
2.707683456e-09
2.53301472e-09
2.364990905e-09
2.201985173e-09
2.043855914e-09
1.892647593e-09
1.748691124e-09
1.611157039e-09
1.478882973e-09
1.352499325e-09
1.232161892e-09
1.117915068e-09
1.009197548e-09
9.062810719e-10
8.100402329e-10
7.207158057e-10
6.378813494e-10
5.587827924e-10
4.858494109e-10
4.20851552e-10
3.616460058e-10
3.077789034e-10
2.589885513e-10
2.167325735e-10
1.797793717e-10
1.480531766e-10
1.211291298e-10
9.632413415e-11
7.142532644e-11
2.035427307e-10
4.262034943e-10
9.398911848e-10
1.616507424e-09
)


101
(
-1.824152612e-21
-2.236272053e-13
-3.3437388e-12
-1.85426636e-11
-5.743783548e-11
-1.243881086e-10
-2.151767624e-10
-3.250418169e-10
-4.398712477e-10
-5.42699439e-10
-6.112017082e-10
-6.239009051e-10
-5.594051977e-10
-3.929657851e-10
-1.011302212e-10
3.372959161e-10
9.40558276e-10
1.721843138e-09
2.681886598e-09
3.815880389e-09
5.097950933e-09
6.493655844e-09
7.957132349e-09
9.434874945e-09
1.08772156e-08
1.223142885e-08
1.345774533e-08
1.452649968e-08
1.541736085e-08
1.611277576e-08
1.660666414e-08
1.690747999e-08
1.703270453e-08
1.703546749e-08
1.691351727e-08
1.6696282e-08
1.64084412e-08
1.606300767e-08
1.567130724e-08
1.524709123e-08
1.479139445e-08
1.430797793e-08
1.382274534e-08
1.334950388e-08
1.288986231e-08
1.24484756e-08
1.201630629e-08
1.158855919e-08
1.116054863e-08
1.074153275e-08
1.03278992e-08
9.928859009e-09
9.550964809e-09
9.185849834e-09
8.828663537e-09
8.47713829e-09
8.140043245e-09
7.80477537e-09
7.480252518e-09
7.164912407e-09
6.861768656e-09
6.561825817e-09
6.267299024e-09
5.977549653e-09
5.693826842e-09
5.417188802e-09
5.14506004e-09
4.882935003e-09
4.630094507e-09
4.387132541e-09
4.15117386e-09
3.920961586e-09
3.691898946e-09
3.468000154e-09
3.250970948e-09
3.041429347e-09
2.838482423e-09
2.641882336e-09
2.44969672e-09
2.264144099e-09
2.083475056e-09
1.910082537e-09
1.743172573e-09
1.584035458e-09
1.435235578e-09
1.290976968e-09
1.151009512e-09
1.02297997e-09
9.045232191e-10
7.942107183e-10
6.901092967e-10
5.976292804e-10
5.135599702e-10
4.391823886e-10
3.733943597e-10
3.114793191e-10
2.485444506e-10
6.089355721e-10
1.170980371e-09
2.289561256e-09
3.722449777e-09
)


101
(
-1.824153295e-21
-1.962709516e-13
-3.149815537e-12
-1.782451096e-11
-5.556341053e-11
-1.206530777e-10
-2.089319748e-10
-3.153233351e-10
-4.261649201e-10
-5.246109645e-10
-5.885721834e-10
-5.956824914e-10
-5.248617018e-10
-3.511427947e-10
-5.018691261e-11
4.00272928e-10
1.020462262e-09
1.825909019e-09
2.821653561e-09
4.008364896e-09
5.361807226e-09
6.855805692e-09
8.448999385e-09
1.008952312e-08
1.172868246e-08
1.330927908e-08
1.478627009e-08
1.61232213e-08
1.729438044e-08
1.827403891e-08
1.904611057e-08
1.960891719e-08
1.997236172e-08
2.018869739e-08
2.025154128e-08
2.019058438e-08
2.003230128e-08
1.979529264e-08
1.949794608e-08
1.91575553e-08
1.877167784e-08
1.833790667e-08
1.788068188e-08
1.741583247e-08
1.695165631e-08
1.650140261e-08
1.606020243e-08
1.56231125e-08
1.518282479e-08
1.47444244e-08
1.429959902e-08
1.386220458e-08
1.344690081e-08
1.304261058e-08
1.264602141e-08
1.225178007e-08
1.187116531e-08
1.148950723e-08
1.11109847e-08
1.073879661e-08
1.03807773e-08
1.002357727e-08
9.664808154e-09
9.311836559e-09
8.965266862e-09
8.61614404e-09
8.271746104e-09
7.929324702e-09
7.597704547e-09
7.276266135e-09
6.960592236e-09
6.652069567e-09
6.342177287e-09
6.032939743e-09
5.72569602e-09
5.422490668e-09
5.129682107e-09
4.841824223e-09
4.556046062e-09
4.276060761e-09
3.996054671e-09
3.722993579e-09
3.456550157e-09
3.196252091e-09
2.945836223e-09
2.703788123e-09
2.46420209e-09
2.23408902e-09
2.019465669e-09
1.817782336e-09
1.619168116e-09
1.44089394e-09
1.270035374e-09
1.118295712e-09
9.798287113e-10
8.479164615e-10
7.10333926e-10
1.527010705e-09
2.719905941e-09
4.834545736e-09
7.790303e-09
)


101
(
-1.824153971e-21
-1.699520321e-13
-2.960886421e-12
-1.712186636e-11
-5.373218604e-11
-1.170237392e-10
-2.02920822e-10
-3.060801069e-10
-4.132285862e-10
-5.077494483e-10
-5.680417813e-10
-5.706970964e-10
-4.948713442e-10
-3.155545967e-10
-7.382272317e-12
4.529393535e-10
1.087651713e-09
1.914779716e-09
2.942848285e-09
4.177988713e-09
5.598335039e-09
7.186102891e-09
8.906604228e-09
1.071081004e-08
1.255322538e-08
1.437371224e-08
1.612054062e-08
1.77497021e-08
1.923110304e-08
2.053477386e-08
2.163741615e-08
2.252320303e-08
2.318675929e-08
2.368032192e-08
2.399160643e-08
2.415052557e-08
2.418377941e-08
2.411395304e-08
2.3967357e-08
2.376363632e-08
2.350341719e-08
2.317524982e-08
2.280071995e-08
2.239429401e-08
2.196917197e-08
2.154635193e-08
2.112647308e-08
2.071159695e-08
2.029014865e-08
1.986237076e-08
1.942290949e-08
1.898074155e-08
1.855204946e-08
1.813366328e-08
1.772346997e-08
1.731409726e-08
1.691153804e-08
1.65076383e-08
1.609445817e-08
1.568240076e-08
1.527758588e-08
1.487883815e-08
1.447095468e-08
1.406954146e-08
1.366891104e-08
1.325710851e-08
1.284478951e-08
1.242724779e-08
1.202041484e-08
1.161505928e-08
1.121362803e-08
1.081996686e-08
1.042218326e-08
1.00232375e-08
9.617358829e-09
9.202392433e-09
8.795715493e-09
8.391919439e-09
7.995648982e-09
7.595459168e-09
7.189004191e-09
6.785131833e-09
6.382705646e-09
5.986382227e-09
5.596174412e-09
5.211785686e-09
4.830585077e-09
4.452063556e-09
4.089478189e-09
3.748843271e-09
3.403213115e-09
3.08959799e-09
2.780109173e-09
2.499275866e-09
2.241532281e-09
1.990426952e-09
1.723798617e-09
3.329872992e-09
5.548980282e-09
9.131704833e-09
1.327968466e-08
)


101
(
-1.824152612e-21
-1.446707068e-13
-2.776939875e-12
-1.643446109e-11
-5.194269279e-11
-1.134953267e-10
-1.971309475e-10
-2.972914043e-10
-4.010271832e-10
-4.920303878e-10
-5.494058321e-10
-5.488139773e-10
-4.692394415e-10
-2.858401044e-10
2.776590412e-11
4.958589167e-10
1.142245608e-09
1.9876025e-09
3.043591042e-09
4.319983445e-09
5.80240443e-09
7.479500271e-09
9.325782442e-09
1.129278463e-08
1.334145653e-08
1.541270941e-08
1.744595523e-08
1.938919092e-08
2.120917967e-08
2.287385162e-08
2.435494247e-08
2.562368785e-08
2.66549813e-08
2.749643697e-08
2.812905627e-08
2.858295032e-08
2.888273379e-08
2.905123042e-08
2.912254847e-08
2.91217681e-08
2.905054023e-08
2.889378435e-08
2.86721489e-08
2.839222197e-08
2.806725321e-08
2.772621841e-08
2.73782827e-08
2.703541442e-08
2.667572962e-08
2.630470365e-08
2.592250777e-08
2.552705309e-08
2.512608879e-08
2.473660037e-08
2.435014185e-08
2.39570403e-08
2.357406683e-08
2.318725628e-08
2.278003191e-08
2.235964015e-08
2.193877265e-08
2.152512112e-08
2.110423232e-08
2.068559549e-08
2.024807461e-08
1.980845313e-08
1.934892003e-08
1.88748117e-08
1.840006923e-08
1.791797637e-08
1.744069558e-08
1.696235183e-08
1.647871648e-08
1.599095303e-08
1.54877574e-08
1.495773952e-08
1.440996519e-08
1.387383432e-08
1.333903586e-08
1.279591176e-08
1.224324256e-08
1.167607891e-08
1.109186049e-08
1.051769242e-08
9.941676535e-09
9.365356618e-09
8.785427812e-09
8.20440769e-09
7.62509597e-09
7.079285927e-09
6.523578424e-09
6.001919587e-09
5.491067047e-09
5.008947623e-09
4.567449615e-09
4.13395453e-09
3.674946732e-09
6.493566315e-09
1.022119121e-08
1.588651692e-08
2.225885923e-08
)


101
(
-1.824152612e-21
-1.204272922e-13
-2.598046196e-12
-1.576210411e-11
-5.019366449e-11
-1.100630905e-10
-1.915503588e-10
-2.889371155e-10
-3.89544887e-10
-4.774000924e-10
-5.324897408e-10
-5.298533102e-10
-4.477704856e-10
-2.617106311e-10
5.557789622e-11
5.294128524e-10
1.184547978e-09
2.044344154e-09
3.123794284e-09
4.433299523e-09
5.972534175e-09
7.733621411e-09
9.701890703e-09
1.182839807e-08
1.408128773e-08
1.640814443e-08
1.874097015e-08
2.101934408e-08
2.320697687e-08
2.526912055e-08
2.717059725e-08
2.887486821e-08
3.034307972e-08
3.160867279e-08
3.264425648e-08
3.347986064e-08
3.413533407e-08
3.462775712e-08
3.499457555e-08
3.527077228e-08
3.546185653e-08
3.555629338e-08
3.556990942e-08
3.550028321e-08
3.535628982e-08
3.517368828e-08
3.49701304e-08
3.476514872e-08
3.453538614e-08
3.429004369e-08
3.402977837e-08
3.375025857e-08
3.344733004e-08
3.31485223e-08
3.284748691e-08
3.252702323e-08
3.222077761e-08
3.190467122e-08
3.156727734e-08
3.119856693e-08
3.081927387e-08
3.043626644e-08
3.005686576e-08
2.966825113e-08
2.924478111e-08
2.88250458e-08
2.835925922e-08
2.786632998e-08
2.735298116e-08
2.683318746e-08
2.630427159e-08
2.575425442e-08
2.5198415e-08
2.462816068e-08
2.40315196e-08
2.339906316e-08
2.272376742e-08
2.202805007e-08
2.132347189e-08
2.061664548e-08
1.989763115e-08
1.912707532e-08
1.832486164e-08
1.751623459e-08
1.669482184e-08
1.586331098e-08
1.500820659e-08
1.415296749e-08
1.327225377e-08
1.243128045e-08
1.158866928e-08
1.075761463e-08
9.955102879e-09
9.181762747e-09
8.460756662e-09
7.763603192e-09
7.030531612e-09
1.158191608e-08
1.741338175e-08
2.605213378e-08
3.655280946e-08
)


101
(
-1.824153971e-21
-9.722184613e-14
-2.424134681e-12
-1.510459144e-11
-4.848381881e-11
-1.067222681e-10
-1.861666957e-10
-2.809943818e-10
-3.787887447e-10
-4.638806376e-10
-5.171356574e-10
-5.135619294e-10
-4.30185104e-10
-2.429554835e-10
7.598905039e-11
5.531055474e-10
1.213850868e-09
2.084273389e-09
3.183353003e-09
4.5213284e-09
6.111780741e-09
7.950399658e-09
1.003138519e-08
1.231121455e-08
1.476166383e-08
1.734208969e-08
1.998283394e-08
2.261455918e-08
2.519670371e-08
2.769000061e-08
3.005046363e-08
3.223755129e-08
3.420811685e-08
3.597604653e-08
3.750079873e-08
3.881049697e-08
3.991974929e-08
4.083534425e-08
4.159178349e-08
4.223391091e-08
4.277595055e-08
4.321003932e-08
4.355160257e-08
4.379359627e-08
4.393587419e-08
4.401298884e-08
4.404449833e-08
4.406231035e-08
4.406237864e-08
4.403885646e-08
4.398880281e-08
4.391339189e-08
4.380314366e-08
4.368135006e-08
4.355540339e-08
4.341146938e-08
4.326939067e-08
4.31030703e-08
4.292896102e-08
4.27154544e-08
4.244917432e-08
4.218286102e-08
4.19161041e-08
4.162772496e-08
4.130536728e-08
4.096532739e-08
4.056929033e-08
4.012904217e-08
3.964588856e-08
3.914732564e-08
3.859912936e-08
3.802779949e-08
3.743728209e-08
3.68096357e-08
3.614308772e-08
3.543450926e-08
3.464600145e-08
3.378194789e-08
3.289730061e-08
3.199888728e-08
3.107225799e-08
3.006790287e-08
2.900753746e-08
2.790529328e-08
2.674924463e-08
2.559363124e-08
2.436976579e-08
2.31354768e-08
2.184439339e-08
2.058820491e-08
1.933930294e-08