/*--------------------------------*- C++ -*----------------------------------*\
| =========                 |                                                 |
| \\      /  F ield         | OpenFOAM: The Open Source CFD Toolbox           |
|  \\    /   O peration     | Version:  2.3.1                                 |
|   \\  /    A nd           | Web:      www.OpenFOAM.org                      |
|    \\/     M anipulation  |                                                 |
\*---------------------------------------------------------------------------*/
FoamFile
{
    version     2.0;
    format      ascii;
    class       dictionary;
    location    "constant";
    object      H2;
}
// * * * * * * * * * * * * * * * * * * * * * * * * * * * * * * * * * * * * * //

H2_table
101
(

101
(
4.381288899e-05
0.0001126819826
0.0001651717639
0.0002094969971
0.0002497320804
0.0002881599319
0.0003258704748
0.0003633334133
0.0004007293161
0.0004380320081
0.0004751175687
0.0005118063429
0.0005479170998
0.0005832082649
0.0006175049829
0.000650640301
0.0006824423312
0.0007127297915
0.0007415769168
0.0007686449207
0.0007941211292
0.0008179939863
0.0008400703951
0.0008604681444
0.0008792457325
0.0008964248783
0.0009120413051
0.0009261475103
0.0009387447743
0.0009498985027
0.000959640213
0.0009680436144
0.0009752808347
0.0009809548312
0.0009854508419
0.0009887446855
0.0009908963305
0.0009920008676
0.0009919992006
0.0009908371398
0.0009885970753
0.0009854834523
0.0009813645029
0.0009763191173
0.0009704555614
0.000963700726
0.0009561573984
0.0009477796977
0.0009386498111
0.0009287445752
0.0009181424627
0.000906844877
0.0008948800299
0.0008822791196
0.0008690748854
0.0008552899751
0.0008408730547
0.0008259673027
0.0008104938993
0.0007945348283
0.0007780721377
0.0007611493229
0.0007437854728
0.0007259882342
0.0007077830576
0.0006891811502
0.000670208851
0.0006508823685
0.0006312035104
0.0006112071646
0.0005908993903
0.0005702966385
0.0005494004696
0.0005282514924
0.00050686804
0.0004852662374
0.0004634256711
0.0004413773359
0.0004191445329
0.0003967411237
0.0003741795391
0.0003514546851
0.0003285984492
0.0003056140464
0.0002825138273
0.00025931099
0.0002360165684
0.0002126402469
0.00018919098
0.0001656786998
0.0001421095789
0.0001184949934
9.484232052e-05
7.115739662e-05
4.744935723e-05
2.372149751e-05
-2.016519658e-13
2.316183324e-36
8.496297238e-24
-1.136793365e-22
0
)


101
(
4.378397787e-05
0.0001120809097
0.0001642449296
0.000208274384
0.0002481839701
0.000286234655
0.0003235243273
0.0003605258459
0.0003974367795
0.0004342429207
0.0004708347293
0.0005070443538
0.0005427044069
0.0005775793536
0.000611508872
0.0006443300223
0.0006758761067
0.0007059739928
0.0007346797616
0.0007616925547
0.0007871519903
0.0008110589217
0.000833252766
0.0008538088851
0.0008727857647
0.0008902105345
0.0009061158767
0.0009205481889
0.0009335191301
0.0009450780181
0.0009552607178
0.0009641276605
0.000971812486
0.0009781020027
0.0009831553252
0.0009870327688
0.0009897816006
0.0009914760813
0.0009921142146
0.0009916584449
0.000990136668
0.0009876766539
0.0009842787607
0.0009799602684
0.0009747918261
0.0009687795508
0.0009619592475
0.0009543417674
0.0009459575864
0.0009368240617
0.0009269745507
0.0009164378235
0.0009052347059
0.000893390332
0.0008809327948
0.0008678884673
0.0008542551188
0.0008400670587
0.000825348578
0.0008101141288
0.0007943857081
0.0007781801075
0.0007615211658
0.0007444257473
0.0007269098175
0.0007089899574
0.0006906830904
0.0006720082286
0.0006529783209
0.0006336073867
0.0006139142855
0.0005939130324
0.0005736162551
0.0005530388869
0.0005322024722
0.0005111213973
0.000489803383
0.0004682555476
0.0004464959109
0.0004245425453
0.0004024083521
0.0003801023934
0.0003576349137
0.0003350204218
0.0003122656367
0.0002893823934
0.000266382189
0.000243277799
0.0002200773005
0.0001967934109
0.0001734262742
0.0001499909659
0.0001264962431
0.0001029493846
7.935831979e-05
5.577373941e-05
3.224614523e-05
3.337083269e-05
3.450035233e-05
3.567016978e-05
3.683998701e-05
)


101
(
4.375506675e-05
0.0001114787567
0.0001633149579
0.0002070486123
0.0002466341636
0.0002843103357
0.0003211821222
0.0003577256047
0.0003941544082
0.0004304662306
0.0004665653202
0.00050229547
0.0005375024739
0.0005719575396
0.0006055132995
0.0006380119887
0.0006692918801
0.0006991872577
0.0007277407289
0.0007546787077
0.0007801098154
0.0008040363287
0.0008263233426
0.0008470218749
0.000866182412
0.000883834692
0.0009000103767
0.0009147512423
0.0009280743383
0.0009400207089
0.0009506251137
0.0009599397664
0.0009680710019
0.0009749066933
0.0009805196625
0.0009849673301
0.0009883013194
0.0009905825902
0.0009918343522
0.0009920433551
0.0009912174378
0.0009894300169
0.0009867232732
0.0009831158414
0.0009786497003
0.0009733555563
0.00096725659
0.0009603762093
0.0009527334706
0.000944352586
0.0009352550755
0.0009254709708
0.0009150228344
0.0009039323693
0.0008922232024
0.0008799208073
0.0008670442382
0.00085359781
0.0008396195497
0.0008251183944
0.0008101192765
0.0007946360426
0.0007786889143
0.0007622977223
0.0007454775042
0.0007282446335
0.0007106133409
0.0006926009918
0.0006742245533
0.0006554935655
0.0006364261802
0.0006170367401
0.0005973419282
0.0005773520232
0.0005570841602
0.0005365502793
0.0005157645707
0.0004947334942
0.0004734685257
0.0004519872951
0.0004303028498
0.0004084283435
0.0003863716535
0.0003641463921
0.0003417588983
0.0003192201124
0.0002965369226
0.000273724259
0.0002507914771
0.0002277547746
0.00020460929
0.0001813760545
0.0001580567965
0.0001346653452
0.0001112126885
8.779411795e-05
6.449201063e-05
6.674137955e-05
6.900040331e-05
7.134005786e-05
7.367970912e-05
)


101
(
4.372615563e-05
0.0001108755121
0.0001623818121
0.0002058196019
0.000245082554
0.0002823868509
0.0003188437543
0.0003549326034
0.0003908821968
0.0004267020286
0.0004623095891
0.0004975601272
0.0005323120119
0.000566343745
0.0005995196237
0.0006316878536
0.0006626916376
0.0006923720539
0.0007207619064
0.0007476072054
0.0007729968104
0.0007969289091
0.0008192873239
0.0008401104389
0.0008594385896
0.0008773009074
0.0008937285718
0.0009087600825
0.0009224149667
0.0009347300769
0.0009457373853
0.0009554830014
0.0009640539045
0.0009713910859
0.0009775435726
0.0009825482959
0.0009864549063
0.0009893161411
0.0009911646608
0.0009920066834
0.0009918485703
0.0009907318981
0.0009887025916
0.0009857885656
0.0009820200975
0.0009774313045
0.0009720446342
0.0009658867364
0.0009589747121
0.0009513330499
0.0009429793495
0.0009339407575
0.000924240194
0.0009138983154
0.0009029357153
0.0008913754601
0.0008792444293
0.0008665413013
0.0008533017975
0.0008395347831
0.000825264861
0.0008105053472
0.000795274227
0.0007795911015
0.0007634712725
0.0007469306198
0.0007299821667
0.0007126415132
0.0006949262049
0.0006768451213
0.0006584150587
0.0006396493303
0.0006205656482
0.000601174127
0.0005814896494
0.0005615220199
0.0005412855742
0.0005207879131
0.0005000374164
0.0004790493972
0.0004578360136
0.0004364117383
0.000414785315
0.0003929694593
0.0003709697218
0.0003487975963
0.000326456926
0.0003039595999
0.0002813152948
0.0002585463284
0.0002356429738
0.0002126328859
0.0001895132488
0.0001662974804
0.0001430059168
0.0001197814097
9.673780844e-05
0.0001001118126
0.0001035003069
0.000107009875
0.0001105194386
)


101
(
4.369724452e-05
0.0001102711639
0.0001614454549
0.0002045872711
0.0002435290309
0.0002804640739
0.000316509113
0.0003521467502
0.0003876201309
0.0004229503958
0.0004580677702
0.0004928387461
0.0005271337104
0.0005607388818
0.0005935291677
0.0006253592612
0.0006560773582
0.0006855308221
0.0007137455154
0.0007404815898
0.0007658155844
0.0007897393523
0.0008121493592
0.000833078434
0.0008525574997
0.0008706126804
0.0008872742633
0.0009025783652
0.0009165453663
0.0009292100031
0.0009406013963
0.0009507606905
0.0009597608898
0.0009675686127
0.0009742339856
0.0009797782741
0.0009842427829
0.0009876741258
0.0009901062958
0.0009915576483
0.0009920403081
0.0009915808118
0.0009902170258
0.0009879810089
0.0009848998413
0.0009810056696
0.0009763210936
0.0009708735346
0.0009646804956
0.0009577659399
0.0009501458648
0.0009418445169
0.000932883775
0.0009232837145
0.0009130632295
0.00090224308
0.0008908519203
0.0008788888689
0.0008663866643
0.000853353541
0.000839813085
0.0008257782231
0.0008112656154
0.0007962938713
0.00078087837
0.0007650346125
0.0007487750188
0.0007321137566
0.0007150676459
0.0006976453038
0.0006798628389
0.000661732304
0.0006432711026
0.0006244896305
0.0006054017277
0.0005860157518
0.000566344819
0.0005463974158
0.0005261800622
0.0005057062133
0.0004849854278
0.0004640319739
0.0004428561043
0.0004214702421
0.000399879459
0.0003780955038
0.0003561204166
0.0003339650776
0.0003116335325
0.0002891543665
0.0002665155849
0.0002437513609
0.0002208562955
0.000197840044
0.0001747333087
0.000151734174
0.0001289835901
0.0001334823627
0.0001380004458
0.0001426798368
0.0001473592119
)


101
(
4.366833339e-05
0.0001096656999
0.0001605058479
0.0002033515367
0.0002419734811
0.0002785418739
0.0003141780821
0.0003493679472
0.0003843681858
0.0004192114023
0.0004538400828
0.0004881317305
0.0005219682352
0.0005551438466
0.0005875432176
0.0006190278372
0.0006494510071
0.0006786659743
0.0007066938787
0.0007333052024
0.0007585690083
0.0007824704134
0.0008049136874
0.000825929973
0.0008455426639
0.0008637735574
0.0008806512647
0.0008962099115
0.0009104698133
0.0009234646042
0.0009352210838
0.0009457763123
0.0009551929635
0.0009634478206
0.0009705994278
0.0009766614687
0.0009816669021
0.0009856556672
0.0009886591038
0.0009907012572
0.0009918011004
0.0009919802564
0.0009912677302
0.0009896950976
0.0009872885237
0.0009840775459
0.000980084312
0.0009753357599
0.000969850105
0.0009636509059
0.0009567536395
0.0009491803089
0.0009409511997
0.0009320855113
0.0009226010947
0.0009125169244
0.0009018611073
0.0008906340354
0.000878866437
0.000866565966
0.000853754822
0.000840445317
0.0008266530328
0.0008123954316
0.0007976876184
0.0007825447982
0.0007669791839
0.0007510039499
0.0007346347664
0.0007178796292
0.0007007542067
0.0006832695171
0.0006654422815
0.0006472829892
0.0006288048481
0.0006100150036
0.0005909248937
0.0005715438585
0.0005518773024
0.000531937496
0.0005117312224
0.0004912703028
0.0004705662246
0.000449631562
0.0004284713642
0.0004070979427
0.0003855114825
0.0003637227371
0.0003417316722
0.0003195670399
0.0002972166548
0.0002747227501
0.0002520769698
0.000229288257
0.0002063923958
0.0001836509964
0.0001612293065
0.0001668530451
0.0001725008883
0.0001783499903
0.000184199109
)


101
(
4.363942228e-05
0.0001090591082
0.0001595629526
0.0002021123146
0.0002404157897
0.0002766201178
0.0003118505417
0.0003465960923
0.0003811263301
0.0004154851105
0.0004496267349
0.0004834394721
0.0005168162349
0.0005495595259
0.0005815630335
0.0006126951947
0.000642814545
0.0006717799061
0.000699609408
0.0007260812524
0.0007512601277
0.0007751249676
0.0007975842572
0.0008186692546
0.0008383978774
0.0008567872049
0.0008738634185
0.0008896586635
0.0009041925892
0.0009174981725
0.000929600514
0.0009405334853
0.0009503520543
0.0009590345913
0.0009666481209
0.0009732045603
0.0009787311478
0.0009832617242
0.0009868230105
0.0009894400705
0.0009911368914
0.0009919351787
0.0009918575062
0.0009909330337
0.0009891871011
0.0009866467889
0.0009833334005
0.0009792725326
0.000974482763
0.0009689872791
0.0009628016943
0.0009559464628
0.0009484402577
0.0009403011206
0.0009315459485
0.0009221923343
0.0009122669313
0.0009017713497
0.0008907347449
0.0008791646057
0.0008670817789
0.0008544977998
0.0008414271969
0.0008278861059
0.0008138890476
0.0007994507416
0.0007845835057
0.0007692999932
0.0007536148149
0.0007375350789
0.0007210757629
0.0007042469867
0.0006870647323
0.0006695395944
0.0006516842823
0.0006335049059
0.0006150108572
0.0005962120428
0.0005771131228
0.000557725925
0.0005380551442
0.000518109395
0.0004978995724
0.0004774383651
0.0004567310603
0.0004357908648
0.0004146166715
0.00039321939
0.0003715961441
0.0003497735528
0.0003277376692
0.0003055398991
0.0002831698649
0.0002606377468
0.0002379808179
0.0002155303389
0.0001934751177
0.0002002235508
0.000207000918
0.0002140199184
0.0002210389277
)


101
(
4.361051115e-05
0.0001084513753
0.0001586167286
0.0002008695174
0.0002388558368
0.0002746986658
0.0003095263633
0.0003438310737
0.0003778945183
0.0004117715671
0.0004454279152
0.0004787623403
0.0005116783296
0.0005439867831
0.0005755898371
0.0006063629165
0.0006361699109
0.0006648749841
0.0006924945738
0.0007188128528
0.0007438920872
0.0007677060112
0.0007901648301
0.0008113004803
0.0008311271535
0.0008496574558
0.000866914621
0.0008829286358
0.0008977180166
0.0009113151675
0.0009237440028
0.0009350360378
0.0009452405941
0.0009543332764
0.0009623870578
0.000969414803
0.0009754410565
0.0009804952451
0.0009845990952
0.0009877757698
0.0009900517037
0.0009914502732
0.0009919900182
0.0009916976352
0.0009905973916
0.0009887141323
0.0009860682426
0.0009826834331
0.000978578044
0.0009737746333
0.0009682892369
0.0009621415161
0.0009553488932
0.0009479280584
0.0009398948646
0.0009312657127
0.0009220654688
0.0009122964104
0.000901986519
0.0008911434364
0.0008797869225
0.0008679278217
0.0008555796329
0.0008427570564
0.0008294736437
0.0008157432541
0.0008015782933
0.0007869913622
0.0007719964476
0.0007565997749
0.0007408153199
0.0007246522207
0.0007081256354
0.000691246234
0.0006740264519
0.0006564716094
0.000638588881
0.0006203882153
0.0006018735894
0.0005830569289
0.000563941446
0.0005445330011
0.0005248407421
0.0005048764838
0.0004846456215
0.0004641623807
0.0004434242015
0.0004224435445
0.0004012147108
0.00037976387
0.0003580699448
0.0003361959815
0.0003141297309
0.0002918843365
0.0002694966295
0.0002473706968
0.0002257214735
0.0002335944418
0.0002415011997
0.0002496899554
0.0002578786286
)


101
(
4.358160004e-05
0.0001078424886
0.0001576671359
0.0001996230582
0.0002372935019
0.0002727773771
0.0003072054158
0.0003410727769
0.0003746727005
0.0004080708132
0.0004412438038
0.0004741006943
0.0005065551247
0.0005384264713
0.0005696248294
0.0006000325704
0.0006295190374
0.0006579535645
0.0006853519052
0.000711503075
0.0007364681145
0.0007602166683
0.0007826590707
0.0008038278143
0.0008237346549
0.000842388315
0.0008598088661
0.0008760239131
0.000891050439
0.0009049201488
0.0009176560838
0.0009292881382
0.0009398616268
0.0009493474872
0.0009578219598
0.0009652991986
0.0009718031718
0.0009773608788
0.0009819898543
0.0009857101546
0.0009885484386
0.000990529471
0.0009916691567
0.0009919922764
0.0009915220074
0.0009902811658
0.0009882894155
0.0009855683973
0.0009821357522
0.0009780129393
0.0009732161456
0.0009677646953
0.0009616754715
0.0009549640573
0.0009476450684
0.0009397337311
0.0009312530103
0.0009222054429
0.0009126176779
0.0009024977002
0.0008918645435
0.0008807286863
0.0008691027382
0.0008570000575
0.0008444329395
0.0008314138948
0.0008179549962
0.0008040689457
0.0007897696729
0.0007750630217
0.0007599618578
0.0007444739698
0.0007286134785
0.0007123910673
0.0006958190588
0.0006789023176
0.0006616459853
0.0006440595361
0.0006261460164
0.0006079176817
0.0005893769207
0.0005705271135
0.0005513755686
0.0005319321898
0.0005122021979
0.0004922008318
0.0004719234175
0.0004513852717
0.0004305776039
0.000409528205
0.0003882059082
0.0003666845649
0.0003449520339
0.000323023925
0.0003009380407
0.0002791725715
0.0002579676012
0.0002669652767
0.0002760015779
0.0002853602069
0.0002947187683
)


101
(
4.355268891e-05
0.0001072324341
0.0001567141319
0.0001983728458
0.0002357286588
0.0002708561029
0.0003048875582
0.0003383210758
0.0003714608109
0.0004043828716
0.0004370745583
0.0004694548677
0.0005014471942
0.0005328794149
0.0005636691721
0.0005937056859
0.0006228638258
0.0006510179699
0.0006781839549
0.0007041549413
0.0007289914701
0.0007526601689
0.0007750705859
0.000796255353
0.0008162246285
0.000834983942
0.0008525502596
0.0008689486534
0.0008841942321
0.00089831775
0.0009113414788
0.0009232942384
0.0009342186899
0.0009440806437
0.0009529575231
0.0009608639751
0.00096782422
0.0009738644498
0.0009789993984
0.0009832459765
0.0009866297976
0.0009891761208
0.0009908985233
0.0009918204293
0.0009919640535
0.0009913503163
0.0009899984311
0.0009879281024
0.0009851560305
0.0009817022332
0.0009775826624
0.0009728161489
0.0009674193816
0.0009614075424
0.0009547942567
0.0009475934454
0.0009398261927
0.0009314949173
0.0009226246215
0.0009132235285
0.0009033101911
0.0008928950042
0.0008819900488
0.0008706076779
0.0008587589643
0.0008464546616
0.0008337058066
0.0008205249082
0.0008069260574
0.0007929154078
0.0007785052151
0.0007637017799
0.0007485177843
0.000732963534
0.000717051247
0.0007007856703
0.0006841704226
0.0006672143429
0.0006499189024
0.0006322965708
0.0006143496907
0.0005960796564
0.0005774916822
0.0005585931689
0.0005393888563
0.0005198952757
0.0005001047676
0.0004800353246
0.0004596766939
0.0004390580136
0.0004181387873
0.0003970002692
0.0003756323989
0.0003540534619
0.0003323035346
0.0003109349914
0.0002902137372
0.000300336245
0.0003105022206
0.0003210307954
0.0003315592903
)


101
(
4.352377779e-05
0.0001066211984
0.0001557576755
0.0001971187904
0.0002341611819
0.0002689346951
0.0003025726495
0.000335575845
0.0003682587821
0.0004007077627
0.0004329203323
0.0004648251888
0.0004963551032
0.0005273464326
0.0005577240144
0.0005873837821
0.0006162061743
0.0006440705196
0.0006709933205
0.0006967714808
0.00072146547
0.0007450398576
0.0007674029946
0.0007885871654
0.0008086013911
0.0008274486519
0.0008451430542
0.0008617071108
0.0008771538137
0.0008915126579
0.000904805069
0.0009170591337
0.0009283158756
0.0009385363273
0.0009477978551
0.0009561145134
0.0009635106413
0.0009700124172
0.0009756330532
0.0009803871436
0.0009842989431
0.0009873934541
0.0009896816038
0.0009911856416
0.0009919268911
0.0009919244771
0.0009911974377
0.0009897639284
0.0009876396535
0.0009848429017
0.000981389069
0.0009772962602
0.0009725809228
0.0009672580783
0.0009613410198
0.0009548426345
0.0009477820984
0.0009401615397
0.0009320039358
0.0009233174624
0.0009141201304
0.0009044224793
0.0008942363505
0.0008835735547
0.0008724443224
0.000860857706
0.0008488230153
0.0008363518042
0.0008234581155
0.0008101488497
0.000796436409
0.0007823260236
0.0007678286358
0.0007529537242
0.0007377130907
0.0007221115353
0.0007061514866
0.0006898415727
0.0006731815579
0.0006561831906
0.0006388489421
0.0006211795362
0.0006031779939
0.0005848486159
0.0005661946607
0.0005472351586
0.0005279590714
0.0005083852209
0.0004885039972
0.0004683459001
0.0004478625378
0.0004271381328
0.0004061668082
0.0003849702993
0.0003635916286
0.0003426572006
0.0003224600982
0.0003337074582
0.00034500314
0.0003567016424
0.0003684003528
)


101
(
4.349486668e-05
0.000106008767
0.0001547977225
0.0001958607977
0.0002325909389
0.0002670129968
0.0003002605374
0.0003328369457
0.0003650665297
0.0003970454866
0.0004287812547
0.0004602119575
0.000491279383
0.0005218283088
0.0005517904639
0.0005810683347
0.0006095479416
0.0006371134939
0.0006637825957
0.0006893556977
0.0007138934416
0.000737359155
0.0007596599266
0.0007808272679
0.0008008692612
0.0008197868582
0.0008375916332
0.0008543036419
0.0008699336373
0.0008845095705
0.0008980518144
0.0009105878387
0.000922157776
0.0009327185139
0.0009423469097
0.0009510555357
0.0009588682311
0.0009658111972
0.0009718969444
0.0009771387552
0.0009815598831
0.0009851848937
0.0009880218124
0.0009900913731
0.000991414027
0.0009920070787
0.0009918893792
0.0009910779357
0.0009895879441
0.0009874357911
0.0009846360247
0.0009812056245
0.0009771606637
0.0009725160678
0.0009672850413
0.0009614800189
0.0009551185359
0.0009482025016
0.0009407525212
0.0009327763125
0.0009242911532
0.0009153076398
0.0009058375983
0.000895892651
0.0008854827289
0.0008746156313
0.0008632989187
0.0008515422621
0.0008393588973
0.0008267563233
0.0008137476743
0.0008003379888
0.0007865368142
0.0007723523659
0.0007577954914
0.0007428708082
0.000727579747
0.0007119311624
0.0006959236962
0.0006795677772
0.0006628650052
0.0006458165572
0.0006284243201
0.0006106887937
0.000592610511
0.0005742108858
0.0005554775373
0.0005364275875
0.0005170519989
0.0004973853131
0.0004773703834
0.0004570933548
0.0004365516521
0.0004157721297
0.0003948010743
0.0003743388175
0.0003547067209
0.0003670789512
0.0003795043455
0.0003923726188
0.0004052411121
)


101
(
4.346595555e-05
0.0001053951251
0.0001538342284
0.0001945987719
0.0002310177955
0.000265090848
0.0002979510652
0.0003301042343
0.0003618839619
0.000393396034
0.0004246574421
0.0004556154587
0.0004862205456
0.0005163258096
0.0005458696041
0.0005747607933
0.0006028909644
0.0006301491514
0.0006565543856
0.0006819105957
0.0007062787373
0.0007296215721
0.000751845074
0.0007729796853
0.0007930325833
0.0008120030704
0.0008299005256
0.0008467427386
0.0008625382313
0.0008773132055
0.0008910867257
0.0009038855538
0.000915749362
0.0009266316511
0.0009366087737
0.0009456913891
0.0009539021766
0.0009612669253
0.0009677975416
0.0009735067315
0.0009784176031
0.0009825546119
0.0009859228975
0.0009885412681
0.0009904290262
0.0009916016143
0.0009920776514
0.0009918731257
0.0009910030037
0.0009894822243
0.000987324371
0.0009845450105
0.0009811594135
0.0009771822392
0.0009726268033
0.000967505366
0.0009618343442
0.000955615698
0.0009488676822
0.0009415971779
0.0009338202703
0.0009255474828
0.0009167905613
0.0009075611254
0.0008978692822
0.0008877222088
0.0008771261938
0.0008660887438
0.0008546213094
0.0008427311581
0.0008304322395
0.0008177301425
0.0008046338945
0.0007911505856
0.0007772896293
0.000763054857
0.000748446709
0.0007334743202
0.0007181358452
0.0007024407799
0.000686388938
0.0006699814099
0.0006532207191
0.0006361041408
0.0006186279198
0.0006008139095
0.0005826513567
0.0005641551632
0.0005453144628
0.0005261699573
0.0005066569859
0.0004868615014
0.0004667836951
0.0004464565904
0.0004259306687
0.0004059797791
0.0003869536099
0.0004004507236
0.0004140058327
0.0004280434109
0.0004420813839
)


101
(
4.343704442e-05
0.0001047802571
0.0001528671475
0.0001933326157
0.0002294416138
0.0002631680839
0.0002956440695
0.0003273775597
0.000358710976
0.0003897593826
0.0004205489956
0.0004510359586
0.0004811790793
0.0005108396772
0.0005399624901
0.0005684625761
0.0005962370493
0.0006231797203
0.0006493112878
0.0006744391741
0.0006986247272
0.0007218306857
0.0007439621951
0.0007650484602
0.0007850957148
0.0008041018595
0.0008220743843
0.0008390290427
0.0008549722352
0.0008699283208
0.0008839148184
0.0008969575832
0.0009090959815
0.0009202807147
0.0009305879425
0.0009400264144
0.0009486172306
0.0009563851717
0.0009633411401
0.000969497552
0.0009748780246
0.0009795075697
0.0009833889866
0.0009865391235
0.0009889756256
0.0009907118235
0.0009917659165
0.000992152856
0.0009918877692
0.0009909844421
0.0009894556139
0.0009873154003
0.000984578059
0.0009812575602
0.0009773671348
0.0009729191756
0.0009679293297
0.0009623999515
0.0009563473893
0.0009497774713
0.0009427047011
0.0009351392334
0.0009270925274
0.0009185761023
0.0009096003841
0.0009001726553
0.0008902986692
0.0008799841182
0.0008692381008
0.0008580665992
0.0008464837241
0.0008344958354
0.0008221123305
0.0008093399645
0.0007961867943
0.00078265531
0.000768744285
0.0007544630148
0.0007398095897
0.0007247933947
0.0007094122572
0.0006936659565
0.0006775583319
0.0006610852847
0.0006442383298
0.0006270367839
0.0006094724174
0.0005915602211
0.000573285632
0.0005546937832
0.0005357165448
0.0005164380992
0.0004968598147
0.0004770215912
0.0004569791581
0.0004375796152
0.0004192009144
0.0004338226463
0.0004485071927
0.0004637132225
0.0004789195844
)


101
(
4.340813327e-05
0.000104164147
0.0001518964321
0.0001920622284
0.000227862251
0.0002612445332
0.0002933393787
0.0003246567612
0.0003555474572
0.000386135495
0.0004164559967
0.0004464737006
0.0004761554449
0.0005053706248
0.0005340701426
0.0005621750637
0.0005895879666
0.0006162073927
0.0006420558827
0.0006669444167
0.0006909347843
0.000713990128
0.0007360151135
0.0007570376668
0.0007770630297
0.0007960878499
0.0008141179706
0.0008311673353
0.0008472404083
0.0008623597299
0.0008765411137
0.0008898092413
0.0009022031063
0.0009136710662
0.0009242893817
0.0009340651955
0.0009430179635
0.000951171035
0.0009585337391
0.0009651177783
0.0009709476346
0.0009760496545
0.0009804250827
0.0009840892465
0.000987057807
0.0009893415178
0.0009909580005
0.000991921001
0.0009922456787
0.0009919452718
0.0009910320214
0.0009895184871
0.0009874178015
0.0009847431188
0.0009815071235
0.0009777223253
0.0009734039109
0.0009685550364
0.0009631904813
0.0009573152453
0.0009509420376
0.0009440802563
0.00093674087
0.0009289350546
0.0009206734373
0.0009119636555
0.0009028117083
0.0008932223216
0.0008832023906
0.0008727558495
0.0008618958184
0.0008506290506
0.0008389656312
0.0008269129734
0.0008144785852
0.0008016636045
0.0007884644079
0.0007748895995
0.0007609371772
0.0007466173083
0.0007319266781
0.0007168627003
0.0007014295613
0.0006856236415
0.000669433137
0.0006528723523
0.0006359337038
0.0006186353563
0.0006009591742
0.000582951595
0.0005645441181
0.0005458189143
0.0005267767348
0.0005074650141
0.0004879453302
0.0004691378511
0.0004514486958
0.000467194467
0.0004830078556
0.0004993808049
0.0005157539058
)


101
(
4.337922212e-05
0.0001035467787
0.000150922035
0.000190787509
0.0002262795631
0.0002593200224
0.0002910368178
0.0003219416742
0.0003523932845
0.0003825243256
0.0004123785166
0.0004419289151
0.0004711500861
0.0004999193466
0.0005281935593
0.0005558996108
0.0005829454629
0.0006092343394
0.0006347907474
0.000659429317
0.0006832123056
0.0007061035912
0.0007280077296
0.0007489514355
0.0007689389403
0.00078796572
0.0008060361484
0.0008231625555
0.0008393476793
0.0008546123628
0.0008689706692
0.0008824458816
0.0008950763884
0.0009068084013
0.0009177185618
0.0009278127883
0.0009371091381
0.0009456293834
0.0009533808071
0.0009603737185
0.000966633283
0.0009721874562
0.0009770369854
0.0009811964739
0.0009846798836
0.0009874948923
0.0009896579169
0.0009911814734
0.0009920807008
0.0009923682513
0.0009920563561
0.0009911564912
0.0009896804243
0.0009876403083
0.0009850481574
0.0009819160739
0.0009782590206
0.000974081272
0.0009693965006
0.000964209245
0.000958530437
0.000952368292
0.0009457331005
0.0009386355133
0.0009310861338
0.0009230928013
0.0009146621523
0.0009057988193
0.0008965082508
0.0008867923289
0.0008766621881
0.0008661239667
0.0008551881801
0.0008438633281
0.0008321574876
0.0008200713566
0.0008075987973
0.0007947464512
0.0007815112749
0.000767904802
0.000753923925
0.0007395638519
0.0007248273986
0.0007097116062
0.000694203858
0.00067831315
0.0006620288112
0.0006453738199
0.000628328811
0.0006109385174
0.0005931351299
0.0005750002124
0.0005565311814
0.0005377846165
0.0005188278413
0.000500653623
0.0004836963519
0.000500565238
0.0005175063874
0.0005350439691
0.0005525830682
)


101
(
4.335031101e-05
0.0001029281363
0.0001499439083
0.0001895083552
0.0002246934036
0.0002573943743
0.0002887362062
0.000319232128
0.0003492483287
0.0003789258184
0.0004083166122
0.0004374018159
0.0004661634252
0.0004944865131
0.0005223337099
0.0005496375405
0.0005763112532
0.0006022627021
0.0006275184422
0.000651896863
0.0006754606974
0.000698174816
0.0007199440229
0.000740793966
0.0007607279042
0.0007797402002
0.0007978338743
0.0008150197938
0.0008312991588
0.0008466913
0.0008612086073
0.0008748728259
0.000887721476
0.0008996986131
0.0009108813393
0.0009212747425
0.0009308958831
0.0009397651596
0.0009478875645
0.0009552713479
0.0009619416678
0.0009679280437
0.0009732314036
0.0009778666392
0.0009818467127
0.0009851762554
0.0009878699119
0.0009899384952
0.0009913969255
0.0009922573638
0.0009925322177
0.0009922322359
0.0009913681843
0.0009899510215
0.0009879918114
0.0009855020936
0.0009824961308
0.0009789796163
0.000974965691
0.0009704588476
0.0009654684482
0.0009600013802
0.0009540669185
0.0009476750099
0.0009408360528
0.0009335578269
0.0009258475334
0.0009177103235
0.0009091510969
0.000900170197
0.0008907765627
0.0008809747073
0.000870774704
0.0008601858546
0.0008492173996
0.0008378710718
0.0008261391429
0.000814025619
0.0008015248373
0.0007886488401
0.0007753961015
0.0007617611889
0.0007477444876
0.0007333421398
0.000718542645
0.0007033513823
0.0006877514043
0.000671769362
0.0006553882524
0.000638649572
0.0006214847432
0.0006039781705
0.0005861199495
0.0005679778607
0.0005496250804
0.000532126385
0.0005159431481
0.0005339334918
0.0005520005827
0.0005706995778
0.0005893997201
)


101
(
4.332139986e-05
0.0001023082003
0.0001489619965
0.0001882246565
0.0002231036147
0.0002554673973
0.0002864373459
0.0003165279311
0.0003461124358
0.0003753398879
0.0004042703051
0.0004328925752
0.0004611958369
0.0004890727423
0.0005164915059
0.0005433901105
0.0005696869852
0.0005952945526
0.0006202414643
0.0006443499861
0.0006676833212
0.0006902075356
0.0007118280007
0.0007325694969
0.000752434399
0.0007714160278
0.0007895161323
0.0008067442164
0.0008231000904
0.0008386017634
0.0008532601315
0.0008670953898
0.0008801439607
0.0008923476289
0.0009037838121
0.0009144570537
0.0009243838481
0.000933583559
0.0009420590405
0.000949816151
0.0009568791397
0.0009632785573
0.0009690156034
0.0009741063641
0.0009785639319
0.0009823904936
0.0009855985072
0.0009881964359
0.0009901987461
0.0009916168835
0.0009924635488
0.0009927492385
0.0009924839704
0.0009916776067
0.0009903401546
0.0009884821663
0.0009861171177
0.0009832517935
0.0009798991302
0.0009760642032
0.0009717553209
0.0009669780876
0.0009617403823
0.0009560512971
0.0009499207886
0.0009433563905
0.0009363656385
0.0009289542581
0.0009211273891
0.0009128846677
0.0009042331175
0.0008951752583
0.000885719766
0.0008758758694
0.0008656536272
0.0008550567628
0.0008440778545
0.0008327189722
0.0008209703885
0.0008088428442
0.0007963363154
0.0007834468365
0.0007701731838
0.0007565084036
0.000742442119
0.0007279790885
0.0007130947961
0.0006978159962
0.0006821311854
0.0006660792352
0.0006495879921
0.0006327482372
0.0006155398154
0.0005980419783
0.0005803349738
0.000563554139
0.0005481874593
0.0005672969831
0.0005864874389
0.0006063436896
0.0006262006671
)


101
(
4.329248871e-05
0.0001016869535
0.0001479762508
0.0001869363055
0.0002215100416
0.0002535389028
0.0002841400414
0.0003138288956