/*--------------------------------*- C++ -*----------------------------------*\
| =========                 |                                                 |
| \\      /  F ield         | OpenFOAM: The Open Source CFD Toolbox           |
|  \\    /   O peration     | Version:  2.3.1                                 |
|   \\  /    A nd           | Web:      www.OpenFOAM.org                      |
|    \\/     M anipulation  |                                                 |
\*---------------------------------------------------------------------------*/
FoamFile
{
    version     2.0;
    format      ascii;
    class       dictionary;
    location    "constant";
    object      H2O2;
}
// * * * * * * * * * * * * * * * * * * * * * * * * * * * * * * * * * * * * * //

H2O2_table
101
(

101
(
1.336934711e-06
4.260926122e-06
8.225723932e-06
1.221311214e-05
1.580096931e-05
1.884875742e-05
2.133712999e-05
2.322585936e-05
2.456811979e-05
2.541117607e-05
2.583270402e-05
2.591349873e-05
2.575099055e-05
2.542743633e-05
2.502854881e-05
2.461454646e-05
2.422297075e-05
2.386919285e-05
2.354567694e-05
2.323971319e-05
2.293293804e-05
2.261479168e-05
2.227870047e-05
2.193041334e-05
2.158061919e-05
2.124238654e-05
2.092823777e-05
2.064715399e-05
2.040615073e-05
2.020716522e-05
2.004997534e-05
1.99308961e-05
1.984308097e-05
1.979100049e-05
1.975857527e-05
1.973716744e-05
1.968026875e-05
1.961320671e-05
1.968800171e-05
1.976740199e-05
1.984734785e-05
1.992559183e-05
1.99995685e-05
2.006716646e-05
2.012739622e-05
2.017760723e-05
2.021716263e-05
2.024368148e-05
2.025686314e-05
2.025468149e-05
2.023723403e-05
2.020319936e-05
2.015191676e-05
2.008291952e-05
1.999582344e-05
1.989023783e-05
1.976324021e-05
1.961875246e-05
1.945279671e-05
1.926760794e-05
1.906156346e-05
1.883482872e-05
1.858809098e-05
1.832059943e-05
1.803253481e-05
1.772346656e-05
1.739431686e-05
1.704526994e-05
1.667511929e-05
1.628501841e-05
1.587437836e-05
1.544274178e-05
1.498835529e-05
1.451051854e-05
1.398387297e-05
1.346260296e-05
1.295621383e-05
1.243266204e-05
1.189311029e-05
1.133821292e-05
1.076662951e-05
1.017587873e-05
9.564380062e-06
8.91244327e-06
8.28796801e-06
7.664594958e-06
7.027975075e-06
6.377842928e-06
5.71007133e-06
5.001036484e-06
4.327627983e-06
3.641013208e-06
2.924860335e-06
2.207241672e-06
1.466552262e-06
7.376910364e-07
-2.752754995e-14
-3.097047119e-34
2.091723822e-25
-3.513883216e-24
0
)


101
(
1.336138013e-06
4.227264636e-06
8.148642368e-06
1.210250567e-05
1.566969075e-05
1.870916054e-05
2.120042063e-05
2.310545828e-05
2.447276288e-05
2.534854508e-05
2.580599161e-05
2.592280518e-05
2.579148511e-05
2.54928736e-05
2.510940414e-05
2.470254617e-05
2.431207283e-05
2.395646709e-05
2.363224021e-05
2.332864183e-05
2.302828166e-05
2.271942052e-05
2.239456564e-05
2.20557795e-05
2.171175742e-05
2.137439449e-05
2.105587674e-05
2.076595089e-05
2.051228102e-05
2.029841116e-05
2.012520463e-05
1.999050568e-05
1.98891925e-05
1.982208144e-05
1.977982628e-05
1.975257399e-05
1.970973255e-05
1.965233316e-05
1.966949622e-05
1.9731378e-05
1.980695933e-05
1.988553782e-05
1.996181666e-05
2.003288133e-05
2.009723448e-05
2.01530442e-05
2.019928117e-05
2.02343239e-05
2.025711974e-05
2.026626067e-05
2.026099985e-05
2.024048206e-05
2.020390017e-05
2.015074904e-05
2.008042863e-05
1.999239568e-05
1.988518092e-05
1.975939026e-05
1.961433133e-05
1.944990692e-05
1.926588147e-05
1.906184932e-05
1.883801467e-05
1.8594311e-05
1.833058452e-05
1.804641619e-05
1.774216499e-05
1.741820603e-05
1.707433446e-05
1.671039066e-05
1.632657385e-05
1.592286532e-05
1.549874384e-05
1.505328407e-05
1.457563443e-05
1.407601323e-05
1.357223085e-05
1.306376094e-05
1.254581288e-05
1.201447083e-05
1.146704886e-05
1.090272581e-05
1.03205586e-05
9.711234101e-06
9.088077556e-06
8.467803644e-06
7.846944714e-06
7.215922223e-06
6.571076067e-06
5.904095886e-06
5.222110281e-06
4.544685792e-06
3.858090897e-06
3.15055158e-06
2.434374084e-06
1.718182311e-06
1.023361494e-06
1.049159339e-06
1.075131232e-06
1.102544251e-06
1.130072594e-06
)


101
(
1.335341315e-06
4.19360773e-06
8.071506299e-06
1.199150779e-05
1.553748309e-05
1.85679196e-05
2.106118203e-05
2.298129745e-05
2.437249587e-05
2.527977264e-05
2.577217183e-05
2.592429042e-05
2.582398619e-05
2.555033221e-05
2.518276971e-05
2.478339337e-05
2.4393969e-05
2.403588248e-05
2.370947318e-05
2.340625099e-05
2.311010329e-05
2.28086108e-05
2.249336236e-05
2.216353992e-05
2.18255577e-05
2.148988672e-05
2.116812362e-05
2.08704043e-05
2.060498359e-05
2.037666765e-05
2.01874475e-05
2.003648332e-05
1.992024072e-05
1.983786061e-05
1.978351019e-05
1.97481919e-05
1.97094615e-05
1.965993401e-05
1.964748744e-05
1.968151706e-05
1.974336082e-05
1.981724118e-05
1.989329104e-05
1.996630741e-05
2.003369372e-05
2.009355039e-05
2.014483784e-05
2.018635383e-05
2.021691789e-05
2.023526512e-05
2.024037375e-05
2.023138092e-05
2.020742419e-05
2.016784406e-05
2.011207374e-05
2.003954771e-05
1.994937245e-05
1.984108313e-05
1.971444639e-05
1.956913209e-05
1.940493875e-05
1.922155596e-05
1.90189095e-05
1.879686134e-05
1.855523557e-05
1.829382923e-05
1.801275187e-05
1.771217589e-05
1.739213255e-05
1.705252075e-05
1.669329357e-05
1.631475218e-05
1.591676568e-05
1.549939115e-05
1.505793387e-05
1.45911341e-05
1.410628591e-05
1.36108881e-05
1.310852808e-05
1.259736684e-05
1.207249768e-05
1.153140823e-05
1.097398909e-05
1.039716924e-05
9.799288336e-06
9.188227122e-06
8.575590499e-06
7.960353729e-06
7.333272544e-06
6.690229192e-06
6.030787882e-06
5.357435717e-06
4.684046335e-06
3.996702895e-06
3.288903955e-06
2.602758661e-06
1.958146199e-06
1.993560163e-06
2.028844343e-06
2.063093681e-06
2.097329539e-06
)


101
(
1.334544616e-06
4.159956261e-06
7.994318276e-06
1.188012545e-05
1.540435906e-05
1.842505647e-05
2.091944992e-05
2.285343943e-05
2.426738846e-05
2.520495287e-05
2.573134117e-05
2.591806328e-05
2.584859658e-05
2.55999653e-05
2.524882854e-05
2.485740443e-05
2.446916335e-05
2.410817925e-05
2.377840444e-05
2.347380557e-05
2.317983033e-05
2.288383071e-05
2.25765904e-05
2.22550101e-05
2.192319835e-05
2.158996818e-05
2.1266084e-05
2.096175128e-05
2.068566946e-05
2.044365054e-05
2.02387642e-05
2.007131536e-05
1.993919234e-05
1.98409911e-05
1.977285904e-05
1.972823981e-05
1.968739169e-05
1.964207979e-05
1.96148731e-05
1.962386857e-05
1.966603612e-05
1.97290612e-05
1.980095936e-05
1.987380657e-05
1.994299478e-05
2.000572561e-05
2.006078756e-05
2.010713836e-05
2.01438273e-05
2.016960708e-05
2.018342879e-05
2.018429081e-05
2.017130545e-05
2.014372168e-05
2.010087401e-05
2.004211967e-05
1.996693182e-05
1.987456124e-05
1.976463473e-05
1.963681816e-05
1.949081979e-05
1.932635269e-05
1.914324347e-05
1.89413167e-05
1.872036986e-05
1.848024044e-05
1.822087037e-05
1.794241272e-05
1.764475549e-05
1.732789358e-05
1.699177176e-05
1.663657073e-05
1.626233882e-05
1.586951953e-05
1.545664029e-05
1.50211359e-05
1.456343266e-05
1.408786142e-05
1.360084527e-05
1.310613815e-05
1.260131574e-05
1.208211263e-05
1.154673697e-05
1.0994732e-05
1.042420433e-05
9.834871784e-06
9.233154755e-06
8.629503136e-06
8.019617729e-06
7.39606288e-06
6.757004794e-06
6.101357242e-06
5.434699268e-06
4.762720541e-06
4.069937248e-06
3.411281711e-06
2.820970614e-06
2.85882578e-06
2.896712294e-06
2.934894619e-06
2.972609417e-06
)


101
(
1.333747918e-06
4.126311119e-06
7.917080877e-06
1.176836563e-05
1.527033127e-05
1.828059272e-05
2.077525923e-05
2.272194474e-05
2.415750816e-05
2.512417399e-05
2.568358763e-05
2.590421769e-05
2.586539599e-05
2.56418862e-05
2.53077139e-05
2.492481534e-05
2.45380592e-05
2.417397385e-05
2.383990209e-05
2.353239867e-05
2.323871407e-05
2.294637349e-05
2.264553433e-05
2.23313047e-05
2.200558951e-05
2.167541076e-05
2.135047014e-05
2.104073678e-05
2.075517523e-05
2.050038562e-05
2.028045063e-05
2.009666034e-05
1.994818243e-05
1.983363727e-05
1.975028218e-05
1.969290915e-05
1.964757794e-05
1.960302407e-05
1.95678593e-05
1.955807845e-05
1.957955767e-05
1.962707201e-05
1.969025619e-05
1.975979873e-05
1.982900516e-05
1.989348676e-05
1.995131056e-05
2.000131756e-05
2.004276499e-05
2.007450474e-05
2.009554196e-05
2.010479463e-05
2.010132007e-05
2.008428246e-05
2.005297372e-05
2.000672022e-05
1.994488613e-05
1.986689755e-05
1.977220297e-05
1.966048469e-05
1.953131797e-05
1.938436837e-05
1.921941638e-05
1.903622957e-05
1.883460959e-05
1.86144561e-05
1.83755543e-05
1.811790088e-05
1.784145091e-05
1.754614474e-05
1.723206918e-05
1.689913744e-05
1.65474201e-05
1.617723877e-05
1.578854608e-05
1.53799776e-05
1.495013109e-05
1.449919522e-05
1.403133081e-05
1.355257221e-05
1.306519017e-05
1.256637661e-05
1.205224578e-05
1.152185575e-05
1.097477982e-05
1.040990619e-05
9.827569904e-06
9.235475354e-06
8.639521315e-06
8.033557246e-06
7.412610553e-06
6.776222159e-06
6.123932385e-06
5.46418087e-06
4.787219771e-06
4.153134264e-06
3.606830047e-06
3.647738683e-06
3.689408054e-06
3.737009032e-06
3.785001652e-06
)


101
(
1.332951219e-06
4.092673203e-06
7.839796687e-06
1.165623528e-05
1.513541224e-05
1.813454955e-05
2.062864409e-05
2.258687151e-05
2.40429194e-05
2.503751674e-05
2.5628988e-05
2.588282581e-05
2.58744345e-05
2.567615616e-05
2.535949091e-05
2.498576507e-05
2.460092935e-05
2.423372371e-05
2.389465416e-05
2.358292577e-05
2.328779754e-05
2.299732794e-05
2.270126929e-05
2.239334633e-05
2.207344998e-05
2.174674868e-05
2.142169688e-05
2.110775711e-05
2.081394793e-05
2.054744766e-05
2.031318896e-05
2.011351475e-05
1.994859287e-05
1.981742258e-05
1.971811574e-05
1.964668696e-05
1.959312136e-05
1.954616903e-05
1.950590242e-05
1.948268722e-05
1.948550482e-05
1.951537025e-05
1.956590389e-05
1.962850545e-05
1.969527176e-05
1.976007787e-05
1.981969464e-05
1.987236345e-05
1.991737439e-05
1.995378019e-05
1.998070411e-05
1.999704072e-05
2.000178035e-05
1.999400057e-05
1.997293154e-05
1.993790353e-05
1.988820014e-05
1.982327976e-05
1.97424764e-05
1.964551853e-05
1.953195916e-05
1.940129341e-05
1.925332354e-05
1.908771047e-05
1.890421798e-05
1.87027712e-05
1.848315806e-05
1.824526027e-05
1.798901183e-05
1.771414295e-05
1.742093673e-05
1.710927845e-05
1.677919348e-05
1.64307594e-05
1.606423898e-05
1.567922393e-05
1.527463233e-05
1.484929434e-05
1.440425204e-05
1.394374159e-05
1.347273354e-05
1.299204963e-05
1.249835908e-05
1.198873501e-05
1.146279675e-05
1.092016266e-05
1.035999893e-05
9.784884218e-06
9.202087541e-06
8.612239673e-06
8.00877481e-06
7.389800132e-06
6.754565919e-06
6.108065361e-06
5.4462731e-06
4.835704053e-06
4.3293143e-06
4.379965876e-06
4.429935755e-06
4.475196925e-06
4.519740071e-06
)


101
(
1.332154521e-06
4.059043464e-06
7.762468385e-06
1.154374145e-05
1.499961457e-05
1.798694805e-05
2.047963811e-05
2.244827652e-05
2.392368545e-05
2.494505868e-05
2.55676151e-05
2.585395173e-05
2.587575039e-05
2.570281323e-05
2.540419395e-05
2.504034347e-05
2.465797916e-05
2.428780218e-05
2.394324931e-05
2.362617939e-05
2.332802524e-05
2.303769964e-05
2.274478914e-05
2.24419963e-05
2.212744124e-05
2.180444171e-05
2.148006425e-05
2.116304281e-05
2.086223256e-05
2.058518054e-05
2.033752132e-05
2.012253129e-05
1.99413382e-05
1.979346271e-05
1.967771505e-05
1.959119544e-05
1.95267083e-05
1.947428641e-05
1.942935819e-05
1.9396455e-05
1.938377521e-05
1.939610717e-05
1.943145888e-05
1.948367687e-05
1.954505311e-05
1.960823568e-05
1.966847919e-05
1.97229295e-05
1.977054627e-05
1.981050505e-05
1.984208371e-05
1.986427255e-05
1.987601759e-05
1.987631202e-05
1.986428025e-05
1.983927104e-05
1.980053388e-05
1.974750807e-05
1.967947889e-05
1.959609557e-05
1.949688432e-05
1.938134394e-05
1.924919573e-05
1.910010501e-05
1.893371713e-05
1.874989876e-05
1.854849084e-05
1.832932343e-05
1.809228283e-05
1.78370716e-05
1.756375023e-05
1.727232363e-05
1.696286823e-05
1.663539154e-05
1.629005413e-05
1.59267487e-05
1.554492707e-05
1.514370732e-05
1.472258359e-05
1.428310255e-05
1.382954977e-05
1.336563813e-05
1.289087162e-05
1.240153647e-05
1.189589918e-05
1.137395694e-05
1.083519275e-05
1.027988152e-05
9.712176632e-06
9.137472582e-06
8.551228198e-06
7.949805269e-06
7.331455151e-06
6.699254354e-06
6.052371688e-06
5.466913547e-06
4.997709115e-06
5.050248434e-06
5.10243242e-06
5.151787692e-06
5.201495769e-06
)


101
(
1.331357822e-06
4.02542285e-06
7.685098577e-06
1.143089106e-05
1.486295044e-05
1.783780817e-05
2.032827239e-05
2.230621219e-05
2.379986668e-05
2.484687288e-05
2.549953551e-05
2.581765e-05
2.586936692e-05
2.572187082e-05
2.544182305e-05
2.508858821e-05
2.470934767e-05
2.43365019e-05
2.398618155e-05
2.366285476e-05
2.336025051e-05
2.306842004e-05
2.27770374e-05
2.247810025e-05
2.216823285e-05
2.184896521e-05
2.152587447e-05
2.120678181e-05
2.09001775e-05
2.061377375e-05
2.035374251e-05
2.012416675e-05
1.992707801e-05
1.976259924e-05
1.963015235e-05
1.95277523e-05
1.945034015e-05
1.938969556e-05
1.933918097e-05
1.929867436e-05
1.927362823e-05
1.927001265e-05
1.928924389e-05
1.932840568e-05
1.938134247e-05
1.944045131e-05
1.949974849e-05
1.955502408e-05
1.960444422e-05
1.964702943e-05
1.968220063e-05
1.970911166e-05
1.972670914e-05
1.973394236e-05
1.972986928e-05
1.971375966e-05
1.968482242e-05
1.964256762e-05
1.958620697e-05
1.951534109e-05
1.942943832e-05
1.932797724e-05
1.921060793e-05
1.907696842e-05
1.892669166e-05
1.875953819e-05
1.857535797e-05
1.837392136e-05
1.815511867e-05
1.791864083e-05
1.766437689e-05
1.739234947e-05
1.710264482e-05
1.679531051e-05
1.647038802e-05
1.612780185e-05
1.576718575e-05
1.538814766e-05
1.49900512e-05
1.457290186e-05
1.413884914e-05
1.369194511e-05
1.323463076e-05
1.276471955e-05
1.227903961e-05
1.177701254e-05
1.125861096e-05
1.072356347e-05
1.017335327e-05
9.613780262e-06
9.043931716e-06
8.460022821e-06
7.859289898e-06
7.2423401e-06
6.611214508e-06
6.048029427e-06
5.611007964e-06
5.665791019e-06
5.720155794e-06
5.771594517e-06
5.823428371e-06
)


101
(
1.330561124e-06
3.991812376e-06
7.607690023e-06
1.131769119e-05
1.472543221e-05
1.768714952e-05
2.017457635e-05
2.216072703e-05
2.367152089e-05
2.47430282e-05
2.542481064e-05
2.577396469e-05
2.585529285e-05
2.573331692e-05
2.547234604e-05
2.513048855e-05
2.475510817e-05
2.438003687e-05
2.402385566e-05
2.369355623e-05
2.338524136e-05
2.309034873e-05
2.279890195e-05
2.250246702e-05
2.219646449e-05
2.188075972e-05
2.15593807e-05
2.123908333e-05
2.092781372e-05
2.063325809e-05
2.036195225e-05
2.011864381e-05
1.990619509e-05
1.972538319e-05
1.957619767e-05
1.945741724e-05
1.936562509e-05
1.929441291e-05
1.923670309e-05
1.918926795e-05
1.915428243e-05
1.913690726e-05
1.914044875e-05
1.916501095e-05
1.920684824e-05
1.925921024e-05
1.931554669e-05
1.937037651e-05
1.942073387e-05
1.946513284e-05
1.950300144e-05
1.953359726e-05
1.955596953e-05
1.956910953e-05
1.957195947e-05
1.956369931e-05
1.954353111e-05
1.95109776e-05
1.94652051e-05
1.940578656e-05
1.933214388e-05
1.924374539e-05
1.914020291e-05
1.90210577e-05
1.888592552e-05
1.873447998e-05
1.856654131e-05
1.83819127e-05
1.818044782e-05
1.796189924e-05
1.772596315e-05
1.747260113e-05
1.720179512e-05
1.691372884e-05
1.660848252e-05
1.628587296e-05
1.59455404e-05
1.558731548e-05
1.521087155e-05
1.481585419e-05
1.44026368e-05
1.397397263e-05
1.353356192e-05
1.308191762e-05
1.261571112e-05
1.213338682e-05
1.163454802e-05
1.111947145e-05
1.058801617e-05
1.004453812e-05
9.491097356e-06
8.924696085e-06
8.341322599e-06
7.740547095e-06
7.125285811e-06
6.584013549e-06
6.179822312e-06
6.235146301e-06
6.28992012e-06
6.34021453e-06
6.390022812e-06
)


101
(
1.329764425e-06
3.958213027e-06
7.530245371e-06
1.12041487e-05
1.458707186e-05
1.753499135e-05
2.001857883e-05
2.201186795e-05
2.353870451e-05
2.463359156e-05
2.53435003e-05
2.572293645e-05
2.583353125e-05
2.573712614e-05
2.549571043e-05
2.516599968e-05
2.479528242e-05
2.441855366e-05
2.405659632e-05
2.371880403e-05
2.340368713e-05
2.310427708e-05
2.281121628e-05
2.251586899e-05
2.221274416e-05
2.190021809e-05
2.158077473e-05
2.125998724e-05
2.094509258e-05
2.064357102e-05
2.036215037e-05
2.010608779e-05
1.987897022e-05
1.968225033e-05
1.951650381e-05
1.938111221e-05
1.927390445e-05
1.919016684e-05
1.912335523e-05
1.906859019e-05
1.902515385e-05
1.899625689e-05
1.898546399e-05
1.899502933e-05
1.902382191e-05
1.906684951e-05
1.911789286e-05
1.917062371e-05
1.922089196e-05
1.926632865e-05
1.930606004e-05
1.933937731e-05
1.936549873e-05
1.938348315e-05
1.939225119e-05
1.93909031e-05
1.937851312e-05
1.935468186e-05
1.931848083e-05
1.926947767e-05
1.920708881e-05
1.913074235e-05
1.90400338e-05
1.893444725e-05
1.88135546e-05
1.867696913e-05
1.852442117e-05
1.835573742e-05
1.81707384e-05
1.79691954e-05
1.775077604e-05
1.751532621e-05
1.726280302e-05
1.699331066e-05
1.670697264e-05
1.640362115e-05
1.608290785e-05
1.574461586e-05
1.538858846e-05
1.501472709e-05
1.462268832e-05
1.421344863e-05
1.379043898e-05
1.335610491e-05
1.290873338e-05
1.244583522e-05
1.196620816e-05
1.14706267e-05
1.095836029e-05
1.043208517e-05
9.895055345e-06
9.345980055e-06
8.780129447e-06
8.196337623e-06
7.597285608e-06
7.077439503e-06
6.701413087e-06
6.757367898e-06
6.812404328e-06
6.860741563e-06
6.90720811e-06
)


101
(
1.328967727e-06
3.924625924e-06
7.452767507e-06
1.109027064e-05
1.444788143e-05
1.738135274e-05
1.986030879e-05
2.185968213e-05
2.340147163e-05
2.451862423e-05
2.525565982e-05
2.566460252e-05
2.580408203e-05
2.573326523e-05
2.551185047e-05
2.519505215e-05
2.482985292e-05
2.445214541e-05
2.408466372e-05
2.373905292e-05
2.341621987e-05
2.31109472e-05
2.281475059e-05
2.251903774e-05
2.221765719e-05
2.190771443e-05
2.159021913e-05
2.126948671e-05
2.095189642e-05
2.06445464e-05
2.035419437e-05
2.008646166e-05
1.984553073e-05
1.963347485e-05
1.945150219e-05
1.929950382e-05
1.917622995e-05
1.907843657e-05
1.900064397e-05
1.893745039e-05
1.888605517e-05
1.884739271e-05
1.882402512e-05
1.881916743e-05
1.883388595e-05
1.886540487e-05
1.890872499e-05
1.895738478e-05
1.900625618e-05
1.905185424e-05
1.909267935e-05
1.912786976e-05
1.915677493e-05
1.917858187e-05
1.91922991e-05
1.919689317e-05
1.919133343e-05
1.917523993e-05
1.914763968e-05
1.910807201e-05
1.905595075e-05
1.899070085e-05
1.891184472e-05
1.881888315e-05
1.871135354e-05
1.85888101e-05
1.845082893e-05
1.829724586e-05
1.812783925e-05
1.794244949e-05
1.774074587e-05
1.752249359e-05
1.728753584e-05
1.703593408e-05
1.676780616e-05
1.648306319e-05
1.618132403e-05
1.58622993e-05
1.552589748e-05
1.517216983e-05
1.480076535e-05
1.441156355e-05
1.400682128e-05
1.358959749e-05
1.316025931e-05
1.271651463e-05
1.225604398e-05
1.177954994e-05
1.128652144e-05
1.077811425e-05
1.025782479e-05
9.726058864e-06
9.177866579e-06
8.611527409e-06
8.028940837e-06
7.530365506e-06
7.181118272e-06
7.235183041e-06
7.288529615e-06
7.335268428e-06
7.382992286e-06
)


101
(
1.328171029e-06
3.891052134e-06
7.37525919e-06
1.097606387e-05
1.430787264e-05
1.722625237e-05
1.969979453e-05
2.170421562e-05
2.325987532e-05
2.439818462e-05
2.516134263e-05
2.559899751e-05
2.576694213e-05
2.572169334e-05
2.55206867e-05
2.521755125e-05
2.485876228e-05
2.448085109e-05
2.410824885e-05
2.37546794e-05
2.342339937e-05
2.311104828e-05
2.281023834e-05
2.25126892e-05
2.221179875e-05
2.190365026e-05
2.158790967e-05
2.126759583e-05
2.094810019e-05
2.063597716e-05
2.033785527e-05
2.005957945e-05
1.980580076e-05
1.957911429e-05
1.93813861e-05
1.921298733e-05
1.907335861e-05
1.896044364e-05
1.886999583e-05
1.879689029e-05
1.873716786e-05
1.868974785e-05
1.865550374e-05
1.863743945e-05
1.86379844e-05
1.865651595e-05
1.868987176e-05
1.873226698e-05
1.877808135e-05
1.882275127e-05
1.886388504e-05
1.890019935e-05
1.893102817e-05
1.895570783e-05
1.897336705e-05
1.898289578e-05
1.898325271e-05
1.897396298e-05
1.895405161e-05
1.892297493e-05
1.888015343e-05
1.882503496e-05
1.87570958e-05
1.867582861e-05
1.85807264e-05
1.847133943e-05
1.834716895e-05
1.820789338e-05
1.805328855e-05
1.788321685e-05
1.769738796e-05
1.749555736e-05
1.727748062e-05
1.704313171e-05
1.679257582e-05
1.652576751e-05
1.624233492e-05
1.594195363e-05
1.56245912e-05
1.529022649e-05
1.493864746e-05
1.456943424e-05
1.418361651e-05
1.378380976e-05
1.337195189e-05
1.29468888e-05
1.250553825e-05
1.204785463e-05
1.157380898e-05
1.108396017e-05
1.058074884e-05
1.006630592e-05
9.53603056e-06
8.987476439e-06
8.421757562e-06
7.943535346e-06
7.618868687e-06
7.671146364e-06
7.722293143e-06
7.764699344e-06
7.807032427e-06
)


101
(
1.32737433e-06
3.857492791e-06
7.297723275e-06
1.086153535e-05
1.416705737e-05
1.706970902e-05
1.953706464e-05
2.154551419e-05
2.311396736e-05
2.427232965e-05
2.506060188e-05
2.552615476e-05
2.572210618e-05
2.570236324e-05
2.552212805e-05
2.523338082e-05
2.488191397e-05
2.450465404e-05
2.412747193e-05
2.376598053e-05
2.342571742e-05
2.310523143e-05
2.279842098e-05
2.249758286e-05
2.219587976e-05
2.188859434e-05
2.157419744e-05
2.125443948e-05
2.093363797e-05
2.061766602e-05
2.031286568e-05
2.00251561e-05
1.975953397e-05
1.951902619e-05
1.930613593e-05
1.912171013e-05
1.896573751e-05
1.88370768e-05
1.873264843e-05
1.864804695e-05
1.857900905e-05
1.85230377e-05
1.847919037e-05
1.844939867e-05
1.843646016e-05
1.844137074e-05
1.846298127e-05
1.849688744e-05
1.853768352e-05
1.858003579e-05
1.862055609e-05
1.865725661e-05
1.868923629e-05
1.871590238e-05
1.873651565e-05
1.875003369e-05
1.875535343e-05
1.875196289e-05
1.873881778e-05
1.871533691e-05
1.868089168e-05
1.863495964e-05
1.857698983e-05
1.850647518e-05
1.842289406e-05
1.832573275e-05
1.821451561e-05
1.808878845e-05
1.794822145e-05
1.77926953e-05
1.762192355e-05
1.74357029e-05
1.723379219e-05
1.701604937e-05
1.6782444e-05
1.653289584e-05
1.626711478e-05
1.598478915e-05
1.568582063e-05
1.537021242e-05
1.503778147e-05
1.468808133e-05
1.432144627e-05
1.393959375e-05
1.354494009e-05
1.313791948e-05
1.271557703e-05
1.227672206e-05
1.182142632e-05
1.135039141e-05
1.086481834e-05
1.036766749e-05
9.855331313e-06
9.324947844e-06
8.776554234e-06
8.31816052e-06
8.016320211e-06
8.064777093e-06
8.111991733e-06
8.148986389e-06
8.18710832e-06
)


101
(
1.326577632e-06
3.82394908e-06
7.22016267e-06
1.074669209e-05
1.40254475e-05
1.691174151e-05
1.93721482e-05
2.138362411e-05
2.296379692e-05
2.414111177e-05
2.495349143e-05
2.544610784e-05
2.566956917e-05
2.5675228e-05
2.551608061e-05
2.524241242e-05
2.489917755e-05
2.45234767e-05
2.414237432e-05
2.377316752e-05
2.342359233e-05
2.309410775e-05
2.278004031e-05
2.247449008e-05
2.217061868e-05
2.186313487e-05
2.154947448e-05
2.123018642e-05
2.090847168e-05
2.058941805e-05
2.027893619e-05
1.998286298e-05
1.97064094e-05
1.945295228e-05
1.922559418e-05
1.902565164e-05
1.885357911e-05
1.870892169e-05
1.858958318e-05
1.849205012e-05
1.841237429e-05
1.834735541e-05
1.829453142e-05
1.825435224e-05
1.822909488e-05
1.822055767e-05
1.822933913e-05
1.825280406e-05
1.828646933e-05
1.832479101e-05
1.836354179e-05
1.839982478e-05
1.84322181e-05
1.846006181e-05
1.848272789e-05
1.849930137e-05
1.850861848e-05
1.851019208e-05
1.850288357e-05
1.848610217e-05
1.845912619e-05
1.842146994e-05
1.837255562e-05
1.831185462e-05
1.823882851e-05
1.815298589e-05
1.805383587e-05
1.794083544e-05
1.781358442e-05
1.767183237e-05
1.751533572e-05
1.734390945e-05
1.715738151e-05
1.695555065e-05
1.673828412e-05
1.650541606e-05
1.625664417e-05
1.599169799e-05
1.571055822e-05
1.541312352e-05
1.509923565e-05
1.476844414e-05
1.442087323e-05
1.405737155e-05
1.368001919e-05
1.329050954e-05
1.288683115e-05
1.246683073e-05
1.20302312e-05
1.157790565e-05
1.111047281e-05
1.0630761e-05
1.013648511e-05
9.624398766e-06
9.093822641e-06
8.654790241e-06
8.373896282e-06
8.416750001e-06
8.458339299e-06
8.488841604e-06
8.520102075e-06
)


101
(
1.325780932e-06
3.790422192e-06
7.142580285e-06
1.063154104e-05
1.388305489e-05
1.675236846e-05
1.920507389e-05
2.121859127e-05
2.280941337e-05
2.400458187e-05
2.484006433e-05
2.535889012e-05
2.560932496e-05
2.56402368e-05
2.550244279e-05
2.524450308e-05
2.491039651e-05
2.453719768e-05
2.415293634e-05
2.377637e-05
2.3417351e-05
2.307820313e-05
2.275577603e-05
2.244415345e-05
2.213672661e-05
2.182786647e-05
2.151415853e-05
2.119505396e-05
2.087262977e-05
2.055109707e-05
2.023580533e-05
1.99323765e-05
1.964610981e-05
1.93806209e-05
1.913955676e-05
1.892469423e-05
1.873691606e-05
1.857629365e-05
1.844149983e-05
1.83299062e-05
1.823821735e-05
1.816315881e-05
1.810129031e-05
1.805161462e-05
1.801530189e-05
1.79940922e-05
1.798972882e-05
1.80013347e-05
1.802586445e-05
1.805824216e-05
1.809377258e-05
1.812864671e-05
1.816069329e-05
1.818896389e-05
1.821283426e-05
1.823152466e-05
1.824390495e-05
1.824948702e-05
1.824710978e-05
1.823612027e-05
1.82157197e-05
1.818542769e-05
1.814467435e-05
1.809286772e-05
1.802945761e-05
1.795400787e-05
1.786598321e-05
1.776486997e-05
1.765010788e-05
1.752138854e-05
1.737842365e-05
1.722101803e-05
1.704905608e-05
1.686236131e-05
1.666075892e-05
1.644398833e-05
1.621162196e-05
1.596345722e-05
1.569950078e-05
1.541965101e-05
1.512377888e-05
1.481135936e-05
1.448243298e-05
1.413738031e-05
1.377765193e-05
1.340537447e-05
1.301981294e-05
1.261860653e-05
1.220071601e-05
1.176695998e-05
1.131798915e-05
1.085580372e-05
1.037993119e-05
9.886281241e-06
9.373912029e-06
8.95377389e-06
8.692735041e-06
8.728806907e-06
8.763497028e-06
8.786117565e-06
8.80584111e-06
)


101
(
1.324984233e-06
3.756913423e-06
7.064979218e-06
1.051608943e-05
1.373989174e-05
1.659160894e-05
1.903587049e-05
2.105046155e-05
2.265086654e-05
2.386279015e-05
2.472036863e-05
2.526453764e-05
2.554136862e-05
2.559733406e-05
2.548110214e-05
2.523949114e-05
2.491539313e-05
2.454566965e-05
2.415910532e-05
2.377570408e-05
2.340729063e-05
2.305799541e-05
2.272624227e-05
2.240727012e-05
2.209490219e-05
2.17833953e-05
2.146869787e-05
2.114929922e-05
2.0826179e-05
2.050260019e-05
2.018322791e-05
1.987335558e-05
1.957827101e-05
1.930169364e-05
1.904773912e-05
1.881861749e-05
1.861562866e-05
1.843927865e-05
1.828882266e-05
1.816240341e-05
1.805748453e-05
1.797117478e-05
1.789963109e-05
1.784074387e-05
1.779438313e-05
1.776156281e-05
1.774440889e-05
1.774340671e-05
1.775716018e-05
1.778165124e-05
1.781224493e-05
1.784447e-05
1.787531368e-05
1.790326859e-05
1.792755581e-05
1.794748399e-05
1.796200635e-05
1.797065651e-05
1.797227592e-05
1.796616789e-05
1.795147738e-05
1.792765024e-05
1.789414364e-05
1.785031181e-05
1.779560765e-05
1.772961686e-05
1.765179773e-05
1.756163588e-05
1.745850719e-05
1.734204565e-05
1.721186394e-05
1.7067725e-05
1.690954658e-05
1.673716474e-05
1.655045652e-05
1.634915147e-05
1.61326616e-05
1.590071698e-05
1.565328756e-05
1.539043817e-05
1.511201091e-05
1.481743222e-05
1.450672553e-05
1.417993709e-05
1.383795623e-05
1.348289685e-05
1.311503807e-05
1.273235246e-05
1.23332407e-05
1.191803191e-05
1.148770703e-05
1.10432697e-05
1.058584151e-05
1.011092612e-05
9.6170242e-06
9.215591658e-06
8.97347906e-06
9.001167118e-06
9.027582362e-06
9.041794728e-06
9.058415843e-06
)


101
(
1.324187535e-06
3.723424143e-06
6.987362692e-06
1.040034461e-05
1.359597043e-05
1.642948208e-05
1.886456664e-05
2.087928085e-05
2.248820699e-05
2.371578653e-05
2.459444951e-05
2.516308815e-05
2.54656979e-05
2.554646181e-05
2.54519393e-05
2.522720035e-05
2.491396802e-05
2.454871952e-05
2.416079074e-05
2.377124039e-05
2.339364824e-05
2.303389833e-05
2.269199603e-05
2.236449951e-05
2.204583728e-05
2.173035346e-05
2.141359227e-05
2.109323819e-05
2.076923084e-05
2.04438529e-05
2.01209938e-05
1.98054988e-05
1.95025349e-05
1.921581228e-05
1.894981363e-05
1.870713424e-05
1.848948833e-05
1.829778155e-05
1.813172036e-05
1.799006036e-05
1.787100327e-05
1.777225318e-05
1.769004284e-05
1.762164864e-05
1.75657877e-05
1.752237449e-05
1.749320527e-05
1.747950696e-05
1.748139178e-05
1.749624006e-05
1.752005464e-05
1.754813512e-05
1.757673077e-05
1.76035741e-05
1.762753867e-05
1.76479067e-05
1.766367947e-05
1.76744703e-05
1.767915433e-05
1.76770153e-05
1.766712632e-05
1.764887709e-05
1.762169695e-05
1.758493084e-05
1.753805614e-05
1.748056804e-05
1.74120122e-05
1.733187751e-05
1.723950837e-05
1.713448078e-05
1.70162859e-05
1.688467429e-05
1.673950427e-05
1.65806383e-05
1.640800723e-05
1.622140517e-05
1.602023667e-05
1.58039302e-05
1.557250375e-05
1.532602215e-05
1.5064391e-05
1.478713177e-05
1.449421073e-05
1.418536948e-05
1.386117927e-05
1.352333594e-05
1.317288927e-05
1.280838828e-05
1.242805033e-05
1.20314512e-05
1.161975781e-05
1.119347857e-05
1.075439498e-05
1.029851881e-05
9.823415484e-06
9.440327538e-06
9.215723657e-06
9.234239686e-06
9.25153829e-06
9.256468095e-06
9.262142541e-06
)


101
(
1.323390836e-06
3.689955628e-06
6.909733254e-06
1.028431353e-05
1.345130275e-05
1.62660062e-05
1.869118997e-05
2.070509408e-05
2.232148784e-05
2.356362303e-05
2.446234987e-05
2.505457813e-05
2.538231262e-05
2.548756408e-05
2.541483534e-05
2.520744967e-05
2.490590379e-05
2.454613665e-05
2.415783997e-05
2.376296821e-05
2.337657125e-05
2.300623678e-05
2.265353237e-05
2.231646299e-05
2.199022767e-05
2.166942773e-05
2.134942014e-05
2.10272668e-05
2.070196457e-05
2.037482816e-05
2.004892129e-05
1.972852395e-05
1.941854934e-05
1.91226012e-05
1.884542192e-05
1.858991929e-05
1.835820926e-05
1.815159684e-05
1.797017451e-05
1.781316739e-05
1.767939548e-05
1.756720845e-05
1.747323806e-05
1.739461107e-05
1.73292549e-05
1.727595264e-05
1.723568213e-05
1.720973195e-05
1.719925907e-05
1.720309903e-05
1.721835746e-05
1.724061962e-05
1.726568321e-05
1.729050154e-05
1.731338197e-05
1.733342148e-05
1.734961257e-05
1.73616627e-05
1.736847831e-05
1.736937661e-05
1.736337944e-05
1.734982221e-05
1.732806048e-05
1.72974637e-05
1.725750156e-05
1.720761365e-05
1.714740832e-05
1.707635538e-05
1.699382752e-05
1.689932075e-05
1.679229238e-05
1.667244809e-05
1.653953837e-05
1.63934307e-05
1.623408842e-05
1.606135956e-05
1.58747154e-05
1.567352743e-05
1.545758529e-05
1.522688057e-05
1.498140367e-05
1.472092367e-05
1.44452439e-05
1.415398798e-05
1.384744674e-05
1.352688038e-05
1.319370439e-05
1.284705517e-05
1.24853825e-05
1.210745803e-05
1.17143004e-05
1.130659028e-05
1.08859111e-05
1.044918308e-05
9.993348425e-06
9.628268422e-06
9.420040902e-06
9.428630706e-06
9.436066087e-06
9.430830786e-06
9.425478164e-06
)


101
(
1.322594137e-06
3.656509358e-06
6.832094699e-06
1.016800374e-05
1.330590125e-05
1.610120029e-05
1.85157686e-05
2.052794639e-05
2.215076785e-05