/*--------------------------------*- C++ -*----------------------------------*\
| =========                 |                                                 |
| \\      /  F ield         | OpenFOAM: The Open Source CFD Toolbox           |
|  \\    /   O peration     | Version:  2.3.1                                 |
|   \\  /    A nd           | Web:      www.OpenFOAM.org                      |
|    \\/     M anipulation  |                                                 |
\*---------------------------------------------------------------------------*/
FoamFile
{
    version     2.0;
    format      ascii;
    class       dictionary;
    location    "constant";
    object      HCO;
}
// * * * * * * * * * * * * * * * * * * * * * * * * * * * * * * * * * * * * * //

HCO_table
101
(

101
(
4.75992889e-12
6.221425815e-10
2.514332535e-09
5.374853645e-09
8.983333179e-09
1.324898133e-08
1.812838775e-08
2.368522394e-08
2.995752599e-08
3.702894936e-08
4.497767044e-08
5.393349197e-08
6.395481982e-08
7.508503465e-08
8.706660155e-08
9.939299614e-08
1.11286592e-07
1.21673908e-07
1.298846384e-07
1.347243125e-07
1.362928845e-07
1.346480807e-07
1.298578677e-07
1.227547303e-07
1.140893768e-07
1.045115858e-07
9.458656198e-08
8.475922261e-08
7.535675543e-08
6.657795718e-08
5.853863002e-08
5.125851201e-08
4.465562007e-08
3.895180083e-08
3.388692558e-08
2.944555591e-08
2.608434405e-08
2.355531572e-08
2.040989537e-08
1.770445654e-08
1.536746647e-08
1.329906996e-08
1.151418391e-08
9.960465079e-09
8.593486052e-09
7.411610602e-09
6.377043664e-09
5.484249643e-09
4.705114473e-09
4.032335768e-09
3.446559749e-09
2.939324195e-09
2.500759374e-09
2.121966816e-09
1.793799918e-09
1.509916607e-09
1.27043768e-09
1.061592683e-09
8.854457101e-10
7.341715275e-10
6.06419687e-10
4.982149279e-10
4.066930729e-10
3.303793261e-10
2.666795086e-10
2.135059557e-10
1.695851162e-10
1.336109022e-10
1.045028189e-10
8.087061376e-11
6.202725483e-11
4.703237291e-11
3.535421384e-11
2.623923203e-11
2.02709757e-11
1.533515658e-11
1.090318762e-11
7.66577006e-12
5.295102727e-12
3.571812333e-12
2.350784101e-12
1.536339534e-12
9.747671587e-13
6.804224259e-13
4.459141553e-13
2.654702498e-13
1.537462554e-13
8.630637099e-14
4.697742595e-14
3.064409497e-14
1.545375081e-14
6.964072361e-15
3.144419839e-15
1.326675666e-15
5.062848558e-16
1.173892541e-16
-4.639513064e-23
1.131878401e-41
3.775605033e-33
-3.594029252e-33
0
)


101
(
4.740766186e-12
6.101082889e-10
2.468589186e-09
5.280105377e-09
8.825700574e-09
1.301265542e-08
1.779620776e-08
2.323223406e-08
2.935764241e-08
3.624868137e-08
4.397993945e-08
5.267260874e-08
6.239437484e-08
7.319846914e-08
8.488563294e-08
9.701065462e-08
1.088743837e-07
1.194981554e-07
1.281514089e-07
1.33787891e-07
1.362312067e-07
1.354896346e-07
1.316661964e-07
1.253841923e-07
1.173467512e-07
1.082026285e-07
9.852488373e-08
8.878182307e-08
7.933634128e-08
7.042291174e-08
6.218590558e-08
5.467390366e-08
4.783766406e-08
4.181558287e-08
3.647915595e-08
3.177997422e-08
2.798876694e-08
2.507411019e-08
2.214091431e-08
1.93361883e-08
1.683113884e-08
1.461290549e-08
1.267741456e-08
1.099348941e-08
9.519800585e-09
8.236586464e-09
7.115757643e-09
6.140323362e-09
5.289926342e-09
4.550565706e-09
3.907114111e-09
3.347671758e-09
2.861886325e-09
2.440097187e-09
2.074218447e-09
1.75732723e-09
1.485563609e-09
1.251322559e-09
1.05058854e-09
8.785919692e-10
7.317327084e-10
6.067207363e-10
5.004320883e-10
4.105365761e-10
3.349425945e-10
2.716952118e-10
2.188898914e-10
1.750652382e-10
1.389410463e-10
1.09390371e-10
8.541064279e-11
6.606873047e-11
5.05891258e-11
3.824302686e-11
2.894607541e-11
2.194180169e-11
1.633021013e-11
1.190783856e-11
8.523812765e-12
5.985632813e-12
4.124812211e-12
2.790800844e-12
1.849394601e-12
1.221281978e-12
8.054951101e-13
5.206098799e-13
3.269239702e-13
1.980547087e-13
1.166890763e-13
6.824419827e-14
3.906054008e-14
2.165518667e-14
1.128188636e-14
5.542009066e-15
2.669407976e-15
1.073502802e-15
2.01154166e-16
2.938556981e-16
5.085467886e-16
1.119985314e-15
2.47375205e-15
)


101
(
4.721603482e-12
5.981766148e-10
2.423232388e-09
5.186232738e-09
8.669750874e-09
1.277929739e-08
1.74688524e-08
2.278692654e-08
2.876914888e-08
3.548481175e-08
4.300461451e-08
5.144101257e-08
6.086805061e-08
7.134670519e-08
8.272826893e-08
9.462657174e-08
1.064164203e-07
1.172098277e-07
1.262522882e-07
1.325940491e-07
1.35888136e-07
1.36054581e-07
1.331880927e-07
1.277706754e-07
1.204329601e-07
1.118048105e-07
1.024602627e-07
9.288399114e-08
8.346652786e-08
7.447635796e-08
6.608890748e-08
5.838334904e-08
5.133979715e-08
4.505227668e-08
3.944312855e-08
3.447334231e-08
3.031441892e-08
2.698188164e-08
2.398689766e-08
2.114908131e-08
1.853138739e-08
1.617208157e-08
1.40902191e-08
1.226860135e-08
1.067416868e-08
9.282420364e-09
8.065144685e-09
7.00067163e-09
6.06924852e-09
5.255129959e-09
4.543664561e-09
3.92237676e-09
3.380421108e-09
2.907594902e-09
2.494972537e-09
2.135301801e-09
1.823193496e-09
1.552710299e-09
1.318957768e-09
1.117015896e-09
9.430257989e-10
7.933046667e-10
6.646133917e-10
5.544519989e-10
4.605438541e-10
3.807938857e-10
3.131453268e-10
2.56010383e-10
2.080245413e-10
1.678535278e-10
1.345115348e-10
1.069443256e-10
8.440172507e-11
6.593336831e-11
5.104982524e-11
3.9284992e-11
2.999803455e-11
2.267543108e-11
1.693501903e-11
1.246518822e-11
9.042282393e-12
6.456351641e-12
4.534912454e-12
3.130693455e-12
2.129201438e-12
1.428023805e-12
9.540659988e-13
6.266873714e-13
4.005710097e-13
2.521502303e-13
1.550095661e-13
9.316047314e-14
5.650048396e-14
3.266510178e-14
1.884468857e-14
9.926874147e-15
3.295528555e-15
5.719169782e-15
1.006623073e-14
2.010665967e-14
3.702808202e-14
)


101
(
4.702440778e-12
5.86347673e-10
2.378262269e-09
5.093239459e-09
8.515505013e-09
1.254897886e-08
1.714651479e-08
2.234973073e-08
2.819294431e-08
3.473905651e-08
4.205487667e-08
5.024432622e-08
5.938561137e-08
6.954586852e-08
8.062023753e-08
9.227900654e-08
1.039671868e-07
1.148834147e-07
1.242759664e-07
1.312611424e-07
1.353872899e-07
1.364780982e-07
1.345872877e-07
1.300886572e-07
1.235326482e-07
1.155148509e-07
1.066006092e-07
9.728341873e-08
8.797508187e-08
7.897368342e-08
7.04857967e-08
6.262350799e-08
5.539620014e-08
4.888387214e-08
4.302221749e-08
3.776160928e-08
3.328270115e-08
2.955180761e-08
2.633154053e-08
2.339860802e-08
2.068070134e-08
1.819032797e-08
1.595933892e-08
1.398525104e-08
1.224766513e-08
1.072588629e-08
9.390679488e-09
8.218464976e-09
7.186670101e-09
6.279164474e-09
5.480227695e-09
4.777855561e-09
4.160977651e-09
3.619018821e-09
3.142523511e-09
2.723937784e-09
2.356227384e-09
2.033907106e-09
1.752341847e-09
1.506183497e-09
1.291657841e-09
1.104776939e-09
9.420347076e-10
8.006606689e-10
6.781142611e-10
5.720976271e-10
4.806110528e-10
4.017722442e-10
3.343546454e-10
2.767174649e-10
2.276485957e-10
1.860296129e-10
1.510868778e-10
1.217717806e-10
9.729767553e-11
7.708823065e-11
6.056673407e-11
4.718174134e-11
3.643312467e-11
2.78618441e-11
2.108067313e-11
1.57383876e-11
1.159108508e-11
8.406453216e-12
5.997750385e-12
4.209250584e-12
2.915817615e-12
2.013845967e-12
1.367136761e-12
9.052295894e-13
5.887940729e-13
3.784789407e-13
2.453031509e-13
1.544301773e-13
9.668331181e-14
5.61658668e-14
2.18040332e-14
4.331576064e-14
7.817714698e-14
1.538550974e-13
2.94540662e-13
)


101
(
4.683278074e-12
5.746215948e-10
2.333678787e-09
5.001128032e-09
8.362978723e-09
1.232175442e-08
1.682934215e-08
2.192096697e-08
2.762968868e-08
3.401264429e-08
4.11329693e-08
4.908646074e-08
5.795384786e-08
6.780716177e-08
7.85794992e-08
8.999468515e-08
1.015645088e-07
1.125702943e-07
1.222825655e-07
1.298670206e-07
1.348088043e-07
1.368420574e-07
1.359590001e-07
1.324389694e-07
1.267505333e-07
1.19442854e-07
1.110621854e-07
1.021031246e-07
9.299255236e-08
8.405307568e-08
7.551935706e-08
6.753843759e-08
6.014906044e-08
5.344064235e-08
4.73538788e-08
4.185715974e-08
3.703689527e-08
3.292537368e-08
2.940239338e-08
2.627891353e-08
2.342444319e-08
2.079498756e-08
1.840846274e-08
1.626775294e-08
1.436363472e-08
1.268445306e-08
1.120338349e-08
9.896924269e-09
8.739840528e-09
7.715139958e-09
6.805361248e-09
5.998452181e-09
5.283593807e-09
4.650553262e-09
4.089084046e-09
3.590631546e-09
3.148830131e-09
2.75648391e-09
2.409524097e-09
2.101881309e-09
1.830303981e-09
1.590786522e-09
1.379416982e-09
1.193302904e-09
1.029471223e-09
8.850120925e-10
7.580948379e-10
6.468650285e-10
5.498864238e-10
4.654894781e-10
3.918822849e-10
3.280599666e-10
2.731005857e-10
2.260048681e-10
1.857147421e-10
1.51430921e-10
1.224106489e-10
9.81873336e-11
7.810315106e-11
6.160434405e-11
4.818722513e-11
3.728039522e-11
2.851475067e-11
2.153431313e-11
1.602478953e-11
1.174246459e-11
8.467019928e-12
6.048096706e-12
4.300184686e-12
2.999227897e-12
2.045677225e-12
1.371580974e-12
9.127649662e-13
6.083298899e-13
4.020084018e-13
2.492511933e-13
1.154568707e-13
2.388495006e-13
4.237574798e-13
8.056596486e-13
1.315095202e-12
)


101
(
4.664115367e-12
5.629984943e-10
2.289481743e-09
4.909899792e-09
8.212182918e-09
1.209766335e-08
1.651744125e-08
2.150086388e-08
2.707984613e-08
3.330641494e-08
4.024040283e-08
4.797002971e-08
5.657731765e-08
6.61381828e-08
7.661842917e-08
8.779217961e-08
9.923474588e-08
1.103062085e-07
1.203132805e-07
1.284633073e-07
1.342049053e-07
1.371957224e-07
1.373565633e-07
1.348767956e-07
1.30142333e-07
1.236469947e-07
1.15907628e-07
1.074115976e-07
9.859465632e-08
8.979884393e-08
8.128535644e-08
7.322840277e-08
6.570193724e-08
5.881873444e-08
5.252271162e-08
4.679619004e-08
4.16746768e-08
3.720014173e-08
3.333356595e-08
2.994605371e-08
2.689656961e-08
2.409835233e-08
2.15409825e-08
1.921901589e-08
1.712699627e-08
1.526265637e-08
1.360554618e-08
1.213600356e-08
1.082704761e-08
9.659370074e-09
8.613404389e-09
7.67644713e-09
6.838083245e-09
6.089080244e-09
5.419243577e-09
4.818521049e-09
4.280441756e-09
3.79707798e-09
3.364898825e-09
2.976498159e-09
2.628551125e-09
2.318180233e-09
2.040516419e-09
1.792969523e-09
1.572370196e-09
1.374958637e-09
1.198478854e-09
1.041072137e-09
9.011865314e-10
7.778984213e-10
6.683757127e-10
5.714416935e-10
4.859849849e-10
4.111964898e-10
3.459055016e-10
2.891350846e-10
2.399667255e-10
1.976728953e-10
1.614506351e-10
1.308633607e-10
1.052709515e-10
8.403651028e-11
6.63519326e-11
5.185885527e-11
4.001883028e-11
3.048505806e-11
2.283728484e-11
1.689854452e-11
1.240142943e-11
9.028607058e-12
6.42497641e-12
4.506868629e-12
3.126137197e-12
2.142054296e-12
1.475491057e-12
9.615501473e-13
5.008207856e-13
9.894051242e-13
1.74688916e-12
3.722354304e-12
6.406864338e-12
)


101
(
4.644952666e-12
5.514785064e-10
2.245670836e-09
4.819555079e-09
8.063124223e-09
1.18767314e-08
1.621088347e-08
2.108956966e-08
2.654371267e-08
3.262087933e-08
3.937807754e-08
4.689658088e-08
5.525877791e-08
6.454365945e-08
7.474502479e-08
8.56837782e-08
9.699556255e-08
1.081152631e-07
1.183954726e-07
1.270829901e-07
1.336078043e-07
1.375658711e-07
1.388049962e-07
1.374258074e-07
1.337301734e-07
1.281499676e-07
1.211633023e-07
1.132411122e-07
1.048212671e-07
9.626005412e-08
8.784158886e-08
7.976561735e-08
7.213725993e-08
6.51026809e-08
5.861534696e-08
5.266965473e-08
4.727456577e-08
4.24623589e-08
3.824006629e-08
3.45383042e-08
3.123563014e-08
2.822490164e-08
2.547047959e-08
2.294915678e-08
2.064987441e-08
1.857568588e-08
1.671315579e-08
1.505029447e-08
1.356081194e-08
1.222309634e-08
1.101553126e-08
9.922898005e-09
8.934880299e-09
8.043405523e-09
7.239864122e-09
6.512533857e-09
5.854283658e-09
5.256620448e-09
4.716008856e-09
4.224806456e-09
3.779652415e-09
3.37754866e-09
3.013481936e-09
2.684425459e-09
2.387869021e-09
2.119623218e-09
1.876367958e-09
1.656009662e-09
1.456811542e-09
1.278112001e-09
1.117675795e-09
9.735580892e-10
8.441306278e-10
7.284217705e-10
6.253780124e-10
5.34054797e-10
4.535830939e-10
3.826641772e-10
3.203374768e-10
2.66207031e-10
2.196472412e-10
1.801463943e-10
1.463750701e-10
1.178518393e-10
9.396635923e-11
7.405418087e-11
5.752805075e-11
4.407606342e-11
3.345442991e-11
2.524226388e-11
1.868348695e-11
1.358345549e-11
9.81889377e-12
6.990087804e-12
4.987796667e-12
3.329122097e-12
1.864489176e-12
4.086696991e-12
7.364800464e-12
1.559659129e-11
2.544581469e-11
)


101
(
4.625789959e-12
5.400617749e-10
2.20224559e-09
4.73009316e-09
7.915805603e-09
1.165897429e-08
1.590971564e-08
2.068717611e-08
2.602145122e-08
3.195628652e-08
3.854642053e-08
4.586683855e-08
5.399962652e-08
6.302615844e-08
7.296404509e-08
8.367719924e-08
9.485832298e-08
1.06013229e-07
1.165468155e-07
1.257463527e-07
1.330360225e-07
1.379644919e-07
1.403104672e-07
1.400875861e-07
1.375117873e-07
1.329479029e-07
1.268275856e-07
1.19596145e-07
1.116857411e-07
1.034611148e-07
9.522527027e-08
8.720118644e-08
7.952106265e-08
7.236826493e-08
6.571342675e-08
5.956615264e-08
5.392263404e-08
4.880111836e-08
4.423110297e-08
4.018883767e-08
3.658610576e-08
3.331609865e-08
3.033089906e-08
2.758759134e-08
2.506262169e-08
2.275844501e-08
2.066504219e-08
1.877897665e-08
1.707877854e-08
1.55427648e-08
1.414701115e-08
1.28727559e-08
1.170950145e-08
1.064936023e-08
9.684853934e-09
8.804833853e-09
8.001929868e-09
7.265279414e-09
6.591822584e-09
5.97306319e-09
5.406000258e-09
4.888084857e-09
4.414183147e-09
3.9812394e-09
3.586431492e-09
3.225926507e-09
2.895234383e-09
2.592211115e-09
2.314170873e-09
2.060627819e-09
1.830200861e-09
1.620333191e-09
1.429265156e-09
1.255428189e-09
1.097885691e-09
9.555608931e-10
8.28106184e-10
7.138778736e-10
6.115385247e-10
5.202762019e-10
4.39516069e-10
3.691702198e-10
3.080361649e-10
2.547600585e-10
2.09104308e-10
1.700002893e-10
1.365625939e-10
1.0822333e-10
8.499959863e-11
6.623600496e-11
5.102206174e-11
3.845579825e-11
2.882838057e-11
2.13613656e-11
1.569957401e-11
1.099766984e-11
6.630184272e-12
1.511422031e-11
2.730843297e-11
5.741262948e-11
9.270306021e-11
)


101
(
4.606627258e-12
5.287484513e-10
2.159205489e-09
4.641512526e-09
7.77022677e-09
1.144439878e-08
1.561396483e-08
2.029373364e-08
2.551311949e-08
3.131268091e-08
3.774548859e-08
4.488091377e-08
5.280024796e-08
6.158667008e-08
7.12778618e-08
8.177684147e-08
9.28299312e-08
1.040100193e-07
1.147782628e-07
1.244651177e-07
1.324989174e-07
1.383941532e-07
1.418675621e-07
1.428500659e-07
1.414700781e-07
1.380209693e-07
1.32881822e-07
1.264638207e-07
1.191847172e-07
1.114108806e-07
1.034595617e-07
9.557437131e-08
8.79107238e-08
8.068833843e-08
7.390044014e-08
6.75767127e-08
6.171130557e-08
5.631130651e-08
5.141535549e-08
4.702847341e-08
4.309737841e-08
3.953079829e-08
3.627956928e-08
3.328730821e-08
3.051676194e-08
2.796505292e-08
2.56207198e-08
2.348675832e-08
2.154863309e-08
1.978657331e-08
1.817460702e-08
1.669323295e-08
1.532982734e-08
1.407390809e-08
1.292148561e-08
1.186255502e-08
1.0888203e-08
9.986508288e-09
9.155010674e-09
8.383649324e-09
7.669301194e-09
7.009747402e-09
6.399153013e-09
5.836188578e-09
5.317728544e-09
4.840623543e-09
4.399519685e-09
3.990576167e-09
3.61062335e-09
3.258024452e-09
2.933699411e-09
2.634716964e-09
2.360472257e-09
2.107596716e-09
1.874170859e-09
1.659678051e-09
1.464217317e-09
1.286408755e-09
1.12460099e-09
9.771939132e-10
8.439781713e-10
7.246734043e-10
6.193073413e-10
5.250838333e-10
4.423760301e-10
3.693991491e-10
3.06089163e-10
2.502622346e-10
2.029970496e-10
1.633062466e-10
1.300276883e-10
1.016211683e-10
7.910140333e-11
6.098229644e-11
4.643822209e-11
3.42869364e-11
2.20295622e-11
4.969027205e-11
8.869438767e-11
1.817502684e-10
2.997481203e-10
)


101
(
4.587464543e-12
5.175386832e-10
2.116549857e-09
4.553810915e-09
7.626384168e-09
1.123300146e-08
1.532363399e-08
1.990924567e-08
2.501868009e-08
3.068992778e-08
3.697502227e-08
4.393839519e-08
5.166018403e-08
6.022489317e-08
6.968694202e-08
7.998450493e-08
9.091391324e-08
1.021112779e-07
1.130960579e-07
1.232452846e-07
1.319998186e-07
1.388517662e-07
1.434642408e-07
1.456931525e-07
1.455792401e-07
1.433404974e-07
1.392975892e-07
1.338198795e-07
1.273020923e-07
1.20104616e-07
1.12553258e-07
1.049093293e-07
9.734879093e-08
9.012435129e-08
8.325198622e-08
7.678865223e-08
7.073673157e-08
6.509684237e-08
5.990987935e-08
5.519507074e-08
5.092696493e-08
4.703725056e-08
4.34902224e-08
4.022345782e-08
3.718852547e-08
3.437493802e-08
3.17650624e-08
2.936559153e-08
2.716616525e-08
2.515224571e-08
2.329929924e-08
2.158797557e-08
2.000159272e-08
1.852729042e-08
1.716154279e-08
1.589539913e-08
1.472356097e-08
1.362899932e-08
1.261321212e-08
1.166384324e-08
1.077563139e-08
9.948004316e-09
9.17367613e-09
8.452521461e-09
7.78175578e-09
7.158825374e-09
6.579425082e-09
6.037364554e-09
5.52897989e-09
5.051677141e-09
4.606573949e-09
4.191500569e-09
3.805515093e-09
3.446433612e-09
3.111307318e-09
2.798855857e-09
2.508597816e-09
2.240800129e-09
1.994459138e-09
1.765925443e-09
1.554770963e-09
1.362380101e-09
1.188563633e-09
1.031162289e-09
8.885425273e-10
7.598802185e-10
6.466047888e-10
5.439329828e-10
4.540115876e-10
3.76189189e-10
3.086160084e-10
2.498977604e-10
2.01092255e-10
1.606625121e-10
1.265893036e-10
9.728860654e-11
6.771827209e-11
1.459633124e-10
2.54490064e-10
4.969749471e-10
8.345169022e-10
)


101
(
4.568301843e-12
5.064326758e-10
2.074278081e-09
4.466985889e-09
7.484272923e-09
1.102477272e-08
1.50387061e-08
1.95336706e-08
2.453803088e-08
3.008778661e-08
3.623454809e-08
4.30384812e-08
5.057832107e-08
5.893950821e-08
6.819024509e-08
7.829994653e-08
8.911115761e-08
1.003193644e-07
1.115028611e-07
1.220886113e-07
1.31537507e-07
1.393302484e-07
1.450856708e-07
1.485929169e-07
1.498085887e-07
1.488720272e-07
1.460396609e-07
1.416319841e-07
1.36012609e-07
1.295283858e-07
1.225066151e-07
1.152214055e-07
1.078672036e-07
1.007286683e-07
9.38406794e-08
8.729116564e-08
8.110050257e-08
7.526930961e-08
6.983658447e-08
6.482783795e-08
6.02366964e-08
5.601692278e-08
5.21572049e-08
4.85975404e-08
4.528394023e-08
4.219941903e-08
3.931557399e-08
3.66385463e-08
3.416036146e-08
3.187459415e-08
2.975970439e-08
2.779807523e-08
2.596973806e-08
2.425823682e-08
2.26551079e-08
2.11581496e-08
1.976445685e-08
1.845280159e-08
1.722713141e-08
1.607449768e-08
1.498664289e-08
1.396294666e-08
1.299790411e-08
1.208951528e-08
1.123535494e-08
1.043370593e-08
9.68510054e-09
8.980022913e-09
8.3148279e-09
7.683326678e-09
7.086672101e-09
6.523342311e-09
5.994422272e-09
5.497611845e-09
5.029587168e-09
4.586978638e-09
4.169796764e-09
3.779809882e-09
3.416033455e-09
3.074716249e-09
2.753865193e-09
2.456419982e-09
2.182108494e-09
1.930676615e-09
1.697822472e-09
1.482057111e-09
1.288812907e-09
1.111409251e-09
9.510462627e-10
8.09468807e-10
6.818055521e-10
5.689967492e-10
4.719478387e-10
3.891502672e-10
3.172574975e-10
2.526014775e-10
1.863361268e-10
3.852544295e-10
6.554863764e-10
1.203129709e-09
1.877013777e-09
)


101
(
4.549139193e-12
4.954306082e-10
2.032389385e-09
4.38103413e-09
7.343885179e-09
1.081969475e-08
1.47591452e-08
1.91669294e-08
2.407100455e-08
2.950591674e-08
3.552340851e-08
4.21800692e-08
4.955305445e-08
5.772844381e-08
6.678563565e-08
7.672147034e-08
8.742072015e-08
9.863439745e-08
1.099991053e-07
1.209946253e-07
1.311085525e-07
1.398205369e-07
1.467153198e-07
1.515230567e-07
1.541237779e-07
1.545758764e-07
1.530655672e-07
1.498587333e-07
1.452808817e-07
1.396575969e-07
1.333100173e-07
1.265186248e-07
1.194927597e-07
1.125493366e-07
1.057375612e-07
9.917590414e-08
9.290924817e-08
8.694626051e-08
8.132567213e-08
7.607476061e-08
7.119807005e-08
6.666579407e-08
6.249476436e-08
5.863729619e-08
5.50399289e-08
5.168231039e-08
4.852353843e-08
4.556575606e-08
4.28016725e-08
4.023273759e-08
3.784105026e-08
3.561265793e-08
3.352727058e-08
3.156332465e-08
2.970733429e-08
2.796477509e-08
2.632704729e-08
2.477652022e-08
2.331582452e-08
2.193699013e-08
2.062688708e-08
1.938256173e-08
1.819961425e-08
1.707520618e-08
1.600914919e-08
1.499801504e-08
1.404405171e-08
1.314314406e-08
1.228868777e-08
1.147168105e-08
1.069182617e-08
9.946504582e-09
9.238596735e-09
8.56706394e-09
7.929171872e-09
7.319859324e-09
6.739079852e-09
6.189463919e-09
5.667838337e-09
5.174284951e-09
4.705260873e-09
4.262314306e-09
3.847424244e-09
3.461808567e-09
3.098665434e-09
2.754504499e-09
2.439656281e-09
2.149289021e-09
1.880686222e-09
1.635897984e-09
1.410813701e-09
1.208688415e-09
1.028944135e-09
8.715926526e-10
7.325041167e-10
6.039573963e-10
4.718044878e-10
9.154359988e-10
1.514937232e-09
2.646894757e-09
4.065859577e-09
)


101
(
4.529976668e-12
4.845326901e-10
1.990883019e-09
4.295951869e-09
7.205210777e-09
1.061774254e-08
1.448489711e-08
1.880890933e-08
2.361738735e-08
2.89438966e-08
3.484079766e-08
4.136183127e-08
4.8582427e-08
5.658908982e-08
6.54701786e-08
7.524630899e-08
8.584043199e-08
9.705509642e-08
1.085839576e-07
1.199617764e-07
1.307082975e-07
1.403120265e-07
1.483339489e-07
1.544532816e-07
1.584821129e-07
1.603998228e-07
1.60319166e-07
1.584452807e-07
1.550584967e-07
1.504549889e-07
1.449419636e-07
1.387997103e-07
1.322472892e-07
1.256310282e-07
1.190116597e-07
1.12535733e-07
1.062753017e-07
1.002542922e-07
9.451725686e-08
8.909539253e-08
8.399444079e-08
7.919359973e-08
7.473580545e-08
7.059265037e-08
6.671806153e-08
6.309450263e-08
5.967156354e-08
5.64443326e-08
5.340118178e-08
5.055075064e-08
4.787828445e-08
4.537598799e-08
4.302589053e-08
4.080276083e-08
3.868917666e-08
3.668886408e-08
3.479555542e-08
3.298870049e-08
3.127575333e-08
2.965038318e-08
2.809931919e-08
2.66146911e-08
2.519274158e-08
2.382847367e-08
2.252204478e-08
2.127528605e-08
2.008529137e-08
1.895352596e-08
1.787651631e-08
1.68400754e-08
1.584445282e-08
1.488388254e-08
1.395885592e-08
1.30721972e-08
1.222306738e-08
1.140734441e-08
1.062166156e-08
9.86816147e-09
9.14588932e-09
8.453178906e-09
7.787371225e-09
7.150652489e-09
6.545503794e-09
5.973670618e-09
5.431250106e-09
4.908361894e-09
4.416022145e-09
3.958883745e-09
3.530384609e-09
3.129910698e-09
2.754518246e-09
2.413195221e-09
2.102043706e-09
1.821404763e-09
1.570218715e-09
1.334360207e-09
1.093350234e-09
2.00682932e-09
3.225739946e-09
5.354380629e-09
7.912572713e-09
)


101
(
4.510814144e-12
4.737391614e-10
1.94975821e-09
4.21173478e-09
7.06823739e-09
1.041888461e-08
1.42158888e-08
1.845946172e-08
2.317694002e-08
2.840127306e-08
3.418578892e-08
4.058226468e-08
4.766420891e-08
5.551837106e-08
6.424023319e-08
7.38707734e-08
8.436723209e-08
9.557954242e-08
1.072562516e-07
1.189884602e-07
1.303319058e-07
1.40793329e-07
1.499207222e-07
1.573522e-07
1.628406723e-07
1.662904016e-07
1.677403125e-07
1.673301303e-07
1.652883487e-07
1.618730391e-07
1.573692849e-07
1.520508167e-07
1.461408718e-07
1.400092583e-07
1.337243354e-07
1.274577988e-07
1.213093346e-07
1.153242177e-07
1.095606237e-07
1.040582726e-07
9.881875528e-08
9.382170264e-08
8.913052092e-08
8.473758435e-08
8.061040915e-08
7.674207036e-08
7.307862314e-08
6.960840879e-08
6.631152704e-08
6.320087315e-08
6.025903938e-08
5.748826238e-08
5.487962299e-08
5.240258812e-08
5.003557938e-08
4.777710062e-08
4.563113255e-08
4.356452229e-08
4.159422546e-08
3.97115382e-08
3.791032206e-08
3.617303816e-08
3.449711871e-08
3.287773537e-08
3.131601464e-08
2.981046958e-08
2.835870231e-08
2.696772399e-08
2.563270736e-08
2.434685568e-08
2.310398997e-08
2.189768062e-08
2.072096873e-08
1.957941244e-08
1.847466948e-08
1.740533169e-08
1.63698992e-08
1.536912046e-08
1.439499194e-08
1.345163073e-08
1.253339184e-08
1.164648389e-08
1.079037396e-08
9.968951937e-09
9.184446874e-09
8.420840173e-09
7.682024349e-09
6.987099307e-09
6.329034229e-09
5.705729673e-09
5.108129082e-09
4.557955487e-09
4.045558915e-09
3.576195133e-09
3.147129969e-09
2.743063202e-09
2.335421717e-09
4.067452519e-09
6.347909896e-09
1.005328143e-08
1.452492101e-08
)


101
(
4.491651606e-12
4.630502653e-10
1.909014127e-09
4.128377971e-09
6.932950367e-09
1.022308377e-08
1.395203456e-08
1.811841116e-08
2.274938278e-08
2.787755239e-08
3.3557382e-08
3.983975475e-08
4.67960145e-08
5.451297368e-08
6.30917769e-08
7.259061085e-08
8.299734744e-08
9.420511465e-08
1.060143336e-07
1.180733641e-07
1.29975747e-07
1.412551739e-07
1.514573107e-07
1.601906158e-07
1.671585009e-07
1.721954615e-07
1.752678526e-07
1.764466373e-07
1.759031112e-07
1.738504553e-07
1.705436823e-07
1.662414655e-07
1.611640908e-07
1.556995679e-07
1.49919185e-07
1.440157138e-07
1.381147504e-07
1.322864258e-07
1.26610084e-07
1.211386633e-07
1.158709133e-07
1.107809156e-07
1.059443353e-07
1.013689298e-07
9.703969517e-08
9.296909874e-08
8.910629983e-08
8.543621617e-08
8.193072521e-08
7.860034741e-08
7.542324999e-08
7.241212179e-08
6.957008929e-08
6.686184267e-08
6.426525952e-08
6.177313261e-08
5.939265059e-08
5.708485832e-08
5.486426103e-08
5.272993816e-08
5.06829735e-08
4.869756895e-08
4.676507322e-08
4.488898649e-08
4.306948107e-08
4.129469009e-08
3.957153296e-08
3.789834015e-08
3.628664659e-08
3.472498108e-08
3.320660451e-08
3.172695574e-08
3.027140355e-08
2.884321587e-08
2.744288745e-08
2.60714865e-08
2.473894484e-08
2.3439089e-08
2.216296524e-08
2.091391121e-08
1.967893963e-08
1.847293692e-08
1.729756984e-08
1.615232928e-08
1.504191947e-08
1.395837475e-08
1.289409843e-08
1.186844655e-08
1.089020253e-08
9.956762923e-09
9.040969747e-09
8.191877711e-09
7.378127607e-09
6.629101093e-09
5.933407258e-09
5.278855005e-09
4.61920853e-09
7.661118268e-09
1.160973946e-08
1.766576611e-08
2.533658956e-08
)


101
(
4.472489067e-12
4.524662876e-10
1.868649976e-09
4.045876234e-09
6.799333073e-09
1.003029687e-08
1.369323798e-08
1.778555922e-08
2.23344032e-08
2.737221039e-08
3.295458493e-08
3.913258695e-08
4.597535098e-08
5.356948917e-08
6.202065658e-08
7.140135462e-08
8.172646429e-08
9.29282749e-08
1.048553792e-07
1.172128628e-07
1.296346646e-07
1.41688505e-07
1.529282261e-07
1.62942877e-07
1.713976504e-07
1.78064996e-07
1.828408856e-07
1.857256954e-07
1.868296776e-07
1.863162711e-07
1.844043709e-07
1.813280018e-07
1.772936195e-07
1.727032577e-07
1.676258726e-07
1.622709493e-07
1.567861703e-07
1.512670737e-07
1.458200941e-07
1.405164766e-07
1.353585095e-07
1.30309035e-07
1.254500874e-07
1.207988201e-07
1.16355933e-07
1.121564336e-07
1.081597855e-07
1.043576013e-07
1.007111857e-07
9.722654291e-08
9.387994166e-08
9.068663939e-08
8.765960599e-08
8.476901997e-08
8.199185563e-08
7.931461767e-08
7.67452692e-08
7.424047692e-08
7.180739486e-08
6.945117183e-08
6.717758558e-08
6.496987515e-08
6.280503129e-08
6.069601386e-08
5.863532259e-08
5.660400902e-08
5.461315025e-08
5.266224577e-08
5.076998725e-08
4.89194054e-08
4.710925325e-08
4.533860464e-08
4.358345837e-08
4.184983713e-08
4.012762872e-08
3.841087051e-08
3.672641677e-08
3.507101539e-08
3.344363135e-08
3.182699597e-08
3.020922047e-08
2.860904294e-08
2.702643851e-08
2.547126436e-08
2.394319869e-08
2.243365779e-08
2.093864353e-08
1.947112896e-08
1.804897581e-08
1.668785706e-08
1.532797748e-08
1.405594544e-08
1.281647012e-08
1.166053932e-08
1.058036596e-08
9.560037359e-09
8.535031102e-09
1.356341857e-08
1.998625683e-08
2.93818776e-08
4.022168362e-08
)


101
(
4.453326557e-12
4.419875519e-10
1.828665002e-09
3.964223944e-09
6.66736734e-09
9.840476752e-09
1.343939378e-08
1.746068731e-08
2.193165859e-08
2.688469871e-08
3.237641365e-08
3.845899589e-08
4.519965638e-08
5.268447635e-08
6.102265391e-08
7.029842944e-08
8.055000106e-08
9.174487461e-08
1.037759243e-07
1.164027033e-07
1.293037358e-07
1.420855332e-07
1.543204906e-07
1.655866287e-07
1.755232335e-07
1.83850958e-07
1.903984313e-07
1.950958377e-07
1.979906412e-07
1.991924271e-07
1.988775998e-07
1.97247933e-07
1.94486389e-07
1.910011092e-07
1.868544359e-07
1.822679763e-07
1.774056726e-07
1.72384856e-07
1.673424415e-07
1.623749239e-07
1.574909174e-07
1.526469386e-07
1.47929039e-07
1.433516775e-07
1.389249873e-07
1.347097421e-07
1.306833252e-07
1.268513525e-07
1.231616479e-07
1.196220167e-07
1.162072304e-07
1.129285622e-07
1.098007108e-07
1.068119168e-07
1.039334976e-07
1.011456437e-07
9.846981216e-08
9.58497285e-08
9.327908509e-08
9.076444451e-08
8.83253657e-08
8.595029581e-08
8.361395953e-08
8.132848582e-08
7.906636438e-08
7.683397024e-08
7.461487344e-08
7.241274365e-08
7.025589937e-08
6.812607057e-08
6.603434125e-08
6.396941618e-08
6.191258166e-08
5.986629444e-08
5.781155835e-08
5.572848861e-08
5.363683697e-08
5.157744898e-08
4.953128146e-08
4.748542799e-08
4.542195749e-08
4.33422976e-08
4.124572246e-08
3.917366426e-08
3.710901157e-08
3.504970343e-08
3.298526628e-08
3.09358368e-08
2.890799592e-08
2.695890965e-08
2.499676078e-08
2.312773602e-08
2.130102006e-08
1.956569643e-08
1.793924226e-08
1.640650684e-08
1.488135131e-08
2.276276451e-08
3.267658615e-08
4.67436991e-08
6.312000977e-08
)


101
(
4.434164019e-12
4.31614344e-10
1.789060008e-09
3.883414665e-09
6.537032674e-09
9.653571857e-09
1.319038828e-08
1.714355872e-08
2.154075341e-08
2.641441716e-08
3.18218952e-08
3.781722721e-08
4.446635066e-08
5.185445714e-08
6.00934443e-08
6.92770769e-08
7.946321157e-08
9.065078994e-08
1.02773074e-07
1.156397985e-07
1.289798451e-07
1.42441077e-07
1.556236858e-07
1.68102638e-07
1.795025275e-07
1.895050093e-07
1.978776982e-07
2.044826403e-07
2.09304171e-07
2.12394414e-07
2.138798652e-07
2.139240081e-07
2.126806657e-07
2.105535487e-07
2.075933887e-07
2.040299677e-07
2.000364216e-07
1.95744307e-07
1.913186808e-07
1.868873441e-07
1.824748944e-07
1.780372527e-07
1.73660772e-07
1.693527811e-07
1.651241816e-07
1.610575312e-07
1.571508528e-07
1.534307765e-07
1.498411021e-07
1.463906327e-07
1.430501091e-07
1.398279128e-07
1.367347296e-07
1.337749083e-07
1.309230985e-07
1.281478739e-07
1.254888642e-07
1.228742015e-07
1.20294569e-07
1.177405517e-07
1.152430012e-07
1.127982976e-07
1.103958954e-07
1.080317714e-07
1.0566626e-07
1.03322845e-07
1.009515103e-07
9.857153113e-08
9.620736461e-08
9.385963653e-08
9.152542481e-08
8.9189111e-08
8.684894522e-08
8.449916838e-08
8.211227031e-08
7.966376429e-08
7.716127018e-08
7.463437121e-08
7.210130796e-08
6.955831051e-08
6.697861212e-08
6.431837088e-08
6.160068408e-08
5.887320538e-08
5.612647912e-08
5.335496435e-08
5.05359543e-08
4.772130723e-08
4.488125615e-08
4.212990921e-08
3.936218598e-08
3.666152259e-08
3.402311313e-08
3.148724416e-08
2.908772047e-08
2.684637033e-08
2.463668669e-08
3.650576117e-08
5.122811819e-08
7.179651211e-08
9.579734873e-08
)


101
(
4.41500148e-12
4.213470249e-10
1.749832542e-09
3.803442007e-09
6.408307864e-09
9.469528337e-09
1.294610302e-08
1.68339273e-08