/*--------------------------------*- C++ -*----------------------------------*\
| =========                 |                                                 |
| \\      /  F ield         | OpenFOAM: The Open Source CFD Toolbox           |
|  \\    /   O peration     | Version:  2.3.1                                 |
|   \\  /    A nd           | Web:      www.OpenFOAM.org                      |
|    \\/     M anipulation  |                                                 |
\*---------------------------------------------------------------------------*/
FoamFile
{
    version     2.0;
    format      ascii;
    class       dictionary;
    location    "constant";
    object      He;
}
// * * * * * * * * * * * * * * * * * * * * * * * * * * * * * * * * * * * * * //

He_table
101
(

101
(
-3002576.25
-2973950.488
-2945324.726
-2916698.964
-2888073.203
-2859447.435
-2830821.679
-2802195.912
-2773570.155
-2744944.377
-2716318.621
-2687692.864
-2659067.108
-2630441.351
-2601815.573
-2573189.795
-2544564.06
-2515938.282
-2487312.505
-2458686.769
-2430060.991
-2401435.256
-2372809.478
-2344183.701
-2315557.965
-2286932.188
-2258306.452
-2229680.632
-2201054.897
-2172429.161
-2143803.341
-2115177.606
-2086551.87
-2057926.05
-2029300.315
-2000674.58
-1972048.759
-1943423.024
-1914797.289
-1886171.553
-1857545.733
-1828919.998
-1800294.263
-1771668.442
-1743042.707
-1714416.972
-1685791.151
-1657165.416
-1628539.681
-1599913.86
-1571288.125
-1542662.39
-1514036.655
-1485410.919
-1456785.014
-1428159.278
-1399533.543
-1370907.808
-1342282.073
-1313656.338
-1285030.432
-1256404.697
-1227778.961
-1199153.226
-1170527.491
-1141901.756
-1113275.85
-1084650.115
-1056024.38
-1027398.644
-998772.9091
-970147.1739
-941521.2681
-912895.5329
-884269.7977
-855644.0625
-827018.3273
-798392.5921
-769766.8569
-741140.9511
-712515.2159
-683889.4807
-655263.7455
-626638.0103
-598012.2751
-569386.3693
-540760.6341
-512134.8989
-483509.1636
-454883.4284
-426257.6932
-397631.7874
-369006.0522
-340380.317
-311754.5818
-283128.8466
-254503.1114
-225877.2056
-197251.4704
-168625.7352
-140000
)


101
(
-3002576.25
-2973950.488
-2945324.726
-2916698.964
-2888073.203
-2859447.435
-2830821.679
-2802195.912
-2773570.155
-2744944.377
-2716318.621
-2687692.864
-2659067.108
-2630441.351
-2601815.573
-2573189.795
-2544564.06
-2515938.282
-2487312.505
-2458686.769
-2430060.991
-2401435.256
-2372809.478
-2344183.701
-2315557.965
-2286932.188
-2258306.452
-2229680.632
-2201054.897
-2172429.161
-2143803.341
-2115177.606
-2086551.87
-2057926.05
-2029300.315
-2000674.58
-1972048.759
-1943423.024
-1914797.289
-1886171.553
-1857545.733
-1828919.998
-1800294.263
-1771668.442
-1743042.707
-1714416.972
-1685791.151
-1657165.416
-1628539.681
-1599913.86
-1571288.125
-1542662.39
-1514036.655
-1485410.919
-1456785.014
-1428159.278
-1399533.543
-1370907.808
-1342282.073
-1313656.338
-1285030.432
-1256404.697
-1227778.961
-1199153.226
-1170527.491
-1141901.756
-1113275.85
-1084650.115
-1056024.38
-1027398.644
-998772.9091
-970147.1739
-941521.2681
-912895.5329
-884269.7977
-855644.0625
-827018.3273
-798392.5921
-769766.8569
-741140.9511
-712515.2159
-683889.4807
-655263.7455
-626638.0103
-598012.2751
-569386.3693
-540760.6341
-512134.8989
-483509.1636
-454883.4284
-426257.6932
-397631.7874
-369006.0522
-340380.317
-311754.5818
-283128.8466
-254503.1114
-225877.2056
-197251.4704
-168625.7352
-140000
)


101
(
-3002576.25
-2973950.488
-2945324.726
-2916698.964
-2888073.203
-2859447.435
-2830821.679
-2802195.912
-2773570.155
-2744944.377
-2716318.621
-2687692.864
-2659067.108
-2630441.351
-2601815.573
-2573189.795
-2544564.06
-2515938.282
-2487312.505
-2458686.769
-2430060.991
-2401435.256
-2372809.478
-2344183.701
-2315557.965
-2286932.188
-2258306.452
-2229680.632
-2201054.897
-2172429.161
-2143803.341
-2115177.606
-2086551.87
-2057926.05
-2029300.315
-2000674.58
-1972048.759
-1943423.024
-1914797.289
-1886171.553
-1857545.733
-1828919.998
-1800294.263
-1771668.442
-1743042.707
-1714416.972
-1685791.151
-1657165.416
-1628539.681
-1599913.86
-1571288.125
-1542662.39
-1514036.655
-1485410.919
-1456785.014
-1428159.278
-1399533.543
-1370907.808
-1342282.073
-1313656.338
-1285030.432
-1256404.697
-1227778.961
-1199153.226
-1170527.491
-1141901.756
-1113275.85
-1084650.115
-1056024.38
-1027398.644
-998772.9091
-970147.1739
-941521.2681
-912895.5329
-884269.7977
-855644.0625
-827018.3273
-798392.5921
-769766.8569
-741140.9511
-712515.2159
-683889.4807
-655263.7455
-626638.0103
-598012.2751
-569386.3693
-540760.6341
-512134.8989
-483509.1636
-454883.4284
-426257.6932
-397631.7874
-369006.0522
-340380.317
-311754.5818
-283128.8466
-254503.1114
-225877.2056
-197251.4704
-168625.7352
-140000
)


101
(
-3002576.25
-2973950.488
-2945324.726
-2916698.964
-2888073.203
-2859447.435
-2830821.679
-2802195.912
-2773570.155
-2744944.377
-2716318.621
-2687692.864
-2659067.108
-2630441.351
-2601815.573
-2573189.795
-2544564.06
-2515938.282
-2487312.505
-2458686.769
-2430060.991
-2401435.256
-2372809.478
-2344183.701
-2315557.965
-2286932.188
-2258306.452
-2229680.632
-2201054.897
-2172429.161
-2143803.341
-2115177.606
-2086551.87
-2057926.05
-2029300.315
-2000674.58
-1972048.759
-1943423.024
-1914797.289
-1886171.553
-1857545.733
-1828919.998
-1800294.263
-1771668.442
-1743042.707
-1714416.972
-1685791.151
-1657165.416
-1628539.681
-1599913.86
-1571288.125
-1542662.39
-1514036.655
-1485410.919
-1456785.014
-1428159.278
-1399533.543
-1370907.808
-1342282.073
-1313656.338
-1285030.432
-1256404.697
-1227778.961
-1199153.226
-1170527.491
-1141901.756
-1113275.85
-1084650.115
-1056024.38
-1027398.644
-998772.9091
-970147.1739
-941521.2681
-912895.5329
-884269.7977
-855644.0625
-827018.3273
-798392.5921
-769766.8569
-741140.9511
-712515.2159
-683889.4807
-655263.7455
-626638.0103
-598012.2751
-569386.3693
-540760.6341
-512134.8989
-483509.1636
-454883.4284
-426257.6932
-397631.7874
-369006.0522
-340380.317
-311754.5818
-283128.8466
-254503.1114
-225877.2056
-197251.4704
-168625.7352
-140000
)


101
(
-3002576.25
-2973950.488
-2945324.726
-2916698.964
-2888073.203
-2859447.435
-2830821.679
-2802195.912
-2773570.155
-2744944.377
-2716318.621
-2687692.864
-2659067.108
-2630441.351
-2601815.573
-2573189.795
-2544564.06
-2515938.282
-2487312.505
-2458686.769
-2430060.991
-2401435.256
-2372809.478
-2344183.701
-2315557.965
-2286932.188
-2258306.452
-2229680.632
-2201054.897
-2172429.161
-2143803.341
-2115177.606
-2086551.87
-2057926.05
-2029300.315
-2000674.58
-1972048.759
-1943423.024
-1914797.289
-1886171.553
-1857545.733
-1828919.998
-1800294.263
-1771668.442
-1743042.707
-1714416.972
-1685791.151
-1657165.416
-1628539.681
-1599913.86
-1571288.125
-1542662.39
-1514036.655
-1485410.919
-1456785.014
-1428159.278
-1399533.543
-1370907.808
-1342282.073
-1313656.338
-1285030.432
-1256404.697
-1227778.961
-1199153.226
-1170527.491
-1141901.756
-1113275.85
-1084650.115
-1056024.38
-1027398.644
-998772.9091
-970147.1739
-941521.2681
-912895.5329
-884269.7977
-855644.0625
-827018.3273
-798392.5921
-769766.8569
-741140.9511
-712515.2159
-683889.4807
-655263.7455
-626638.0103
-598012.2751
-569386.3693
-540760.6341
-512134.8989
-483509.1636
-454883.4284
-426257.6932
-397631.7874
-369006.0522
-340380.317
-311754.5818
-283128.8466
-254503.1114
-225877.2056
-197251.4704
-168625.7352
-140000
)


101
(
-3002576.25
-2973950.488
-2945324.726
-2916698.964
-2888073.203
-2859447.435
-2830821.679
-2802195.912
-2773570.155
-2744944.377
-2716318.621
-2687692.864
-2659067.108
-2630441.351
-2601815.573
-2573189.795
-2544564.06
-2515938.282
-2487312.505
-2458686.769
-2430060.991
-2401435.256
-2372809.478
-2344183.701
-2315557.965
-2286932.188
-2258306.452
-2229680.632
-2201054.897
-2172429.161
-2143803.341
-2115177.606
-2086551.87
-2057926.05
-2029300.315
-2000674.58
-1972048.759
-1943423.024
-1914797.289
-1886171.553
-1857545.733
-1828919.998
-1800294.263
-1771668.442
-1743042.707
-1714416.972
-1685791.151
-1657165.416
-1628539.681
-1599913.86
-1571288.125
-1542662.39
-1514036.655
-1485410.919
-1456785.014
-1428159.278
-1399533.543
-1370907.808
-1342282.073
-1313656.338
-1285030.432
-1256404.697
-1227778.961
-1199153.226
-1170527.491
-1141901.756
-1113275.85
-1084650.115
-1056024.38
-1027398.644
-998772.9091
-970147.1739
-941521.2681
-912895.5329
-884269.7977
-855644.0625
-827018.3273
-798392.5921
-769766.8569
-741140.9511
-712515.2159
-683889.4807
-655263.7455
-626638.0103
-598012.2751
-569386.3693
-540760.6341
-512134.8989
-483509.1636
-454883.4284
-426257.6932
-397631.7874
-369006.0522
-340380.317
-311754.5818
-283128.8466
-254503.1114
-225877.2056
-197251.4704
-168625.7352
-140000
)


101
(
-3002576.25
-2973950.488
-2945324.726
-2916698.964
-2888073.203
-2859447.435
-2830821.679
-2802195.912
-2773570.155
-2744944.377
-2716318.621
-2687692.864
-2659067.108
-2630441.351
-2601815.573
-2573189.795
-2544564.06
-2515938.282
-2487312.505
-2458686.769
-2430060.991
-2401435.256
-2372809.478
-2344183.701
-2315557.965
-2286932.188
-2258306.452
-2229680.632
-2201054.897
-2172429.161
-2143803.341
-2115177.606
-2086551.87
-2057926.05
-2029300.315
-2000674.58
-1972048.759
-1943423.024
-1914797.289
-1886171.553
-1857545.733
-1828919.998
-1800294.263
-1771668.442
-1743042.707
-1714416.972
-1685791.151
-1657165.416
-1628539.681
-1599913.86
-1571288.125
-1542662.39
-1514036.655
-1485410.919
-1456785.014
-1428159.278
-1399533.543
-1370907.808
-1342282.073
-1313656.338
-1285030.432
-1256404.697
-1227778.961
-1199153.226
-1170527.491
-1141901.756
-1113275.85
-1084650.115
-1056024.38
-1027398.644
-998772.9091
-970147.1739
-941521.2681
-912895.5329
-884269.7977
-855644.0625
-827018.3273
-798392.5921
-769766.8569
-741140.9511
-712515.2159
-683889.4807
-655263.7455
-626638.0103
-598012.2751
-569386.3693
-540760.6341
-512134.8989
-483509.1636
-454883.4284
-426257.6932
-397631.7874
-369006.0522
-340380.317
-311754.5818
-283128.8466
-254503.1114
-225877.2056
-197251.4704
-168625.7352
-140000
)


101
(
-3002576.25
-2973950.488
-2945324.726
-2916698.964
-2888073.203
-2859447.435
-2830821.679
-2802195.912
-2773570.155
-2744944.377
-2716318.621
-2687692.864
-2659067.108
-2630441.351
-2601815.573
-2573189.795
-2544564.06
-2515938.282
-2487312.505
-2458686.769
-2430060.991
-2401435.256
-2372809.478
-2344183.701
-2315557.965
-2286932.188
-2258306.452
-2229680.632
-2201054.897
-2172429.161
-2143803.341
-2115177.606
-2086551.87
-2057926.05
-2029300.315
-2000674.58
-1972048.759
-1943423.024
-1914797.289
-1886171.553
-1857545.733
-1828919.998
-1800294.263
-1771668.442
-1743042.707
-1714416.972
-1685791.151
-1657165.416
-1628539.681
-1599913.86
-1571288.125
-1542662.39
-1514036.655
-1485410.919
-1456785.014
-1428159.278
-1399533.543
-1370907.808
-1342282.073
-1313656.338
-1285030.432
-1256404.697
-1227778.961
-1199153.226
-1170527.491
-1141901.756
-1113275.85
-1084650.115
-1056024.38
-1027398.644
-998772.9091
-970147.1739
-941521.2681
-912895.5329
-884269.7977
-855644.0625
-827018.3273
-798392.5921
-769766.8569
-741140.9511
-712515.2159
-683889.4807
-655263.7455
-626638.0103
-598012.2751
-569386.3693
-540760.6341
-512134.8989
-483509.1636
-454883.4284
-426257.6932
-397631.7874
-369006.0522
-340380.317
-311754.5818
-283128.8466
-254503.1114
-225877.2056
-197251.4704
-168625.7352
-140000
)


101
(
-3002576.25
-2973950.488
-2945324.726
-2916698.964
-2888073.203
-2859447.435
-2830821.679
-2802195.912
-2773570.155
-2744944.377
-2716318.621
-2687692.864
-2659067.108
-2630441.351
-2601815.573
-2573189.795
-2544564.06
-2515938.282
-2487312.505
-2458686.769
-2430060.991
-2401435.256
-2372809.478
-2344183.701
-2315557.965
-2286932.188
-2258306.452
-2229680.632
-2201054.897
-2172429.161
-2143803.341
-2115177.606
-2086551.87
-2057926.05
-2029300.315
-2000674.58
-1972048.759
-1943423.024
-1914797.289
-1886171.553
-1857545.733
-1828919.998
-1800294.263
-1771668.442
-1743042.707
-1714416.972
-1685791.151
-1657165.416
-1628539.681
-1599913.86
-1571288.125
-1542662.39
-1514036.655
-1485410.919
-1456785.014
-1428159.278
-1399533.543
-1370907.808
-1342282.073
-1313656.338
-1285030.432
-1256404.697
-1227778.961
-1199153.226
-1170527.491
-1141901.756
-1113275.85
-1084650.115
-1056024.38
-1027398.644
-998772.9091
-970147.1739
-941521.2681
-912895.5329
-884269.7977
-855644.0625
-827018.3273
-798392.5921
-769766.8569
-741140.9511
-712515.2159
-683889.4807
-655263.7455
-626638.0103
-598012.2751
-569386.3693
-540760.6341
-512134.8989
-483509.1636
-454883.4284
-426257.6932
-397631.7874
-369006.0522
-340380.317
-311754.5818
-283128.8466
-254503.1114
-225877.2056
-197251.4704
-168625.7352
-140000
)


101
(
-3002576.25
-2973950.488
-2945324.726
-2916698.964
-2888073.203
-2859447.435
-2830821.679
-2802195.912
-2773570.155
-2744944.377
-2716318.621
-2687692.864
-2659067.108
-2630441.351
-2601815.573
-2573189.795
-2544564.06
-2515938.282
-2487312.505
-2458686.769
-2430060.991
-2401435.256
-2372809.478
-2344183.701
-2315557.965
-2286932.188
-2258306.452
-2229680.632
-2201054.897
-2172429.161
-2143803.341
-2115177.606
-2086551.87
-2057926.05
-2029300.315
-2000674.58
-1972048.759
-1943423.024
-1914797.289
-1886171.553
-1857545.733
-1828919.998
-1800294.263
-1771668.442
-1743042.707
-1714416.972
-1685791.151
-1657165.416
-1628539.681
-1599913.86
-1571288.125
-1542662.39
-1514036.655
-1485410.919
-1456785.014
-1428159.278
-1399533.543
-1370907.808
-1342282.073
-1313656.338
-1285030.432
-1256404.697
-1227778.961
-1199153.226
-1170527.491
-1141901.756
-1113275.85
-1084650.115
-1056024.38
-1027398.644
-998772.9091
-970147.1739
-941521.2681
-912895.5329
-884269.7977
-855644.0625
-827018.3273
-798392.5921
-769766.8569
-741140.9511
-712515.2159
-683889.4807
-655263.7455
-626638.0103
-598012.2751
-569386.3693
-540760.6341
-512134.8989
-483509.1636
-454883.4284
-426257.6932
-397631.7874
-369006.0522
-340380.317
-311754.5818
-283128.8466
-254503.1114
-225877.2056
-197251.4704
-168625.7352
-140000
)


101
(
-3002576.25
-2973950.488
-2945324.726
-2916698.964
-2888073.203
-2859447.435
-2830821.679
-2802195.912
-2773570.155
-2744944.377
-2716318.621
-2687692.864
-2659067.108
-2630441.351
-2601815.573
-2573189.795
-2544564.06
-2515938.282
-2487312.505
-2458686.769
-2430060.991
-2401435.256
-2372809.478
-2344183.701
-2315557.965
-2286932.188
-2258306.452
-2229680.632
-2201054.897
-2172429.161
-2143803.341
-2115177.606
-2086551.87
-2057926.05
-2029300.315
-2000674.58
-1972048.759
-1943423.024
-1914797.289
-1886171.553
-1857545.733
-1828919.998
-1800294.263
-1771668.442
-1743042.707
-1714416.972
-1685791.151
-1657165.416
-1628539.681
-1599913.86
-1571288.125
-1542662.39
-1514036.655
-1485410.919
-1456785.014
-1428159.278
-1399533.543
-1370907.808
-1342282.073
-1313656.338
-1285030.432
-1256404.697
-1227778.961
-1199153.226
-1170527.491
-1141901.756
-1113275.85
-1084650.115
-1056024.38
-1027398.644
-998772.9091
-970147.1739
-941521.2681
-912895.5329
-884269.7977
-855644.0625
-827018.3273
-798392.5921
-769766.8569
-741140.9511
-712515.2159
-683889.4807
-655263.7455
-626638.0103
-598012.2751
-569386.3693
-540760.6341
-512134.8989
-483509.1636
-454883.4284
-426257.6932
-397631.7874
-369006.0522
-340380.317
-311754.5818
-283128.8466
-254503.1114
-225877.2056
-197251.4704
-168625.7352
-140000
)


101
(
-3002576.25
-2973950.488
-2945324.726
-2916698.964
-2888073.203
-2859447.435
-2830821.679
-2802195.912
-2773570.155
-2744944.377
-2716318.621
-2687692.864
-2659067.108
-2630441.351
-2601815.573
-2573189.795
-2544564.06
-2515938.282
-2487312.505
-2458686.769
-2430060.991
-2401435.256
-2372809.478
-2344183.701
-2315557.965
-2286932.188
-2258306.452
-2229680.632
-2201054.897
-2172429.161
-2143803.341
-2115177.606
-2086551.87
-2057926.05
-2029300.315
-2000674.58
-1972048.759
-1943423.024
-1914797.289
-1886171.553
-1857545.733
-1828919.998
-1800294.263
-1771668.442
-1743042.707
-1714416.972
-1685791.151
-1657165.416
-1628539.681
-1599913.86
-1571288.125
-1542662.39
-1514036.655
-1485410.919
-1456785.014
-1428159.278
-1399533.543
-1370907.808
-1342282.073
-1313656.338
-1285030.432
-1256404.697
-1227778.961
-1199153.226
-1170527.491
-1141901.756
-1113275.85
-1084650.115
-1056024.38
-1027398.644
-998772.9091
-970147.1739
-941521.2681
-912895.5329
-884269.7977
-855644.0625
-827018.3273
-798392.5921
-769766.8569
-741140.9511
-712515.2159
-683889.4807
-655263.7455
-626638.0103
-598012.2751
-569386.3693
-540760.6341
-512134.8989
-483509.1636
-454883.4284
-426257.6932
-397631.7874
-369006.0522
-340380.317
-311754.5818
-283128.8466
-254503.1114
-225877.2056
-197251.4704
-168625.7352
-140000
)


101
(
-3002576.25
-2973950.488
-2945324.726
-2916698.964
-2888073.203
-2859447.435
-2830821.679
-2802195.912
-2773570.155
-2744944.377
-2716318.621
-2687692.864
-2659067.108
-2630441.351
-2601815.573
-2573189.795
-2544564.06
-2515938.282
-2487312.505
-2458686.769
-2430060.991
-2401435.256
-2372809.478
-2344183.701
-2315557.965
-2286932.188
-2258306.452
-2229680.632
-2201054.897
-2172429.161
-2143803.341
-2115177.606
-2086551.87
-2057926.05
-2029300.315
-2000674.58
-1972048.759
-1943423.024
-1914797.289
-1886171.553
-1857545.733
-1828919.998
-1800294.263
-1771668.442
-1743042.707
-1714416.972
-1685791.151
-1657165.416
-1628539.681
-1599913.86
-1571288.125
-1542662.39
-1514036.655
-1485410.919
-1456785.014
-1428159.278
-1399533.543
-1370907.808
-1342282.073
-1313656.338
-1285030.432
-1256404.697
-1227778.961
-1199153.226
-1170527.491
-1141901.756
-1113275.85
-1084650.115
-1056024.38
-1027398.644
-998772.9091
-970147.1739
-941521.2681
-912895.5329
-884269.7977
-855644.0625
-827018.3273
-798392.5921
-769766.8569
-741140.9511
-712515.2159
-683889.4807
-655263.7455
-626638.0103
-598012.2751
-569386.3693
-540760.6341
-512134.8989
-483509.1636
-454883.4284
-426257.6932
-397631.7874
-369006.0522
-340380.317
-311754.5818
-283128.8466
-254503.1114
-225877.2056
-197251.4704
-168625.7352
-140000
)


101
(
-3002576.25
-2973950.488
-2945324.726
-2916698.964
-2888073.203
-2859447.435
-2830821.679
-2802195.912
-2773570.155
-2744944.377
-2716318.621
-2687692.864
-2659067.108
-2630441.351
-2601815.573
-2573189.795
-2544564.06
-2515938.282
-2487312.505
-2458686.769
-2430060.991
-2401435.256
-2372809.478
-2344183.701
-2315557.965
-2286932.188
-2258306.452
-2229680.632
-2201054.897
-2172429.161
-2143803.341
-2115177.606
-2086551.87
-2057926.05
-2029300.315
-2000674.58
-1972048.759
-1943423.024
-1914797.289
-1886171.553
-1857545.733
-1828919.998
-1800294.263
-1771668.442
-1743042.707
-1714416.972
-1685791.151
-1657165.416
-1628539.681
-1599913.86
-1571288.125
-1542662.39
-1514036.655
-1485410.919
-1456785.014
-1428159.278
-1399533.543
-1370907.808
-1342282.073
-1313656.338
-1285030.432
-1256404.697
-1227778.961
-1199153.226
-1170527.491
-1141901.756
-1113275.85
-1084650.115
-1056024.38
-1027398.644
-998772.9091
-970147.1739
-941521.2681
-912895.5329
-884269.7977
-855644.0625
-827018.3273
-798392.5921
-769766.8569
-741140.9511
-712515.2159
-683889.4807
-655263.7455
-626638.0103
-598012.2751
-569386.3693
-540760.6341
-512134.8989
-483509.1636
-454883.4284
-426257.6932
-397631.7874
-369006.0522
-340380.317
-311754.5818
-283128.8466
-254503.1114
-225877.2056
-197251.4704
-168625.7352
-140000
)


101
(
-3002576.25
-2973950.488
-2945324.726
-2916698.964
-2888073.203
-2859447.435
-2830821.679
-2802195.912
-2773570.155
-2744944.377
-2716318.621
-2687692.864
-2659067.108
-2630441.351
-2601815.573
-2573189.795
-2544564.06
-2515938.282
-2487312.505
-2458686.769
-2430060.991
-2401435.256
-2372809.478
-2344183.701
-2315557.965
-2286932.188
-2258306.452
-2229680.632
-2201054.897
-2172429.161
-2143803.341
-2115177.606
-2086551.87
-2057926.05
-2029300.315
-2000674.58
-1972048.759
-1943423.024
-1914797.289
-1886171.553
-1857545.733
-1828919.998
-1800294.263
-1771668.442
-1743042.707
-1714416.972
-1685791.151
-1657165.416
-1628539.681
-1599913.86
-1571288.125
-1542662.39
-1514036.655
-1485410.919
-1456785.014
-1428159.278
-1399533.543
-1370907.808
-1342282.073
-1313656.338
-1285030.432
-1256404.697
-1227778.961
-1199153.226
-1170527.491
-1141901.756
-1113275.85
-1084650.115
-1056024.38
-1027398.644
-998772.9091
-970147.1739
-941521.2681
-912895.5329
-884269.7977
-855644.0625
-827018.3273
-798392.5921
-769766.8569
-741140.9511
-712515.2159
-683889.4807
-655263.7455
-626638.0103
-598012.2751
-569386.3693
-540760.6341
-512134.8989
-483509.1636
-454883.4284
-426257.6932
-397631.7874
-369006.0522
-340380.317
-311754.5818
-283128.8466
-254503.1114
-225877.2056
-197251.4704
-168625.7352
-140000
)


101
(
-3002576.25
-2973950.488
-2945324.726
-2916698.964
-2888073.203
-2859447.435
-2830821.679
-2802195.912
-2773570.155
-2744944.377
-2716318.621
-2687692.864
-2659067.108
-2630441.351
-2601815.573
-2573189.795
-2544564.06
-2515938.282
-2487312.505
-2458686.769
-2430060.991
-2401435.256
-2372809.478
-2344183.701
-2315557.965
-2286932.188
-2258306.452
-2229680.632
-2201054.897
-2172429.161
-2143803.341
-2115177.606
-2086551.87
-2057926.05
-2029300.315
-2000674.58
-1972048.759
-1943423.024
-1914797.289
-1886171.553
-1857545.733
-1828919.998
-1800294.263
-1771668.442
-1743042.707
-1714416.972
-1685791.151
-1657165.416
-1628539.681
-1599913.86
-1571288.125
-1542662.39
-1514036.655
-1485410.919
-1456785.014
-1428159.278
-1399533.543
-1370907.808
-1342282.073
-1313656.338
-1285030.432
-1256404.697
-1227778.961
-1199153.226
-1170527.491
-1141901.756
-1113275.85
-1084650.115
-1056024.38
-1027398.644
-998772.9091
-970147.1739
-941521.2681
-912895.5329
-884269.7977
-855644.0625
-827018.3273
-798392.5921
-769766.8569
-741140.9511
-712515.2159
-683889.4807
-655263.7455
-626638.0103
-598012.2751
-569386.3693
-540760.6341
-512134.8989
-483509.1636
-454883.4284
-426257.6932
-397631.7874
-369006.0522
-340380.317
-311754.5818
-283128.8466
-254503.1114
-225877.2056
-197251.4704
-168625.7352
-140000
)


101
(
-3002576.25
-2973950.488
-2945324.726
-2916698.964
-2888073.203
-2859447.435
-2830821.679
-2802195.912
-2773570.155
-2744944.377
-2716318.621
-2687692.864
-2659067.108
-2630441.351
-2601815.573
-2573189.795
-2544564.06
-2515938.282
-2487312.505
-2458686.769
-2430060.991
-2401435.256
-2372809.478
-2344183.701
-2315557.965
-2286932.188
-2258306.452
-2229680.632
-2201054.897
-2172429.161
-2143803.341
-2115177.606
-2086551.87
-2057926.05
-2029300.315
-2000674.58
-1972048.759
-1943423.024
-1914797.289
-1886171.553
-1857545.733
-1828919.998
-1800294.263
-1771668.442
-1743042.707
-1714416.972
-1685791.151
-1657165.416
-1628539.681
-1599913.86
-1571288.125
-1542662.39
-1514036.655
-1485410.919
-1456785.014
-1428159.278
-1399533.543
-1370907.808
-1342282.073
-1313656.338
-1285030.432
-1256404.697
-1227778.961
-1199153.226
-1170527.491
-1141901.756
-1113275.85
-1084650.115
-1056024.38
-1027398.644
-998772.9091
-970147.1739
-941521.2681
-912895.5329
-884269.7977
-855644.0625
-827018.3273
-798392.5921
-769766.8569
-741140.9511
-712515.2159
-683889.4807
-655263.7455
-626638.0103
-598012.2751
-569386.3693
-540760.6341
-512134.8989
-483509.1636
-454883.4284
-426257.6932
-397631.7874
-369006.0522
-340380.317
-311754.5818
-283128.8466
-254503.1114
-225877.2056
-197251.4704
-168625.7352
-140000
)


101
(
-3002576.25
-2973950.488
-2945324.726
-2916698.964
-2888073.203
-2859447.435
-2830821.679
-2802195.912
-2773570.155
-2744944.377
-2716318.621
-2687692.864
-2659067.108
-2630441.351
-2601815.573
-2573189.795
-2544564.06
-2515938.282
-2487312.505
-2458686.769
-2430060.991
-2401435.256
-2372809.478
-2344183.701
-2315557.965
-2286932.188
-2258306.452
-2229680.632
-2201054.897
-2172429.161
-2143803.341
-2115177.606
-2086551.87
-2057926.05
-2029300.315
-2000674.58
-1972048.759
-1943423.024
-1914797.289
-1886171.553
-1857545.733
-1828919.998
-1800294.263
-1771668.442
-1743042.707
-1714416.972
-1685791.151
-1657165.416
-1628539.681
-1599913.86
-1571288.125
-1542662.39
-1514036.655
-1485410.919
-1456785.014
-1428159.278
-1399533.543
-1370907.808
-1342282.073
-1313656.338
-1285030.432
-1256404.697
-1227778.961
-1199153.226
-1170527.491
-1141901.756
-1113275.85
-1084650.115
-1056024.38
-1027398.644
-998772.9091
-970147.1739
-941521.2681
-912895.5329
-884269.7977
-855644.0625
-827018.3273
-798392.5921
-769766.8569
-741140.9511
-712515.2159
-683889.4807
-655263.7455
-626638.0103
-598012.2751
-569386.3693
-540760.6341
-512134.8989
-483509.1636
-454883.4284
-426257.6932
-397631.7874
-369006.0522
-340380.317
-311754.5818
-283128.8466
-254503.1114
-225877.2056
-197251.4704
-168625.7352
-140000
)


101
(
-3002576.25
-2973950.488
-2945324.726
-2916698.964
-2888073.203
-2859447.435
-2830821.679
-2802195.912
-2773570.155
-2744944.377
-2716318.621
-2687692.864
-2659067.108
-2630441.351
-2601815.573
-2573189.795
-2544564.06
-2515938.282
-2487312.505
-2458686.769
-2430060.991
-2401435.256
-2372809.478
-2344183.701
-2315557.965
-2286932.188
-2258306.452
-2229680.632
-2201054.897
-2172429.161
-2143803.341
-2115177.606
-2086551.87
-2057926.05
-2029300.315
-2000674.58
-1972048.759
-1943423.024
-1914797.289
-1886171.553
-1857545.733
-1828919.998
-1800294.263
-1771668.442
-1743042.707
-1714416.972
-1685791.151
-1657165.416
-1628539.681
-1599913.86
-1571288.125
-1542662.39
-1514036.655
-1485410.919
-1456785.014
-1428159.278
-1399533.543
-1370907.808
-1342282.073
-1313656.338
-1285030.432
-1256404.697
-1227778.961
-1199153.226
-1170527.491
-1141901.756
-1113275.85
-1084650.115
-1056024.38
-1027398.644
-998772.9091
-970147.1739
-941521.2681
-912895.5329
-884269.7977
-855644.0625
-827018.3273
-798392.5921
-769766.8569
-741140.9511
-712515.2159
-683889.4807
-655263.7455
-626638.0103
-598012.2751
-569386.3693
-540760.6341
-512134.8989
-483509.1636
-454883.4284
-426257.6932
-397631.7874
-369006.0522
-340380.317
-311754.5818
-283128.8466
-254503.1114
-225877.2056
-197251.4704
-168625.7352
-140000
)


101
(
-3002576.25
-2973950.488
-2945324.726
-2916698.964
-2888073.203
-2859447.435
-2830821.679
-2802195.912
-2773570.155
-2744944.377
-2716318.621
-2687692.864
-2659067.108
-2630441.351
-2601815.573
-2573189.795
-2544564.06
-2515938.282
-2487312.505
-2458686.769
-2430060.991
-2401435.256
-2372809.478
-2344183.701
-2315557.965
-2286932.188
-2258306.452
-2229680.632
-2201054.897
-2172429.161
-2143803.341
-2115177.606
-2086551.87
-2057926.05
-2029300.315
-2000674.58
-1972048.759
-1943423.024
-1914797.289
-1886171.553
-1857545.733
-1828919.998
-1800294.263
-1771668.442
-1743042.707
-1714416.972
-1685791.151
-1657165.416
-1628539.681
-1599913.86
-1571288.125
-1542662.39
-1514036.655
-1485410.919
-1456785.014
-1428159.278
-1399533.543
-1370907.808
-1342282.073
-1313656.338
-1285030.432
-1256404.697
-1227778.961
-1199153.226
-1170527.491
-1141901.756
-1113275.85
-1084650.115
-1056024.38
-1027398.644
-998772.9091
-970147.1739
-941521.2681
-912895.5329
-884269.7977
-855644.0625
-827018.3273
-798392.5921
-769766.8569
-741140.9511
-712515.2159
-683889.4807
-655263.7455
-626638.0103
-598012.2751
-569386.3693
-540760.6341
-512134.8989
-483509.1636
-454883.4284
-426257.6932
-397631.7874
-369006.0522
-340380.317
-311754.5818
-283128.8466
-254503.1114
-225877.2056
-197251.4704
-168625.7352
-140000
)


101
(
-3002576.25
-2973950.488
-2945324.726
-2916698.964
-2888073.203
-2859447.435
-2830821.679
-2802195.912
-2773570.155
-2744944.377
-2716318.621
-2687692.864
-2659067.108
-2630441.351
-2601815.573
-2573189.795
-2544564.06
-2515938.282
-2487312.505
-2458686.769
-2430060.991
-2401435.256
-2372809.478
-2344183.701
-2315557.965
-2286932.188
-2258306.452
-2229680.632
-2201054.897
-2172429.161
-2143803.341
-2115177.606
-2086551.87
-2057926.05
-2029300.315
-2000674.58
-1972048.759
-1943423.024
-1914797.289
-1886171.553
-1857545.733
-1828919.998
-1800294.263
-1771668.442
-1743042.707
-1714416.972
-1685791.151
-1657165.416
-1628539.681
-1599913.86
-1571288.125
-1542662.39
-1514036.655
-1485410.919
-1456785.014
-1428159.278
-1399533.543
-1370907.808
-1342282.073
-1313656.338
-1285030.432
-1256404.697
-1227778.961
-1199153.226
-1170527.491
-1141901.756
-1113275.85
-1084650.115
-1056024.38
-1027398.644
-998772.9091
-970147.1739
-941521.2681
-912895.5329
-884269.7977
-855644.0625
-827018.3273
-798392.5921
-769766.8569
-741140.9511
-712515.2159
-683889.4807
-655263.7455
-626638.0103
-598012.2751
-569386.3693
-540760.6341
-512134.8989
-483509.1636
-454883.4284
-426257.6932
-397631.7874
-369006.0522
-340380.317
-311754.5818
-283128.8466
-254503.1114
-225877.2056
-197251.4704
-168625.7352
-140000
)


101
(
-3002576.25
-2973950.488
-2945324.726
-2916698.964
-2888073.203
-2859447.435
-2830821.679
-2802195.912
-2773570.155
-2744944.377
-2716318.621
-2687692.864
-2659067.108
-2630441.351
-2601815.573
-2573189.795
-2544564.06
-2515938.282
-2487312.505
-2458686.769
-2430060.991
-2401435.256
-2372809.478
-2344183.701
-2315557.965
-2286932.188
-2258306.452
-2229680.632
-2201054.897
-2172429.161
-2143803.341
-2115177.606
-2086551.87
-2057926.05
-2029300.315
-2000674.58
-1972048.759
-1943423.024
-1914797.289
-1886171.553
-1857545.733
-1828919.998
-1800294.263
-1771668.442
-1743042.707
-1714416.972
-1685791.151
-1657165.416
-1628539.681
-1599913.86
-1571288.125
-1542662.39
-1514036.655
-1485410.919
-1456785.014
-1428159.278
-1399533.543
-1370907.808
-1342282.073
-1313656.338
-1285030.432
-1256404.697
-1227778.961
-1199153.226
-1170527.491
-1141901.756
-1113275.85
-1084650.115
-1056024.38
-1027398.644
-998772.9091
-970147.1739
-941521.2681
-912895.5329
-884269.7977
-855644.0625
-827018.3273
-798392.5921
-769766.8569
-741140.9511
-712515.2159
-683889.4807
-655263.7455
-626638.0103
-598012.2751
-569386.3693
-540760.6341
-512134.8989
-483509.1636
-454883.4284
-426257.6932
-397631.7874
-369006.0522
-340380.317
-311754.5818
-283128.8466
-254503.1114
-225877.2056
-197251.4704
-168625.7352
-140000
)


101
(
-3002576.25
-2973950.488
-2945324.726
-2916698.964
-2888073.203
-2859447.435
-2830821.679
-2802195.912
-2773570.155
-2744944.377
-2716318.621
-2687692.864
-2659067.108
-2630441.351
-2601815.573
-2573189.795
-2544564.06
-2515938.282
-2487312.505
-2458686.769
-2430060.991
-2401435.256
-2372809.478
-2344183.701
-2315557.965
-2286932.188
-2258306.452
-2229680.632
-2201054.897
-2172429.161
-2143803.341
-2115177.606
-2086551.87