/*--------------------------------*- C++ -*----------------------------------*\
| =========                 |                                                 |
| \\      /  F ield         | OpenFOAM: The Open Source CFD Toolbox           |
|  \\    /   O peration     | Version:  2.3.1                                 |
|   \\  /    A nd           | Web:      www.OpenFOAM.org                      |
|    \\/     M anipulation  |                                                 |
\*---------------------------------------------------------------------------*/
FoamFile
{
    version     2.0;
    format      ascii;
    class       dictionary;
    location    "constant";
    object      HO2;
}
// * * * * * * * * * * * * * * * * * * * * * * * * * * * * * * * * * * * * * //

HO2_table
101
(

101
(
1.948721121e-06
9.752528804e-06
1.838962857e-05
2.710167683e-05
3.559401261e-05
4.376909001e-05
5.158387291e-05
5.898691656e-05
6.598505463e-05
7.257396324e-05
7.874466063e-05
8.45029724e-05
8.985903659e-05
9.480950999e-05
9.93728275e-05
0.000103554421
0.0001073388932
0.0001106868412
0.0001135986155
0.0001159209508
0.0001176575592
0.0001187493883
0.000119082703
0.0001187093011
0.0001176986893
0.0001161356087
0.0001141327708
0.000111814921
0.0001092914834
0.0001066670694
0.0001040227603
0.0001014189857
9.888493122e-05
9.649904684e-05
9.426069991e-05
9.220076032e-05
9.04548635e-05
8.890614098e-05
8.7025862e-05
8.524992861e-05
8.356587882e-05
8.195074022e-05
8.041001109e-05
7.893202684e-05
7.750485781e-05
7.612844667e-05
7.479269124e-05
7.349409559e-05
7.222466013e-05
7.098101091e-05
6.975609626e-05
6.854564645e-05
6.734499599e-05
6.614906897e-05
6.495485173e-05
6.375827489e-05
6.255427116e-05
6.134080087e-05
6.011284708e-05
5.886817543e-05
5.76023917e-05
5.631747928e-05
5.500750877e-05
5.367144898e-05
5.230998824e-05
5.092283946e-05
4.950769067e-05
4.806397124e-05
4.659358223e-05
4.509928881e-05
4.358193119e-05
4.20472147e-05
4.050139245e-05
3.896532662e-05
3.761166253e-05
3.608220172e-05
3.430136763e-05
3.25032002e-05
3.069288813e-05
2.887348813e-05
2.706044472e-05
2.526585041e-05
2.352117957e-05
2.196074333e-05
2.012118652e-05
1.820413595e-05
1.631807926e-05
1.447293787e-05
1.270539431e-05
1.119267091e-05
9.377531215e-06
7.631493832e-06
6.079545465e-06
4.504824515e-06
3.078664726e-06
1.515608389e-06
-3.755517396e-14
2.152908781e-33
2.256330585e-24
-9.799139329e-24
0
)


101
(
1.946381699e-06
9.67132385e-06
1.822235138e-05
2.685130312e-05
3.526437815e-05
4.33636481e-05
5.110759191e-05
5.844603781e-05
6.538556039e-05
7.192302575e-05
7.805104477e-05
8.377450432e-05
8.910418559e-05
9.403729606e-05
9.859202194e-05
0.0001027756883
0.0001065772453
0.0001099638121
0.0001129332968
0.0001153609759
0.0001172282135
0.0001184851891
0.0001190339714
0.0001188882557
0.0001181036655
0.0001167552562
0.0001149424633
0.000112780079
0.0001103773862
0.0001078364416
0.0001052429163
0.0001026619644
0.0001001314655
9.771909076e-05
9.544044559e-05
9.332382181e-05
9.145765751e-05
8.981348233e-05
8.807187172e-05
8.631085369e-05
8.46088264e-05
8.297317646e-05
8.141030701e-05
7.991487236e-05
7.847661492e-05
7.709162341e-05
7.575132935e-05
7.445089092e-05
7.318332974e-05
7.194440596e-05
7.072802483e-05
6.952956654e-05
6.834427691e-05
6.716678006e-05
6.599376115e-05
6.482228382e-05
6.364883252e-05
6.246835333e-05
6.127846068e-05
6.007494135e-05
5.885468566e-05
5.761621302e-05
5.635672464e-05
5.507350171e-05
5.376555642e-05
5.243398366e-05
5.1076416e-05
4.96913857e-05
4.82786349e-05
4.684041584e-05
4.537745659e-05
4.389121937e-05
4.238512218e-05
4.086931042e-05
3.942154237e-05
3.79754441e-05
3.640954047e-05
3.473143364e-05
3.298474091e-05
3.120633878e-05
2.942135401e-05
2.763835099e-05
2.587145497e-05
2.419166167e-05
2.250907662e-05
2.071519615e-05
1.884746154e-05
1.698530726e-05
1.516202244e-05
1.344603534e-05
1.178709773e-05
1.004712809e-05
8.342492245e-06
6.7646077e-06
5.21631288e-06
3.694808669e-06
2.078397088e-06
2.399858134e-06
2.724431242e-06
3.075027946e-06
3.424858735e-06
)


101
(
1.944042278e-06
9.590115539e-06
1.805505223e-05
2.660080209e-05
3.493447273e-05
4.295774627e-05
5.063052317e-05
5.790386572e-05
6.478418892e-05
7.126945522e-05
7.73538419e-05
8.304154755e-05
8.834385373e-05
9.325851249e-05
9.780353655e-05
0.0001019877697
0.0001058039617
0.0001092251724
0.0001122484785
0.000114771373
0.0001167631164
0.0001181774684
0.0001189296098
0.0001190088092
0.0001184530285
0.000117326083
0.0001157151236
0.0001137244046
0.0001114599875
0.000109021745
0.0001064977258
0.000103957352
0.0001014454231
9.902552154e-05
9.671975137e-05
9.455932997e-05
9.260899573e-05
9.087511993e-05
8.917792179e-05
8.74651434e-05
8.577460767e-05
8.413190728e-05
8.255508594e-05
8.104595988e-05
7.959836509e-05
7.820829011e-05
7.686710463e-05
7.556910121e-05
7.430743717e-05
7.307756974e-05
7.187376673e-05
7.069150387e-05
6.952632834e-05
6.837334417e-05
6.72282345e-05
6.608776031e-05
6.494921466e-05
6.380746079e-05
6.266049788e-05
6.150379636e-05
6.03346538e-05
5.915009432e-05
5.79475934e-05
5.672528751e-05
5.54814389e-05
5.421532933e-05
5.292479861e-05
5.160859593e-05
5.026615944e-05
4.889716251e-05
4.750320634e-05
4.608346355e-05
4.464039448e-05
4.317526875e-05
4.1723024e-05
4.029315499e-05
3.883624718e-05
3.730209002e-05
3.567276613e-05
3.397087557e-05
3.223751707e-05
3.049529876e-05
2.875068381e-05
2.703168331e-05
2.535338439e-05
2.3664633e-05
2.189014625e-05
2.005198844e-05
1.822668477e-05
1.645348202e-05
1.473769671e-05
1.306761129e-05
1.134584491e-05
9.692484683e-06
8.158017111e-06
6.555812354e-06
4.818504222e-06
5.557502024e-06
6.306978487e-06
7.143363053e-06
7.980033609e-06
)


101
(
1.941702856e-06
9.508903978e-06
1.788773183e-05
2.63501778e-05
3.460430786e-05
4.255141152e-05
5.015272304e-05
5.736050052e-05
6.418109075e-05
7.061347066e-05
7.665334931e-05
8.230445878e-05
8.757846997e-05
9.247365375e-05
9.700790144e-05
0.000101191258
0.0001050197484
0.0001084717838
0.000111544782
0.0001141536806
0.0001162625121
0.0001178260854
0.0001187698099
0.0001190679882
0.0001187410345
0.0001178400523
0.0001164401735
0.0001146348402
0.0001125246579
0.0001102067161
0.0001077698879
0.0001052870521
0.0001028087047
0.0001003980676
9.80799303e-05
9.588605491e-05
9.38755744e-05
9.206442938e-05
9.036082588e-05
8.868503151e-05
8.702345728e-05
8.539103375e-05
8.381123488e-05
8.229358672e-05
8.08384853e-05
7.944484723e-05
7.810450016e-05
7.681152051e-05
7.555822065e-05
7.434010912e-05
7.315123824e-05
7.198748239e-05
7.084448137e-05
6.971768738e-05
6.860283846e-05
6.749662336e-05
6.639577028e-05
6.529545575e-05
6.419405514e-05
6.308686117e-05
6.197147542e-05
6.084448632e-05
5.970312691e-05
5.854540636e-05
5.736934154e-05
5.617336517e-05
5.495548667e-05
5.371355344e-05
5.244775556e-05
5.1156511e-05
4.984051613e-05
4.849897366e-05
4.713329229e-05
4.574166218e-05
4.433648125e-05
4.293550968e-05
4.153566521e-05
4.01065511e-05
3.860693453e-05
3.701844252e-05
3.536503261e-05
3.368271675e-05
3.198972521e-05
3.029541726e-05
2.861683165e-05
2.696014613e-05
2.528205071e-05
2.351718256e-05
2.171002125e-05
1.992759555e-05
1.818467989e-05
1.649920887e-05
1.482864598e-05
1.314789724e-05
1.1586633e-05
9.936495015e-06
8.064842007e-06
9.25672175e-06
1.046361984e-05
1.179428799e-05
1.312863454e-05
)


101
(
1.939363434e-06
9.427689275e-06
1.772039083e-05
2.609943404e-05
3.427389418e-05
4.214466835e-05
4.967424193e-05
5.681603025e-05
6.357639446e-05
6.995525284e-05
7.594980346e-05
8.156350603e-05
8.68083351e-05
9.168304187e-05
9.620542885e-05
0.0001003864744
0.0001042249869
0.0001077041446
0.0001108225323
0.0001135089164
0.0001157266069
0.0001174307385
0.0001185544592
0.0001190634615
0.0001189626859
0.0001182898171
0.0001171078818
0.0001154993513
0.0001135577564
0.0001113763813
0.0001090435379
0.0001066346075
0.0001042047315
0.0001018188415
9.950385814e-05
9.729427536e-05
9.523704117e-05
9.336184756e-05
9.162843497e-05
8.996690295e-05
8.833525845e-05
8.672562652e-05
8.515543921e-05
8.363755709e-05
8.217864399e-05
8.078270336e-05
7.944388875e-05
7.815682657e-05
7.691321499e-05
7.570833055e-05
7.453590199e-05
7.339192451e-05
7.227216961e-05
7.117244925e-05
7.008848403e-05
6.901674021e-05
6.795489258e-05
6.689716067e-05
6.584233088e-05
6.478536879e-05
6.37243295e-05
6.265585496e-05
6.157694175e-05
6.04854939e-05
5.937919594e-05
5.825560386e-05
5.711305649e-05
5.594948213e-05
5.476405339e-05
5.355506104e-05
5.23216012e-05
5.106378674e-05
4.978243922e-05
4.847617668e-05
4.714713367e-05
4.58045667e-05
4.445780782e-05
4.310429172e-05
4.171558459e-05
4.025419345e-05
3.870934601e-05
3.710729206e-05
3.54816782e-05
3.38449785e-05
3.220383052e-05
3.057070073e-05
2.894444238e-05
2.727412973e-05
2.552638018e-05
2.376429204e-05
2.202618681e-05
2.03285243e-05
1.867253566e-05
1.700275478e-05
1.541965716e-05
1.37541274e-05
1.182930492e-05
1.345939486e-05
1.510610799e-05
1.688859678e-05
1.867005671e-05
)


101
(
1.937024012e-06
9.346471521e-06
1.755302979e-05
2.58485743e-05
3.394324138e-05
4.173753881e-05
4.91951247e-05
5.627053182e-05
6.29702091e-05
6.929494944e-05
7.524338971e-05
8.081888473e-05
8.603364913e-05
9.088686713e-05
9.539627055e-05
9.957354602e-05
0.0001034198343
0.0001069225108
0.0001100818709
0.0001128377682
0.0001151556338
0.0001169911575
0.0001182833424
0.0001189934415
0.0001191137592
0.0001186687693
0.0001177093057
0.0001163067274
0.0001145463369
0.0001125164895
0.0001103037315
0.0001079845538
0.0001056179871
0.0001032714414
0.0001009739286
9.876192762e-05
9.667591352e-05
9.475032902e-05
9.297807454e-05
9.131169712e-05
8.970104288e-05
8.81185977e-05
8.656848719e-05
8.506023977e-05
8.360360938e-05
8.220787931e-05
8.087138121e-05
7.959086507e-05
7.835804013e-05
7.7167549e-05
7.60126843e-05
7.488938152e-05
7.379355495e-05
7.272135576e-05
7.166869301e-05
7.063172151e-05
6.960852759e-05
6.859336344e-05
6.758532011e-05
6.657887168e-05
6.557186018e-05
6.456175417e-05
6.354496903e-05
6.251967757e-05
6.1483515e-05
6.043348785e-05
5.936749698e-05
5.828348724e-05
5.717999804e-05
5.605618804e-05
5.490921249e-05
5.373871223e-05
5.254520602e-05
5.132853817e-05
5.008809816e-05
4.882607726e-05
4.754936102e-05
4.626510317e-05
4.496522307e-05
4.362198579e-05
4.220254622e-05
4.070597173e-05
3.916285159e-05
3.759965199e-05
3.602257818e-05
3.443907128e-05
3.28564686e-05
3.125855137e-05
2.95958849e-05
2.788166287e-05
2.616906045e-05
2.448782805e-05
2.28422061e-05
2.119639197e-05
1.96100079e-05
1.794758832e-05
1.600635672e-05
1.802672785e-05
2.007953603e-05
2.238420665e-05
2.469780546e-05
)


101
(
1.934684591e-06
9.26525087e-06
1.738564938e-05
2.559760201e-05
3.361235863e-05
4.133004313e-05
4.871541166e-05
5.572407316e-05
6.23626282e-05
6.86326825e-05
7.453425434e-05
8.007073604e-05
8.525453642e-05
9.008522079e-05
9.458045631e-05
9.875244949e-05
0.000102604266
0.0001061269325
0.0001093227751
0.0001121406401
0.0001145497805
0.0001165070935
0.000117956155
0.000118856483
0.0001191906776
0.0001189709663
0.000118236148
0.0001170463848
0.0001154779224
0.0001136131223
0.0001115355423
0.0001093216512
0.0001070332458
0.0001047403444
0.0001024744839
0.00010027377
9.817521089e-05
9.621409946e-05
9.440353178e-05
9.271963076e-05
9.111786919e-05
8.955997499e-05
8.803601691e-05
8.65468387e-05
8.510061018e-05
8.370995071e-05
8.237789681e-05
8.110489634e-05
7.988391263e-05
7.870922943e-05
7.757369716e-05
7.647273288e-05
7.540230082e-05
7.435884567e-05
7.33387586e-05
7.233780035e-05
7.135403352e-05
7.038209784e-05
6.94210921e-05
6.846580679e-05
6.751397844e-05
6.656289237e-05
6.56089825e-05
6.464994921e-05
6.36839921e-05
6.270808732e-05
6.171949265e-05
6.071603063e-05
5.969576991e-05
5.865754799e-05
5.759929744e-05
5.651922494e-05
5.541686118e-05
5.429221702e-05
5.314476762e-05
5.197400772e-05
5.078262425e-05
4.957598295e-05
4.835653228e-05
4.711415335e-05
4.581800981e-05
4.444395989e-05
4.30016546e-05
4.152335437e-05
4.002480973e-05
3.851083438e-05
3.698662825e-05
3.545256598e-05
3.387793622e-05
3.223605848e-05
3.056707117e-05
2.891703798e-05
2.72980018e-05
2.568745055e-05
2.411530948e-05
2.24578694e-05
2.052851383e-05
2.298642523e-05
2.548452662e-05
2.827769825e-05
3.107611831e-05
)


101
(
1.932345168e-06
9.184027373e-06
1.721824997e-05
2.534652005e-05
3.32812539e-05
4.092219894e-05
4.823513776e-05
5.517671257e-05
6.175373054e-05
6.796855114e-05
7.382251012e-05
7.931915682e-05
8.44710618e-05
8.927811831e-05
9.375792531e-05
9.792305152e-05
0.000101778124
0.0001053173058
0.0001085451033
0.0001114177333
0.0001139091956
0.0001159783627
0.0001175725948
0.0001186514352
0.0001191904727
0.0001191911605
0.0001186807701
0.0001177083412
0.0001163405012
0.0001146526783
0.0001127242866
0.0001106306134
0.0001084351143
0.0001062100466
0.0001039898586
0.0001018143606
9.971880097e-05
9.773767683e-05
9.589562674e-05
9.41886587e-05
9.258497715e-05
9.104497344e-05
8.954864332e-05
8.808607627e-05
8.665956125e-05
8.52817062e-05
8.395907461e-05
8.269648205e-05
8.148969516e-05
8.033364206e-05
7.922084348e-05
7.814596381e-05
7.710495571e-05
7.609432584e-05
7.511068806e-05
7.414994828e-05
7.321014008e-05
7.228547277e-05
7.137539286e-05
7.047473127e-05
6.958135568e-05
6.86926834e-05
6.780505885e-05
6.691592743e-05
6.602311925e-05
6.512395894e-05
6.421518047e-05
6.329509412e-05
6.236084017e-05
6.141089539e-05
6.044368467e-05
5.945628373e-05
5.844766369e-05
5.741718402e-05
5.636486797e-05
5.528915685e-05
5.419100575e-05
5.307214613e-05
5.193599454e-05
5.078291029e-05
4.959538053e-05
4.834445328e-05
4.701729685e-05
4.563416284e-05
4.422137331e-05
4.278759321e-05
4.133415022e-05
3.98664628e-05
3.837189862e-05
3.681644114e-05
3.520963546e-05
3.36040283e-05
3.201939662e-05
3.045239153e-05
2.890481765e-05
2.728064054e-05
2.540249395e-05
2.830586701e-05
3.12607335e-05
3.455909459e-05
3.78654441e-05
)


101
(
1.930005747e-06
9.102801205e-06
1.705083215e-05
2.509533144e-05
3.294993501e-05
4.05140227e-05
4.775433461e-05
5.462850152e-05
6.114358394e-05
6.73026373e-05
7.310824491e-05
7.856421123e-05
8.368324712e-05
8.846552106e-05
9.292855285e-05
9.708514174e-05
0.0001009411549
0.0001044934143
0.0001077486252
0.0001106691034
0.0001132339935
0.0001154048562
0.0001171324284
0.000118377432
0.0001191107735
0.0001193248739
0.0001190363289
0.0001182833503
0.0001171226431
0.0001156219472
0.000113855478
0.0001118961942
0.0001098080924
0.0001076649664
0.0001055043505
0.0001033679953
0.0001012906053
9.930540648e-05
9.744298571e-05
9.571415353e-05
9.410197889e-05
9.257281598e-05
9.110249912e-05
8.967179887e-05
8.827469492e-05
8.692022228e-05
8.561608571e-05
8.437093984e-05
8.318443044e-05
8.205319998e-05
8.096976134e-05
7.99285321e-05
7.892511788e-05
7.795537628e-05
7.70166992e-05
7.610519107e-05
7.521812069e-05
7.434959197e-05
7.349927727e-05
7.26618239e-05
7.183513192e-05
7.10166825e-05
7.020218769e-05
6.938985317e-05
6.857694805e-05
6.776106625e-05
6.693852251e-05
6.610683991e-05
6.526316743e-05
6.440455909e-05
6.353113065e-05
6.263897709e-05
6.172803757e-05
6.07953826e-05
5.983999808e-05
5.886113602e-05
5.785895704e-05
5.683322761e-05
5.578516025e-05
5.471757408e-05
5.362536684e-05
5.248603065e-05
5.127717957e-05
4.999720843e-05
4.867415279e-05
4.732239538e-05
4.594632751e-05
4.454780034e-05
4.312604165e-05
4.165630839e-05
4.011959661e-05
3.856586854e-05
3.702582228e-05
3.55047977e-05
3.399306611e-05
3.241067463e-05
3.057905815e-05
3.395366609e-05
3.738701583e-05
4.119207056e-05
4.50119611e-05
)


101
(
1.927666324e-06
9.021572391e-06
1.688339616e-05
2.484403856e-05
3.261840853e-05
4.010552859e-05
4.72730296e-05
5.407948433e-05
6.053224537e-05
6.663500719e-05
7.239152508e-05
7.780593669e-05
8.289108022e-05
8.764734842e-05
9.209216553e-05
9.623845174e-05
0.0001000930334
0.0001036549543
0.0001069330427
0.0001098946925
0.0001125242517
0.0001147865443
0.000116635528
0.0001180338768
0.0001189497601
0.000119368389
0.0001192968153
0.0001187629674
0.0001178135829
0.0001165081759
0.0001149148546
0.0001131031509
0.0001111364906
0.0001090892983
0.0001070020896
0.0001049188097
0.0001028746473
0.0001009017807
9.903333738e-05
9.729002867e-05
9.566867757e-05
9.414579318e-05
9.269925943e-05
9.130430056e-05
8.994652995e-05
8.862868562e-05
8.735658154e-05
8.614111463e-05
8.498554939e-05
8.38893681e-05
8.284621202e-05
8.185051795e-05
8.089702543e-05
7.998108584e-05
7.910004196e-05
7.824976819e-05
7.742833999e-05
7.662796408e-05
7.584957355e-05
7.508733561e-05
7.433841424e-05
7.360099992e-05
7.28699273e-05
7.214369621e-05
7.141930227e-05
7.069404283e-05
6.996461511e-05
6.922731626e-05
6.84796503e-05
6.771843966e-05
6.694338008e-05
6.615069669e-05
6.53387983e-05
6.450580215e-05
6.364991116e-05
6.276980933e-05
6.186421104e-05
6.09335002e-05
5.997774601e-05
5.899693555e-05
5.799116545e-05
5.695055302e-05
5.58520038e-05
5.467974365e-05
5.344804472e-05
5.217848956e-05
5.088051919e-05
4.955221827e-05
4.819812131e-05
4.680583512e-05
4.534205188e-05
4.384515518e-05
4.235247503e-05
4.087576451e-05
3.940477662e-05
3.786800048e-05
3.610685445e-05
3.995200426e-05
4.385552867e-05
4.811299804e-05
5.237973512e-05
)


101
(
1.925326903e-06
8.940341177e-06
1.671594266e-05
2.45926443e-05
3.228668135e-05
3.969673036e-05
4.679124838e-05
5.352970154e-05
5.991976479e-05
6.596571622e-05
7.167240245e-05
7.704435357e-05
8.209452798e-05
8.682349457e-05
9.124856141e-05
9.538267877e-05
9.923338946e-05
0.0001028015636
0.0001060980114
0.0001090943678
0.0001117800203
0.0001141234594
0.0001160818713
0.000117620413
0.0001187060885
0.0001193186788
0.0001194570285
0.0001191395724
0.0001184032992
0.000117299191
0.0001158885332
0.0001142364466
0.0001124046842
0.0001104672729
0.000108467409
0.0001064513232
0.000104455549
0.0001025118955
0.0001006542177
9.890915781e-05
9.728458553e-05
9.576844114e-05
9.43453145e-05
9.298966829e-05
9.168091328e-05
9.041442629e-05
8.919117969e-05
8.802167289e-05
8.691163121e-05
8.586406467e-05
8.487465294e-05
8.393847102e-05
8.304946463e-05
8.220212778e-05
8.139230196e-05
8.061724466e-05
7.987533176e-05
7.915716896e-05
7.846372825e-05
7.778916871e-05
7.712983816e-05
7.648375212e-05
7.584668696e-05
7.521582716e-05
7.458787328e-05
7.395995853e-05
7.33305888e-05
7.269415801e-05
7.204868259e-05
7.138960461e-05
7.071650277e-05
7.002595998e-05
6.931658592e-05
6.85856651e-05
6.783104014e-05
6.704998697e-05
6.624143349e-05
6.540633378e-05
6.454330148e-05
6.365137357e-05
6.273020073e-05
6.177809685e-05
6.077836233e-05
5.971047633e-05
5.857211998e-05
5.738323863e-05
5.616029802e-05
5.490195372e-05
5.361156576e-05
5.229003395e-05
5.08966515e-05
4.945764981e-05
4.801283172e-05
4.657858012e-05
4.515128339e-05
4.36586649e-05
4.19657863e-05
4.626425295e-05
5.06073638e-05
5.521654048e-05
5.982628102e-05
)


101
(
1.922987481e-06
8.85910763e-06
1.654847188e-05
2.434115078e-05
3.195475908e-05
3.928763958e-05
4.630901279e-05
5.297918765e-05
5.93061838e-05
6.529480846e-05
7.095091486e-05
7.627946682e-05
8.129354018e-05
8.599383512e-05
9.039751957e-05
9.451749864e-05
9.836182522e-05
0.0001019328423
0.0001052431556
0.0001082679436
0.0001110013288
0.0001134156962
0.0001154715383
0.0001171368983
0.0001183788347
0.00011917337
0.0001195126003
0.0001194064589
0.0001188826469
0.0001179835634
0.0001167631797
0.0001152813958
0.0001135972878
0.0001117833476
0.0001098850039
0.0001079506494
0.0001060187777
0.0001041216996
0.0001022933826
0.0001005635337
9.894783328e-05
9.744473781e-05
9.6047981e-05
9.473572532e-05
9.348470814e-05
9.228367763e-05
9.112677647e-05
9.002129886e-05
8.897367651e-05
8.798993524e-05
8.706827417e-05
8.620506442e-05
8.539427051e-05
8.462923077e-05
8.390440704e-05
8.321847823e-05
8.25679431e-05
8.194428909e-05
8.134676634e-05
8.077086469e-05
8.021184477e-05
7.966670817e-05
7.913181489e-05
7.860390448e-05
7.808010968e-05
7.755636617e-05
7.703103095e-05
7.650037233e-05
7.596102587e-05
7.540801419e-05
7.484026814e-05
7.425431655e-05
7.364893915e-05
7.302112618e-05
7.236842346e-05
7.168712119e-05
7.097593897e-05
7.023610011e-05
6.946435777e-05
6.866135886e-05
6.782512278e-05
6.695543778e-05
6.604440154e-05
6.507305099e-05
6.40267155e-05
6.29175637e-05
6.176603037e-05
6.057628505e-05
5.934729749e-05
5.808698969e-05
5.675993593e-05
5.537773134e-05
5.397837481e-05
5.258484029e-05
5.120029459e-05
4.975550237e-05
4.813297516e-05
5.280969486e-05
5.751094384e-05
6.235206977e-05
6.718252639e-05
)


101
(
1.92064806e-06
8.777871886e-06
1.638098419e-05
2.408956016e-05
3.162264709e-05
3.887826693e-05
4.582634263e-05
5.242797339e-05
5.869153835e-05
6.462232057e-05
7.02270914e-05
7.551127275e-05
8.048805827e-05
8.515823805e-05
8.953881346e-05
9.3642582e-05
9.747793326e-05
0.0001010483711
0.0001043680859
0.0001074151981
0.0001101881957
0.0001126634209
0.0001148047571
0.0001165834653
0.0001179675973
0.0001189308969
0.0001194601738
0.0001195580254
0.0001192435684
0.0001185508403
0.000117526256
0.0001162238767
0.0001146992471
0.0001130222357
0.0001112398728
0.000109402352
0.0001075504112
0.0001057176349
0.0001039381724
0.0001022431258
0.0001006529788
9.917449057e-05
9.781078195e-05
9.654670281e-05
9.536016859e-05
9.423579898e-05
9.316084911e-05
9.213704651e-05
9.11688154e-05
9.026399839e-05
8.942325126e-05
8.864496956e-05
8.792379057e-05
8.725250933e-05
8.662466334e-05
8.603782774e-05
8.548883596e-05
8.496868802e-05
8.447635838e-05
8.400699602e-05
8.355609867e-05
8.311939431e-05
8.269338801e-05
8.227432254e-05
8.185929877e-05
8.144521493e-05
8.10282725e-05
8.060579956e-05
8.017496373e-05
7.972969835e-05
7.926902029e-05
7.878897483e-05
7.828763193e-05
7.77626429e-05
7.721155208e-05
7.663028511e-05
7.601571917e-05
7.536893676e-05
7.468755801e-05
7.39713497e-05
7.321802443e-05
7.242721149e-05
7.159610537e-05
7.071066423e-05
6.975209477e-05
6.872144779e-05
6.763685511e-05
6.651033894e-05
6.533927712e-05
6.413264923e-05
6.286367662e-05
6.153527061e-05
6.017919832e-05
5.882198502e-05
5.747626081e-05
5.607779777e-05
5.452224822e-05
5.947533423e-05
6.442658376e-05
6.936248658e-05
7.429004676e-05
)


101
(
1.918308639e-06
8.696634091e-06
1.621347989e-05
2.383787444e-05
3.129035027e-05
3.846862197e-05
4.53432555e-05
5.187608584e-05
5.807585896e-05
6.394828211e-05
6.950095461e-05
7.473976222e-05
7.967802036e-05
8.431657177e-05
8.867222151e-05
9.275760754e-05
9.658130839e-05
0.0001001477183
0.0001034723953
0.0001065358792
0.0001093406358
0.0001118668814
0.0001140819419
0.0001159605318
0.000117472422
0.0001185903746
0.0001192973233
0.0001195897855
0.0001194791943
0.0001189917211
0.0001181662443
0.0001170505865
0.0001156960742
0.0001141689466
0.0001125171087
0.0001107919314
0.0001090362915
0.0001072855251
0.0001055743442
0.0001039345432
0.0001023890977
0.0001009503795
9.962958611e-05
9.841950243e-05
9.730233315e-05
9.626188946e-05
9.528025366e-05
9.435262752e-05
9.347916835e-05
9.266734102e-05
9.191897824e-05
9.123512883e-05
9.061238424e-05
9.004323379e-05
8.952043413e-05
8.904001784e-05
8.860007819e-05
8.819017581e-05
8.780974135e-05
8.745250747e-05
8.711498157e-05
8.679141485e-05
8.64783544e-05
8.61720705e-05
8.5869744e-05
8.556761612e-05
8.526146407e-05
8.494879177e-05
8.462628466e-05
8.428931096e-05
8.393554193e-05
8.35610102e-05
8.316280657e-05
8.273889237e-05
8.228718633e-05
8.180352669e-05
8.128364909e-05
8.07277598e-05
8.013276591e-05
7.949971555e-05
7.882568949e-05
7.810966891e-05
7.735050984e-05
7.653989567e-05
7.565995346e-05
7.470299502e-05
7.368044744e-05
7.260980524e-05
7.148993081e-05
7.032973326e-05
6.910809887e-05
6.782604292e-05
6.650835611e-05
6.518146236e-05
6.386694667e-05
6.250882956e-05
6.101471484e-05
6.612051146e-05
7.119568048e-05
7.609800789e-05
8.097980293e-05
)


101
(
1.915969216e-06
8.61539434e-06
1.604595917e-05
2.358609526e-05
3.095787281e-05
3.805871296e-05
4.48597666e-05
5.13235484e-05
5.745917137e-05
6.327271657e-05
6.877252174e-05
7.396492296e-05
7.886336434e-05
8.346870923e-05
8.779753282e-05
9.186226995e-05
9.567156036e-05
9.923045587e-05
0.0001025556762
0.0001056297078
0.0001084586441
0.0001110263685
0.0001133036365
0.0001152687562
0.0001168937562
0.0001181515355
0.0001190224942
0.0001194983819
0.0001195839905
0.0001192983022
0.0001186729126
0.0001177492663
0.0001165739869
0.0001152087681
0.000113701571
0.0001121041358
0.0001104610323
0.0001088094671
0.000107185089
0.0001056201561
0.0001041388236
0.0001027567946
0.0001014911213
0.0001003420396
9.929790166e-05
9.834495927e-05
9.74629852e-05
9.664131589e-05
9.587447089e-05
9.516705892e-05
9.452094263e-05
9.393932524e-05
9.342112764e-05
9.295948658e-05
9.254704263e-05
9.217849473e-05
9.185179831e-05
9.155657858e-05
9.129135579e-05
9.104969228e-05
9.082827697e-05
9.062054962e-05
9.042234216e-05
9.023057933e-05
9.004233934e-05
8.985293734e-05
8.965859049e-05
8.94554014e-05
8.924106857e-05
8.901070204e-05
8.876177465e-05
8.849023871e-05
8.819276347e-05
8.78668921e-05
8.751080613e-05
8.712061255e-05
8.669145239e-05
8.622191459e-05
8.570848618e-05
8.515273857e-05
8.455189177e-05
8.390432951e-05
8.320931479e-05
8.246207221e-05
8.164824659e-05
8.075586533e-05
7.978813139e-05
7.87644651e-05
7.768566763e-05
7.656167874e-05
7.537560658e-05
7.412808315e-05
7.283943533e-05
7.153412852e-05
7.023925613e-05
6.89111591e-05
6.746781415e-05
7.260106942e-05
7.767858634e-05
8.245364229e-05
8.716180097e-05
)


101
(
1.913629794e-06
8.534152865e-06
1.587842242e-05
2.333422448e-05
3.062521894e-05
3.764854777e-05
4.437589005e-05
5.077038241e-05
5.684149855e-05
6.259564384e-05
6.804180658e-05
7.31867445e-05
7.804403344e-05
8.261453288e-05
8.691455124e-05
9.095628346e-05
9.474832709e-05
9.829618727e-05
0.0001016175636
0.00010469649
0.0001075423022
0.0001101422739
0.0001124704918
0.0001145089862
0.0001162324028
0.000117614678
0.0001186349558
0.0001192815456
0.0001195537226
0.0001194640834
0.000119037358
0.0001183087246
0.0001173198642
0.0001161270597
0.0001147775286
0.0001133224241
0.0001118073172
0.0001102710447
0.0001087503568
0.0001072780475
0.0001058789474
0.0001045703027
0.0001033728123
0.0001022928381
0.0001013253571
0.000100461093
9.968046985e-05
9.896944827e-05
9.831668804e-05
9.772207084e-05
9.718619678e-05
9.671302927e-05
9.630332127e-05
9.595216655e-05
9.565271023e-05
9.539859156e-05
9.518713118e-05
9.50082708e-05
9.485982496e-05
9.473494312e-05
9.462996962e-05
9.453863684e-05
9.445584018e-05
9.437860472e-05
9.430372438e-05
9.422626161e-05
9.414244313e-05
9.404784521e-05
9.393974852e-05
9.381319337e-05
9.366578455e-05
9.349324471e-05
9.329213875e-05
9.30596731e-05
9.279390834e-05
9.249129425e-05
9.214658934e-05
9.175740592e-05
9.131903469e-05
9.083296157e-05
9.029728611e-05
8.970989192e-05
8.906986725e-05
8.837408478e-05
8.761245956e-05
8.677228767e-05
8.584866626e-05
8.486112256e-05
8.381150715e-05
8.271052146e-05
8.154649008e-05
8.031895785e-05
7.904557553e-05
7.774983236e-05
7.645996421e-05
7.514795565e-05
7.373946485e-05
7.879054296e-05
8.376969559e-05
8.837441355e-05
9.29693854e-05
)


101
(
1.911290374e-06
8.452909967e-06
1.571087014e-05
2.308226398e-05
3.029239274e-05
3.723813372e-05
4.389163869e-05
5.021660718e-05
5.62228608e-05
6.191708041e-05
6.73088202e-05
7.240521956e-05
7.721997881e-05
8.175393696e-05
8.602309846e-05
9.003938534e-05
9.381127861e-05
9.73445621e-05
0.0001006577464
0.0001037361149
0.0001065917651
0.0001092150837
0.0001115832839
0.0001136822689
0.0001154895165
0.0001169806725
0.0001181348192
0.0001189381042
0.0001193854155
0.0001194838929
0.000119252017
0.0001187189268
0.0001179212583
0.0001169092257
0.0001157285122
0.0001144287239
0.0001130556047
0.0001116491224
0.000110246997
0.0001088826561
0.0001075813851
0.0001063612411
0.0001052448174
0.0001042426378
0.000103355586
0.0001025799906
0.0001018995071
0.0001012992991
0.0001007634254
0.0001002866366
9.986661172e-05
9.950645747e-05
9.920788975e-05
9.896844514e-05
9.878219673e-05
9.864257053e-05
9.854636865e-05
9.848346649e-05
9.845127288e-05
9.84425019e-05
9.845323882e-05
9.847704265e-05
9.85085465e-05
9.854408209e-05
9.858022188e-05
9.861246178e-05
9.863652303e-05
9.864768274e-05
9.864254128e-05
9.861607102e-05
9.856588317e-05
9.848727216e-05
9.837694616e-05
9.82317163e-05
9.804955761e-05
9.782727829e-05
9.755958915e-05
9.724326175e-05
9.687221386e-05
9.644727936e-05
9.596708281e-05
9.543001719e-05
9.483508505e-05
9.417862942e-05
9.345483268e-05
9.265254467e-05
9.176059511e-05
9.079618529e-05
8.976333091e-05
8.867136107e-05
8.751354661e-05
8.629117419e-05
8.501653211e-05
8.371590321e-05
8.241542911e-05
8.110160057e-05
7.970457075e-05
8.460460333e-05
8.942600022e-05
9.385807476e-05
9.826394821e-05
)


101
(
1.908950952e-06
8.371665593e-06
1.554330271e-05
2.283021439e-05
2.99593964e-05
3.68274755e-05
4.340702172e-05
4.96622374e-05
5.560327363e-05
6.123703737e-05
6.657356783e-05
7.162034034e-05
7.63911571e-05
8.088682732e-05
8.512301655e-05
8.911134152e-05
9.286011873e-05
9.637526213e-05
9.967593328e-05
0.0001027484962
0.0001056072005
0.0001082453144
0.0001106429008
0.0001127898525
0.0001146666393
0.0001162510514
0.0001175230996
0.000118467981
0.00011907733
0.000119353843
0.0001193105617
0.0001189709115
0.0001183664162
0.0001175407937
0.0001165375074
0.000115403708
0.0001141844529
0.0001129201609
0.0001116491276
0.0001104053684
0.0001092147411
0.0001080958877
0.0001070719581
0.0001061561057
0.0001053538288
0.0001046668992
0.0001040836579
0.0001035908886
0.0001031706942
0.0001028130821
0.0001025116274
0.0001022672663
0.0001020815476
0.0001019537741
0.0001018796518
0.0001018529917
0.0001018702393
0.0001019211383
0.0001020029848
0.0001021081024
0.0001022322239
0.0001023685655
0.0001025115876
0.0001026567928
0.000102800697
0.0001029386051
0.0001030664821
0.0001031792631
0.0001032728516
0.0001033417848
0.0001033836017
0.0001033932879
0.0001033673604
0.0001033024774
0.0001031965406
0.0001030464585
0.0001028470132
0.0001025954959
0.0001022837093
0.0001019111163
0.0001014763592
0.0001009796989
0.0001004191378
9.979082092e-05
9.909136173e-05
9.831288738e-05
9.74404377e-05
9.648610048e-05
9.54576321e-05
9.436184765e-05
9.31941489e-05
9.196296214e-05
9.067189364e-05
8.935052182e-05
8.802579553e-05
8.669258839e-05
8.528606552e-05
9.000875197e-05
9.465595907e-05
9.895172251e-05
0.0001032197235
)


101
(
1.906611529e-06
8.290420068e-06
1.537571996e-05
2.25780773e-05
2.962623324e-05
3.641657886e-05
4.292204919e-05
4.910728835e-05
5.498275435e-05