/*--------------------------------*- C++ -*----------------------------------*\
| =========                 |                                                 |
| \\      /  F ield         | OpenFOAM: The Open Source CFD Toolbox           |
|  \\    /   O peration     | Version:  2.3.1                                 |
|   \\  /    A nd           | Web:      www.OpenFOAM.org                      |
|    \\/     M anipulation  |                                                 |
\*---------------------------------------------------------------------------*/
FoamFile
{
    version     2.0;
    format      ascii;
    class       dictionary;
    location    "constant";
    object      la_i5;
}
// * * * * * * * * * * * * * * * * * * * * * * * * * * * * * * * * * * * * * //

la_i5_table
101
(

101
(
0
0
0
0
0
0
0
0
0
0
0
0
0
0
0
0
0
0
0
0
0
0
0
0
0
0
0
0
0
0
0
0
0
0
0
0
0
0
0
0
0
0
0
0
0
0
0
0
0
0
0
0
0
0
0
0
0
0
0
0
0
0
0
0
0
0
0
0
0
0
0
0
0
0
0
0
0
0
0
0
0
0
0
0
0
0
0
0
0
0
0
0
0
0
0
0
0
0
0
0
3.283916944e-08
)


101
(
0
1.069619962
7.567812141
21.71573179
42.53754794
68.03597215
95.99616109
124.2727476
150.9939303
174.9262931
194.7879562
209.8436237
219.6819597
224.0666613
223.1738045
217.4292632
207.4739416
194.2607786
178.649997
161.8526729
144.6136647
127.4835398
111.3232098
96.43350647
82.91511982
70.84007252
60.21129549
50.95115507
42.98938664
36.18496534
30.40805334
25.50785508
21.28631904
17.81522535
14.89284618
12.40725664
10.75955235
9.977661927
8.756268207
7.398501962
6.204847978
5.184599408
4.33178482
3.620376019
3.019573476
2.516615906
2.093554234
1.739309583
1.441965936
1.193347249
0.9853996232
0.811826502
0.6670730968
0.5454711636
0.4441554252
0.3602525419
0.2917460224
0.2353404666
0.1891744628
0.1514448436
0.120824426
0.09590729159
0.07552753404
0.05891007599
0.04562378933
0.03517972992
0.02690569294
0.02041925386
0.01534380329
0.01140194081
0.008368129525
0.006065118668
0.004359939493
0.00307140068
0.002194905923
0.001590679736
0.001096108506
0.0007280929873
0.000477171028
0.0003056052162
0.0001892117195
0.000112683675
6.605917417e-05
3.841745612e-05
2.186989604e-05
1.190025429e-05
6.548034214e-06
3.412027845e-06
1.561824218e-06
7.424492178e-07
3.29353014e-07
1.286910734e-07
6.371129784e-08
2.359808406e-08
9.213769556e-09
2.85971502e-09
6.143059596e-10
1.201194947e-09
2.24515683e-09
5.659644982e-09
1.053632127e-08
)


101
(
0
1.04116607
7.32885578
20.96350463
40.96386674
65.3523069
91.95522602
118.6936145
143.8061146
166.1223099
184.4988658
198.2651895
207.1030442
210.8500257
209.7329211
204.1705084
194.7661817
182.3978301
167.8889102
152.2381708
136.2356161
120.3633484
105.3001246
91.4052392
78.79512776
67.51605325
57.571987
48.89990223
41.41978186
35.01481815
29.56525574
24.9415214
20.9780461
17.65517208
14.83756583
12.43312279
10.64109541
9.43879918
8.328957716
7.179913079
6.102563685
5.153559793
4.352171779
3.679142665
3.108652032
2.627441887
2.221141725
1.876695068
1.584791966
1.336802241
1.126346637
0.9479928763
0.7975222876
0.6699422492
0.5612666266
0.4688717187
0.390506291
0.3246125177
0.2691558275
0.2225704414
0.1837459074
0.1512317828
0.1238196573
0.1008604656
0.08170173431
0.06581485513
0.05262726162
0.04181390379
0.03306809268
0.02588232561
0.02003278567
0.01527131175
0.01158136845
0.008683958225
0.006426742199
0.004692670591
0.003355353925
0.002357043833
0.001642131463
0.0011299895
0.0007607064035
0.0004953167239
0.0003199524803
0.0001993294197
0.000120157541
6.945807148e-05
3.921913677e-05
2.336250121e-05
1.32755632e-05
6.666411736e-06
3.421594072e-06
1.776431539e-06
9.318707335e-07
4.681966347e-07
2.19801608e-07
8.853015665e-08
2.085392243e-08
6.133906755e-08
1.477570229e-07
5.439468488e-07
1.354510403e-06
)


101
(
0
1.014254801
7.096808777
20.23702859
39.45491123
62.79914109
88.15174155
113.5017058
137.2001995
158.1395009
175.3096873
188.0947404
196.2512317
199.6714264
198.6140246
193.4800942
184.8316076
173.4604801
160.1300077
145.7000563
130.9250077
116.2510506
102.2428376
89.25286879
77.42404576
66.80667188
57.40195824
49.16023712
42.0122801
35.8565549
30.58531959
26.08932114
22.22488867
18.95301698
16.14143036
13.66495135
11.79225643
10.32512599
9.087491077
7.956124258
6.898801024
5.944329013
5.118769713
4.411182746
3.803047466
3.282745658
2.836474436
2.453304644
2.122038109
1.83522181
1.58553161
1.368754571
1.181518351
1.019549439
0.8786827601
0.7565425192
0.6492315071
0.5560707746
0.4751816374
0.4047820007
0.3444189982
0.2925515742
0.2476552825
0.2089257884
0.1754254916
0.1463750665
0.121418699
0.09995797863
0.08208483204
0.06702797905
0.05423492536
0.043357989
0.03439642419
0.02705916835
0.02106993105
0.01620963284
0.01224536391
0.009088441382
0.006666014376
0.004863806343
0.003505359329
0.002446683066
0.001681759201
0.001134735646
0.0007473335476
0.0004717363352
0.0002887799466
0.0001754234342
0.000107729637
6.339823944e-05
3.46146835e-05
1.888765587e-05
9.873149342e-06
5.498233328e-06
2.875448608e-06
1.305524946e-06
4.121340867e-07
1.701689642e-06
4.661450162e-06
1.938814919e-05
4.047191896e-05
)


101
(
0
0.9870472915
6.87150143
19.53523846
38.0068278
60.36985841
84.56822227
108.6642055
131.1192303
150.8901975
167.0880695
179.1458933
186.8732224
190.209811
189.4278734
184.9039573
177.150809
166.8771902
154.7789273
141.5953442
128.0336337
114.5126734
101.5026186
89.34998897
78.20951312
68.147823
59.16968999
51.2442924
44.31597694
38.29781726
33.09274549
28.6157576
24.74025499
21.42735069
18.56301866
16.04894154
13.96672661
12.26817279
10.84205023
9.591856968
8.457332285
7.431112721
6.52916131
5.740275517
5.048416157
4.44533516
3.918477958
3.458061506
3.052976747
2.697237046
2.381115898
2.100139523
1.851556251
1.632402587
1.438037236
1.265133283
1.111834098
0.975346607
0.854100958
0.7449514167
0.6487525974
0.5645281831
0.4900611775
0.4246521832
0.3668807619
0.315042235
0.269173048
0.2286974678
0.1935682958
0.1633928799
0.1367593532
0.1136044435
0.09362750539
0.07669146724
0.06234106899
0.05026737941
0.03994184071
0.03132495958
0.02419171012
0.01854809103
0.01415291384
0.01057138853
0.007746970521
0.005605197033
0.003994393203
0.002746135451
0.001836064343
0.001209880849
0.0007866295944
0.0005025454844
0.0003034616675
0.0001806335855
0.0001064352066
5.983333977e-05
3.410640164e-05
1.668354921e-05
6.160069476e-06
2.866567366e-05
8.627624517e-05
0.0004035143502
0.0008788490779
)


101
(
0
0.9609069224
6.652934396
18.85722201
36.61668087
58.0568666
81.18873463
104.1508292
125.5120931
144.2940083
159.7162217
171.2569765
178.7637103
182.2135246
181.874653
178.0967942
171.3403238
162.2331453
151.3968287
139.4776246
127.1085772
114.6925891
102.6502084
91.28133557
80.76070236
71.1751956
62.54126776
54.84747399
48.05968787
42.10222358
36.8951164
32.35373954
28.37425262
24.95511131
21.96424088
19.33049694
17.06249677
15.13785912
13.49294192
12.05490938
10.77107497
9.613745873
8.58809698
7.68154232
6.872413316
6.15283102
5.512406795
4.945760833
4.441528349
3.991532764
3.585373908
3.217685697
2.886012551
2.588399721
2.320876421
2.077914974
1.859028471
1.661480479
1.48418077
1.321059185
1.172756749
1.041147145
0.9221888597
0.8160205845
0.7211830816
0.6347958838
0.5565033186
0.4855647117
0.4214558608
0.3657219682
0.3153413738
0.2703899995
0.2302245095
0.1949930026
0.164089696
0.1372762002
0.114036241
0.09379561232
0.07587953597
0.06081307615
0.04847759762
0.03845930496
0.02995863222
0.02302985028
0.01749906507
0.01302942593
0.009438017253
0.006747243736
0.004763007902
0.003279077626
0.002218548971
0.001422819114
0.0009287289071
0.0005863843121
0.0003584747075
0.0001902745924
8.095357463e-05
0.000462739624
0.001252996106
0.004574565301
0.009157491872
)


101
(
0
0.9362266913
6.44071227
18.2021291
35.28171181
55.853263
77.99841172
99.93452065
120.3334862
138.2805528
153.0941559
164.2909245
171.7472948
175.4614934
175.6917989
172.7599888
167.0738045
159.1770823
149.6177152
138.96737
127.781574
116.4404411
105.3288163
94.7096438
84.76903787
75.61608815
67.28269123
59.76826494
53.06118211
47.11198621
41.85422715
37.21343274
33.09583419
29.50094997
26.33091819
23.52901913
21.06291618
18.90587159
17.02427471
15.37083676
13.88861536
12.55145989
11.36189604
10.30274201
9.349793833
8.48826907
7.707447988
7.008624386
6.38122979
5.815196517
5.30060762
4.82692278
4.392097214
3.996555158
3.637638943
3.306537369
3.002403807
2.724990746
2.472422383
2.238207654
2.022341801
1.826746477
1.647402326
1.483470178
1.335032741
1.198869257
1.073531946
0.9582314731
0.8513672835
0.7547239399
0.6669300501
0.5872569178
0.5145848649
0.448801866
0.3892425096
0.3356493027
0.2883387243
0.2461113268
0.2077293562
0.1736493473
0.1439764278
0.1191196838
0.09768367576
0.07903119447
0.06338176472
0.05015473507
0.03897183466
0.02975518321
0.02259999124
0.01678815948
0.01224935648
0.008707461646
0.006139263044
0.004257191101
0.002852833569
0.001776669544
0.0008850211343
0.00412554125
0.01026496198
0.03154056948
0.06057058231
)


101
(
0
0.9112697915
6.234750105
17.56912577
33.99928897
53.75244726
74.9839048
95.99044645
115.5428018
132.7874608
147.1335516
158.1301634
165.670894
169.7708652
170.6674718
168.6536348
164.0870498
157.4328496
149.1665514
139.782465
129.7775058
119.499333
109.2993703
99.42054169
90.04259102
81.29732417
73.23503605
65.87421973
59.22461821
53.25432251
47.91795605
43.14676958
38.85584016
35.07441735
31.69209611
28.679663
25.99272672
23.60560163
21.49209663
19.59991271
17.8953526
16.34106348
14.94816278
13.70515935
12.5829725
11.56233766
10.62430783
9.771325616
8.997728059
8.293373812
7.650147135
7.05325624
6.500286262
5.989833021
5.521789819
5.086230559
4.681098526
4.305489682
3.959812142
3.635925771
3.333496822
3.055520488
2.797751744
2.55964025
2.339936928
2.136323007
1.946242445
1.770635327
1.605647051
1.452382831
1.31082075
1.179211722
1.057378603
0.9448816431
0.8413576774
0.7450771557
0.6572813711
0.5773856291
0.5042052455
0.4372519527
0.376154299
0.3214885032
0.2742001299
0.2313343703
0.1935425735
0.1607905376
0.1315609774
0.1064414279
0.08534253389
0.0675860203
0.05212970704
0.04003988058
0.03056245469
0.02288273507
0.01679100554
0.01174039685
0.006795295037
0.02452336729
0.05513830557
0.1421684648
0.2738573889
)


101
(
0
0.8872751556
6.034977227
16.95742384
32.76699142
51.7482812
72.13298161
92.2968725
111.1035894
127.7593809
141.7564778
152.6707133
160.4095432
164.9923794
166.6291906
165.5860997
162.1730359
156.7815335
149.8116714
141.7103102
132.8771135
123.643708
114.3616456
105.2244202
96.40200182
88.05769293
80.26641186
73.05744671
66.45874477
60.46142166
55.04102889
50.1451802
45.68650092
41.69493325
38.08850539
34.84327819
31.92500486
29.29912573
26.94283568
24.81527191
22.88183689
21.09244245
19.47557415
18.01785612
16.69883658
15.49880771
14.38983123
13.37043017
12.43831195
11.58172211
10.78826214
10.04975525
9.365007927
8.724319567
8.131960713
7.580206763
7.058596153
6.568698875
6.114528254
5.686093987
5.2817538
4.905261791
4.550012741
4.219828981
3.911774976
3.624074056
3.353203406
3.098838862
2.858196286
2.628804277
2.414311858
2.210935238
2.021926306
1.844798871
1.678509
1.52178588
1.373980705
1.235008363
1.105483535
0.984812785
0.874388906
0.7704075644
0.6769710354
0.5907247275
0.5109488574
0.4394297201
0.3747841683
0.3179549746
0.2660706626
0.220617005
0.1796950231
0.1470119517
0.118066579
0.09362891905
0.073144511
0.05419012764
0.03648699745
0.1043605875
0.2113691728
0.4499918233
0.8373798948
)


101
(
0
0.8645691923
5.841033685
16.36621025
31.58238948
49.83533863
69.43439398
88.83390666
106.9833257
123.1473779
136.8956629
147.8264326
155.8504265
160.9863457
163.4222814
163.3896161
161.1518424
157.0342643
151.3707482
144.5430239
136.9011727
128.7379329
120.3649724
111.9775761
103.7325979
95.81056717
86.94074526
81.27004893
74.73512564
68.71804521
63.21613661
58.19421265
53.57788999
49.39945446
45.57106478
42.08689391
38.91799679
36.04645264
33.46701705
31.10836328
28.93762198
26.9178584
25.05873012
23.36556508
21.83285605
20.44167652
19.15446872
17.96165782
16.85972621
15.83858883
14.8889968
14.00240859
13.1712152
12.39238478
11.66743528
10.98284131
10.33713257
9.719740977
9.145001239
8.60066836
8.081509492
7.594218032
7.128890883
6.692140749
6.280796252
5.89159921
5.522152781
5.169663047
4.834352564
4.513769406
4.209889883
3.917940968
3.637599793
3.371470791
3.120817034
2.884663425
2.656546909
2.435281162
2.224985074
2.023952854
1.836775099
1.661622729
1.494032951
1.339624745
1.189952058
1.052664498
0.9261854547
0.8119598333
0.7047509264
0.6026700249
0.5111324987
0.4335704915
0.3638324946
0.3025145017
0.2505577106
0.1971699025
0.142413399
0.3426669261
0.6300267364
1.129048012
1.546302798
)


101
(
0
0.8417186899
5.652924044
15.79484435
30.44340612
48.00837648
66.87757489
85.58299005
103.1527695
118.9091886
132.4910197
143.5181365
151.8978615
157.6459799
160.9242415
161.9265589
160.8763434
158.042223
153.6880098
148.1474134
141.7073069
134.6216195
127.1904692
119.5907326
111.957149
104.4840958
97.30144345
90.4625221
84.02140688
78.00613929
72.43682146
67.30463925
62.54069649
58.19789003
54.16346458
50.44996311
47.04873182
43.94759274
41.13640975
38.55789584
36.16942602
33.92953555
31.83216391
29.90617792
28.14256014
26.54568653
25.076072
23.71592008
22.43734641
21.24876796
20.13866952
19.10247994
18.13009713
17.20826393
16.33904779
15.52034386
14.74765797
14.00100577
13.29950605
12.63505821
11.99395854
11.38502129
10.80204953
10.24821078
9.72077185
9.215293336
8.736010001
8.271123774
7.826811606
7.397735041
6.986982485
6.587798991
6.199160627
5.821412007
5.460284588
5.116908047
4.786802874
4.462304543
4.142066347
3.830739943
3.535005165
3.259493716
2.986203722
2.727078398
2.475889295
2.239865121
2.016059511
1.803188898
1.60615147
1.414047723
1.231637325
1.079142976
0.9349285212
0.8019634495
0.6874951445
0.5736534796
0.4524057529
0.8781720732
1.47391239
2.422439385
3.847821496
)


101
(
0
0.8197105837
5.470420426
15.24257202
29.3479232
46.26242742
64.4528588
82.52735279
99.58576737
115.0052727
128.4905169
139.6781733
148.4703883
154.8736497
159.025132
161.078306
161.223825
159.6751269
156.6295467
152.3924063
147.1688563
141.1906232
134.73629
127.9568978
120.9895243
114.0233427
107.2034302
100.6080978
94.30084284
88.32229043
82.71233272
77.49086415
72.61371261
68.12675523
63.92605131
60.01654193
56.39639379
53.05915224
50.0315219
47.26238986
44.6693486
42.22201896
39.92519032
37.77717724
35.79835186
34.00432755
32.34751056
30.81048505
29.37526867
28.02614916
26.76068589
25.576654
24.46501806
23.41001791
22.40093453
21.45941558
20.56042084
19.68867323
18.85779101
18.07486503
17.31602208
16.58484407
15.87904585
15.19960961
14.55177668
13.92686673
13.32424839
12.73853302
12.17023125
11.61682222
11.08433842
10.56286806
10.04743551
9.534348859
9.032251732
8.547651803
8.086497516
7.636785953
7.173952987
6.717251046
6.2762478
5.860086815
5.448301647
5.040765279
4.64156678
4.267676771
3.905907202
3.552475701
3.210348923
2.89618965
2.575184049
2.305333403
2.041899511
1.804833406
1.580737373
1.357001689
1.116402442
1.952848286
3.023650973
4.365015757
5.624217204
)


101
(
0
0.7987644778
5.293370785
14.70875193
28.29397902
44.59289929
62.15115971
79.65142081
96.2583436
111.4024335
124.8479626
136.2480075
145.4937553
152.587243
157.6329784
160.7459575
162.0884886
161.8217197
160.0981847
157.1598494
153.1821899
148.3580978
142.9168603
137.0072154
130.7614673
124.3620736
117.9604932
111.6597566
105.5434451
99.66021955
94.06197448
88.77871673
83.79656229
79.22216916
74.9001282
70.83422143
67.02806693
63.49964158
60.27087149
57.30770753
54.54532617
51.93934007
49.48075133
47.14731752
44.96980048
42.97583234
41.14986944
39.46717379
37.87771904
36.38976549
34.98823572
33.67518246
32.44143111
31.26504332
30.14111235
29.08442772
28.0736192
27.08859042
26.14105872
25.24276419
24.3748651
23.52909485
22.70392795
21.89811944
21.12101082
20.37639943
19.64947993
18.93444932
18.23143797
17.53344199
16.85933806
16.19817001
15.53217839
14.85811548
14.18393634
13.52122221
12.8823178
12.26375329
11.62980656
10.98649236
10.34749906
9.736309147
9.140788327
8.531964584
7.930637221
7.371253399
6.821932549
6.280425641
5.725653646
5.233376507
4.754111402
4.309121738
3.86109035
3.468961476
3.105416391
2.729676787
2.324528752
3.586995217
5.106824608
6.786945122
8.938831556
)


101
(
0
0.7778654348
5.121642454
14.1927348
27.27971862
42.99545694
59.96396822
76.9407737
93.15009724
108.0708218
121.5218175
133.1746704
142.9068176
150.7100803
156.6607553
160.8435484
163.38055
164.3981902
163.992453
162.38374
159.662174
156.0044958
151.6323258
146.648746
141.1833873
135.4111413
129.5018849
123.5756826
117.7261104
112.004931
106.4727641
101.1951722
96.18525574
91.53918174
87.13608004
82.97141461
79.04360279
75.34979117
71.92497651
68.81044065
65.92565985
63.18745306
60.61360524
58.14957164
55.81865984
53.67169388
51.68782341
49.86429884
48.17932285
46.58764219
45.06909183
43.64922655
42.32380671
41.06241179
39.84657045
38.69237818
37.60079311
36.52578817
35.48711922
34.48997964
33.52934448
32.57799181
31.6389166
30.70989885
29.80479099
28.92895567
28.06599201
27.21475908
26.35453918
25.49333794
24.64720754
23.81742677
22.96789185
22.09627987
21.2105056
20.31805046
19.43860379
18.59139703
17.72267484
16.84258297
15.94674748
15.07036082
14.21819477
13.34866573
12.47140031
11.65317563
10.86109809
10.06515866
9.25525473
8.508967251
7.814480466
7.149095176
6.471771596
5.867531471
5.314286855
4.743050103
4.084727062
5.725588123
7.563808474
9.406810614
12.14657685
)


101
(
0
0.7576834712
4.955074576
13.69388738
26.30336068
41.46603139
57.88343104
74.38237708
90.24112333
104.9839169
118.4754926
130.4128032
140.6539088
149.1804359
156.0430368
161.2957353
165.0256339
167.3248141
168.2447132
167.9707121
166.5288669
164.0834388
160.8168111
156.8120285
152.1948691
147.1336004
141.7983807
136.3171238
130.8103803
125.3343957
119.9553615
114.739173
109.7305917
105.1009571
100.6736415
96.47258461
92.46981097
88.67580991
85.13497894
81.8893138
78.90037684
76.10733448
73.4733736
70.95585134
68.53106954
66.25543608
64.16085412
62.25076346
60.47579068
58.83792809
57.26493029
55.76340006
54.38635257
53.07470841
51.80980002
50.60427945
49.46623266
48.34004009
47.23497583
46.16151645
45.12687773
44.08781178
43.03742595
41.98858309
40.95286326
39.92280837
38.91032897
37.88751023
36.85506551
35.79284907
34.72303266
33.6689554
32.58153892
31.45491317
30.30052762
29.11634047
27.92731866
26.74771399
25.55284925
24.35662053
23.12640932
21.89439218
20.6903612
19.48550783
18.24220028
17.05375005
15.95175953
14.81903787
13.69903577
12.6290632
11.6457927
10.68533112
9.768057374
8.88140737
8.10719318
7.273763641
6.349699861
8.280291195
10.25232723
12.21155993
11.07057162
)


101
(
0
0.738266905
4.794261408
13.2116177
25.36320045
40.00079189
55.90222764
71.96370154
87.51414439
102.1178824
115.6775832
127.9218707
138.6866806
147.942916
155.7205476
162.039415
166.9557406
170.534137
172.7841019
173.8545606
173.7112052
172.4979071
170.3859975
167.4270389
163.740453
159.4695004
154.7876788
149.8317225
144.7456827
139.6044973
134.4769552
129.4307769
124.5097159
119.9239727
115.5371072
111.359715
107.3627833
103.5304548
99.93127911
96.64400143
93.62554172
90.80494749
88.17393825
85.66197899
83.24570847
80.95232575
78.79164583
76.81323017
75.02583464
73.3724753
71.80191717
70.3064545
68.91008258
67.59574733
66.33247606
65.1181707
63.97287607
62.84308432
61.70928307
60.58836571
59.48275894
58.37199462
57.21816387
56.05219862
54.87220947
53.66127044
52.45215295
51.22168212
49.96843948
48.64853083
47.28359574
45.92233447
44.50369305
43.03268538
41.52115682
39.95826377
38.3669944
36.74046656
35.10031114
33.45220145
31.78777917
30.11192528
28.42513365
26.77365308
25.10644964
23.42245179
21.87583613
20.34288795
18.81297842
17.34424998
15.99660515
14.64189898
13.4474321
12.25543703
11.19770646
10.10284096
8.928210846
10.96684679
12.99749499
15.56615713
21.06984872
)


101
(
0
0.7191611447
4.636314886
12.74538818
24.45767537
38.59617196
54.013579
69.67358352
84.95288755
99.45137952
113.1006152
125.6653173
136.9636488
146.9512875
155.6401913
163.0170858
169.1166565
173.9658119
177.5374652
179.9603568
181.1297587
181.1799116
180.2825144
178.4250624
175.7497658
172.3722878
168.4405963
164.0993838
159.5184596
154.8023024
150.0269049
145.2529074
140.503001
136.0514824
131.7702299
127.6805865
123.7557892
120.0104352
116.4761005
113.1779236
110.1806208
107.3891369
104.8290235
102.4308406
100.1179293
97.88220987
95.7571215
93.80587819
92.02304897
90.43147874
88.94732929
87.51526937
86.17117171
84.90656479
83.69769846
82.51754942
81.39656494
80.29806673
79.17667509
78.03559902
76.88238841
75.70338091
74.45290315
73.16234724
71.79433011
70.38731955
68.92679168
67.41681895
65.86115427
64.19669349
62.45510635
60.67279593
58.81130619
56.86641698
54.86460514
52.81834537
50.70018048
48.54085032
46.30443605
44.04965543
41.8228476
39.59275795
37.29798959
35.05069999
32.85646227
30.61647057
28.47067828
26.44374191
24.42563834
22.4689377
20.6776841
18.87429952
17.29917018
15.77765148
14.38753829
12.98960711
11.47242432
13.83697161
16.32219275
20.42466231
25.06594667
)


101
(
0
0.7006474026
4.485015898
12.29458503
23.58519514
37.24875559
52.21122389
67.50168056
82.54308747
96.96497397
110.7203731
123.6120514
135.447169
146.1629431
155.7578491
164.1869853
171.4520964
177.5664931
182.4599462
186.2154792
188.7228401
190.081163
190.4342834
189.7555645
188.1648269
185.7752149
182.6923125
179.0565335
175.0754084
170.8795998
166.5609117
162.155903
157.6990031
153.4620946
149.3494561
145.4506826
141.7374136
138.1444839
134.7229703
131.5635692
128.6768344
126.0002954
123.5737833
121.3317638
119.2080259
117.1885198
115.215076
113.3780347
111.6977345
110.2113096
108.8829166
107.6295174
106.4128755
105.2625761
104.1543674
103.0543893
102.0139254
100.9648575
99.87143166
98.72862754
97.54662279
96.29040583
94.94126199
93.50316244
91.92306875
90.26538419
88.48109582
86.60732441
84.65525121
82.57366268
80.35468769
78.02625329
75.59473308
73.03144902
70.36970787
67.69014716
64.97154736
62.15926924
59.22346664
56.23488207
53.29710507
50.35836966
47.38996619
44.4045719
41.54314357
38.69420225
35.8557203
33.19138161
30.6307403
28.10266395
25.79155603
23.49857604
21.452837
19.55198121
17.78634505
16.02343467
14.17298929
17.46549812
21.35629548
28.46156669
33.97468819
)


101
(
0
0.6826622157
4.337714665
11.85869408
22.74433134
35.95541235
50.48910825
65.43839432
80.26927345
94.63957367
108.5162161
121.7363336
134.106154
145.5427953
156.0305811
165.4999264
173.9181502
181.2811639
187.4945595
192.5904066
196.4506651
199.1395723
200.7957335
201.3485021
200.9068563
199.5935231
197.4800622
194.6703958
191.388091
187.8015572
184.03291
180.1118623
176.0490316
172.1840531
168.3368013
164.7016836
161.2445652
157.9285415
154.8054617
151.8761706
149.1756359
146.7207563
144.4682208
142.4710495
140.6579327
138.9305869
137.2633654
135.6795457
134.1975771
132.9219775
131.8166322
130.8031248
129.8213865
128.8558664
127.9185842
126.9680958
126.0399265
125.0589398
124.0239425
122.9159915
121.6649684
120.3384703
118.8684882
117.2406969
115.4105614
113.4377862
111.2717327
108.9564011
106.5141046
103.9242353
101.1104117
98.15534006
95.06406157
91.77206924
88.323654
84.8589572
81.38728735
77.83709833
74.1673847
70.39282221
66.61593376
62.84050062
59.13361677
55.36074364
51.65633166
48.15409414
44.64222596
41.2051262
38.03005288
34.89028516
31.94994505
29.14747566
26.56975084
24.1838685
22.01764141
19.84857389
17.63977475
23.04347878
29.83611163
41.79721127
58.80540332
)


101
(
0
0.6651103786
4.196603781
11.43719668
21.93369806
34.71265763
48.84213353
63.47493796
78.11896628
92.45771888
106.4685136
120.0125518
132.9123746
145.0589024
156.424406
166.9147994
176.4679899
185.0615206
192.5821918
199.0322349
204.2700789
208.3130363
211.3001047
213.1400485
213.9259582
213.7764473
212.7351836
210.86474
208.3917276
205.5188363
202.397073
199.0467928
195.5409414
192.1283449
188.6782447
185.3803822
182.346728
179.4125811
176.6326211
174.0562972
171.7187475
169.5623647
167.6375314
165.975005
164.4835189
163.214057
161.9632685
160.7817425
159.6685631
158.6881652
157.8725467
157.2057926
156.5536781
155.8615575
155.1336162
154.3937482
153.6495998
152.7744998
151.799638
150.6878898
149.4161749
148.0070721
146.3874777
144.534763
142.4293151
140.0927713
137.5015774
134.6883861
131.6846658
128.4876099
125.0284049
121.4020464
117.5820312
113.517811
109.2451006
104.9086161
100.579137
96.24374194
91.80750988
87.26443663
82.6635664
77.99694453
73.4918651
68.92900556
64.36077496
60.06809679
55.94410145
51.6997924
47.81867774
44.06931098
40.41755546
37.0072093
33.89727282
30.95174797
28.34265819
25.73293103
23.17978317
32.29060772
43.87702681
62.81181779
87.3548929
)


101
(
0
0.6495509495
4.055015227
11.02957556
21.15195322
33.51914924
47.26525179
61.60318412
76.07989008
90.40337484
104.5585543
118.4224823
131.84057
144.6822766
156.903851
168.3956123
179.0632046
188.8697507
197.6868335
205.4869217
212.1130337
217.5615764
221.9172374
225.0920166
227.1548072
228.2313517
228.3597744
227.5538489
226.0257928
223.9758803
221.5750806
218.955053
216.0684076
213.2468276
210.3720741
207.5292606
204.9498477
202.4932556
200.2480493
198.195037
196.3174602
194.580677
193.1299582
191.8610902
190.8373794
190.0516731
189.3963589
188.7933649
188.1635567
187.6248826
187.1858714
186.9223902
186.6986568
186.3832795
185.9687252
185.4659088
184.9326744
184.2111993
183.3192324
182.2365464
180.9169421
179.4195069
177.645535
175.5580654
173.1942044
170.4706032
167.4488533
164.1353875
160.5451555
156.7473565
152.6632619
148.3489086
143.8155733
139.0387746
134.0146865
128.8497714
123.6535098
118.5024326
113.298338
108.0402267
102.7687842
97.25654018
91.91835416
86.6329647
81.26523057
76.10841753
71.38196749
66.37337205
61.68814252
57.31436544
52.92005249
48.85768285
45.10552171
41.57242241
38.45182595
35.42465719
32.57871843
47.30004008
65.91349498
94.32678231
126.9892787
)


101
(
0
0.6294696863
3.922198991
10.63538226
20.39789641
32.37100272
45.7538356
59.81559459
74.14080915
88.46183505
102.7682509
116.9484019
130.8700418
144.3858633
157.43987
169.9087903
181.669232
192.6615839
202.7621811
211.9120512
219.9480262
226.8271627
232.5855066
237.1452335
240.5418805
242.9010112
244.2913426
244.6788358
244.2153921
243.1022222
241.5463159
239.7023995
237.6150421
235.5379382
233.2857245
231.0647933
229.0222803
227.2491461
225.5571224
224.1129682
222.8658434
221.786533
220.935465
220.2192186
219.7507882
219.53161
219.5677131
219.6113139
219.717681
219.7496433
219.8204884
219.9993797
220.301523
220.4651897
220.44764
220.2955925
220.0154927
219.510918
218.7294696
217.6896227
216.3806458
214.8047267
212.9142689
210.6115411
208.0237694
204.982168
201.5797324
197.8314814
193.7537027
189.4255661
184.7873412
179.8864822
174.764764
169.4240239
163.8347242
158.0362644
152.0653008
146.1532696
140.2954811
134.3888479
128.5636816
122.3522325
116.213734
110.2779212
104.2853102
98.32901146
92.91406952
87.2289826
81.6722356
76.63344065
71.46729455
66.76827424
62.2397136
58.05537716
54.35783802
50.9786669
47.90273708
70.38569531
98.60385079
139.6084209
186.7882616
)


101
(
0
0.6157533569
3.792010964
10.25409472
19.67029372
31.26613966
44.30335566
58.10531045
72.2918713
86.61966231
101.0811481
115.5736043
129.9783051
144.1461602
158.0059691
171.4254237
184.2547762
196.4102429
207.7650767
218.2607725
227.7167733
236.0424387
243.2400731
249.2325457
254.0108818
257.7325411
260.4478577
262.1198641
262.8392982
262.7866416
262.2017463
261.3108211
260.076774
258.8545045
257.403122
255.9329333
254.5726594
253.455066
252.5180881
251.8605694
251.4077688
251.0886337
250.9475624
251.0126732
251.2056248
251.6856802
252.3899117
253.3323209
254.1978055
255.0285588
255.7696269
256.4868919
257.3317978
258.053686
258.5877296
258.8758897
258.9761208
258.7536282
258.1981715
257.2931958
256.0248152
254.4488949
252.5626923
250.1718687
247.4097604
244.1884645
240.5395188
236.5244465
232.1634823
227.5020375
222.4946344
217.1763034
211.6523662
205.9704876
200.0805814
193.9482332
187.4876468
181.0199682
174.6497478
168.2153374
161.9055137
155.2056212
148.385975
141.8785534
135.4017606
128.8838163
122.694487
116.4198485
110.001759
104.2589731
98.29409721
93.01972396
87.57131651
82.70920911
78.33356381
74.65824648
71.40488279
104.1851492
145.0818808
202.4480938
374.8925016
)


101
(
0
0.5990749195
3.665775978
9.885286141
18.96799846
30.20163837
42.91028753
56.46601148
70.52392038
84.86501505
99.48213609
114.2801741
129.1490651
143.943001
158.5786584
172.9185816
186.7897214
200.0839176
212.6745074
224.4932428
235.3588491
245.1520573
253.8156089
261.2841728
267.5298182
272.6714788
276.7849203
279.8178146
281.825798
282.9717434
283.4787117
283.5801293
283.3821489
283.1329059
282.619487
281.9808148
281.4672666
281.1561517
281.0605876
281.2615401
281.716148
282.3441132
283.1749354
284.1837685
285.232997
286.4631616
287.9552666
289.7537015
291.602942
293.4051193
294.9510182
296.3996859
297.8031848
299.1507445
300.3019712
301.234973
301.882634
302.0675123
301.8864109
301.281076
300.1971223
298.7636968
296.9805681
294.7229405
292.0012628
288.8280707
285.1642504
281.1343607
276.7777163
272.0957396
267.0233891
261.5972219
255.9688206
250.1943793
244.2406557
238.0493949
231.5030889
224.8331851
218.2028927
211.4959832
204.8247005
197.7837287
190.5402269
183.5657067
176.8058968
170.0439012
163.0991027
156.3185265
149.1542371
142.7132296
135.9741089
130.1571088
123.7495888
118.1938641
112.9712241
109.0206215
105.6799549
151.8378882
208.9995731
287.2361847
133.5985842
)


101
(
0
0.5372449889
3.543391978
9.528515166
18.28996922
29.17792071
41.57017392
54.89193447
68.82923279
83.18679986
97.95743187
113.0526856
128.3655495
143.7575659
159.1372064
174.3633857
189.2457908
203.6603029
217.4593565
230.5774369
242.8409175
254.085666
264.2300426
273.2161215
280.9887735
287.6130665
293.1796429
297.638649
301.0360696
303.5050048
305.2347519
306.469583
307.3425096
308.1880011
308.7777768
309.1750888
309.5851691
310.1644195
311.0069511
312.2352963
313.7780944
315.4904937
317.3933636
319.4570053
321.5735362
323.8085198
326.2139935
328.8637977
331.8271006
334.6435433