/*--------------------------------*- C++ -*----------------------------------*\
| =========                 |                                                 |
| \\      /  F ield         | OpenFOAM: The Open Source CFD Toolbox           |
|  \\    /   O peration     | Version:  2.3.1                                 |
|   \\  /    A nd           | Web:      www.OpenFOAM.org                      |
|    \\/     M anipulation  |                                                 |
\*---------------------------------------------------------------------------*/
FoamFile
{
    version     2.0;
    format      ascii;
    class       dictionary;
    location    "constant";
    object      la_i11;
}
// * * * * * * * * * * * * * * * * * * * * * * * * * * * * * * * * * * * * * //

la_i11_table
101
(

101
(
0
0
0
0
0
0
0
0
0
0
0
0
0
0
0
0
0
0
0
0
0
0
0
0
0
0
0
0
0
0
0
0
0
0
0
0
0
0
0
0
0
0
0
0
0
0
0
0
0
0
0
0
0
0
0
0
0
0
0
0
0
0
0
0
0
0
0
0
0
0
0
0
0
0
0
0
0
0
0
0
0
0
0
0
0
0
0
0
0
0
0
0
0
0
0
0
0
0
0
0
0.2471977117
)


101
(
0
0.4649984931
0.8802200657
0.5376348773
-0.7004048822
-2.576727802
-4.703773172
-6.778435867
-8.367672311
-9.343294962
-9.475723586
-8.714595027
-7.054188399
-4.630330039
-1.504121448
2.178934199
6.208603538
10.29287554
14.4447186
18.18647004
21.61653257
24.77280339
27.42580289
29.711271
31.79497962
33.74046701
35.59471794
37.38601929
39.08331008
40.66868719
42.10629183
43.39313182
44.57870198
45.54239696
46.39013934
47.08822189
47.80775942
48.60866028
48.91342776
48.855541
48.65277271
48.36106468
47.91679375
47.32913727
46.644654
45.89554537
45.12127912
44.31407983
43.476736
42.6081855
41.72332758
40.82444293
39.90905911
38.97119989
38.0149832
37.04544971
36.05751701
35.06435199
34.05047131
33.01845008
31.96249837
30.88395935
29.78044815
28.64814823
27.48834645
26.3059519
25.10625119
23.89491855
22.66977452
21.42645974
20.1588139
18.89410186
17.72323606
16.75361939
15.91128256
14.7004698
13.00000247
11.66381255
10.82949264
9.831213761
8.615589683
7.464230066
6.76029939
6.369786797
4.633790288
3.990660809
3.71913324
2.913319574
2.304485448
2.310619067
1.238411276
1.021960729
0.8658162491
0.4286591563
0.3065325197
0.1121618791
0.04232160311
0.04998174368
0.05751808922
0.06853203752
0.07931260462
)


101
(
0
0.4669170567
0.8849983361
0.6060784014
-0.4885327994
-2.140917559
-3.972952667
-5.691421593
-6.912231789
-7.514035086
-7.324192028
-6.307558142
-4.493419383
-2.035049291
0.9702128089
4.381580101
8.000018902
11.5568147
15.0470522
18.11088048
20.80106554
23.18067609
25.11709415
26.70717806
28.10526133
29.4114891
30.67385488
31.92596478
33.14646641
34.30943134
35.36957306
36.30649328
37.16779456
37.89959561
38.59837967
39.21334935
39.73699475
40.20040925
40.37619808
40.27209564
40.07369152
39.8688276
39.5725072
39.11942877
38.52399091
37.84787956
37.16269751
36.47137178
35.76828826
35.03570595
34.28684873
33.52876806
32.76521545
31.9864958
31.18586597
30.36628175
29.52948187
28.69423569
27.8503577
26.99814646
26.13277659
25.25459982
24.36236633
23.45384704
22.52718
21.58303915
20.62568288
19.66496547
18.7070734
17.74538493
16.75379116
15.71392304
14.68492453
13.86255967
13.40474027
12.88286227
11.56921536
10.00644958
9.192736824
8.693335739
7.863104222
6.846435723
6.073868634
5.868256052
5.258493151
3.860399924
3.375072269
3.132771523
2.453913365
2.001186276
1.851985201
1.087352372
1.001761137
0.7873169912
0.4191671427
0.2709963375
0.1511591903
0.1712186048
0.1906586991
0.2088357813
0.2279395371
)


101
(
0
0.4694743497
0.888772691
0.6677861132
-0.2973126525
-1.752702547
-3.333769203
-4.76202375
-5.701379171
-6.04176071
-5.659791365
-4.533847599
-2.718674843
-0.3764740092
2.375026388
5.403078781
8.530114511
11.51664506
14.35169567
16.75829828
18.77582733
20.48890927
21.80958357
22.84272455
23.71296952
24.54235191
25.38746243
26.28432073
27.21787054
28.1570557
29.04812131
29.84709105
30.57900689
31.22271284
31.90099479
32.59023184
33.20040192
33.66587843
33.83824579
33.75220363
33.60056273
33.52422806
33.4500847
33.24513646
32.85396542
32.32100102
31.74947125
31.18674554
30.627838
30.04399552
29.4315532
28.79976575
28.16079873
27.51114467
26.83954682
26.14560796
25.42225339
24.69539414
23.9627065
23.22455811
22.4793317
21.72633726
20.96449119
20.19389795
19.41399073
18.62381022
17.82560698
17.02231405
16.22829614
15.45001375
14.67229408
13.85238906
12.96961904
12.12300005
11.58344775
11.36809391
10.78717041
9.509748365
8.372765155
7.881493664
7.468667349
6.724157049
5.904905197
5.368228047
5.173017143
4.564660591
3.390500961
3.147362506
2.825417722
2.357384571
2.065241245
1.704835267
1.188903416
1.024437999
0.6665539827
0.5046359983
0.3909074393
0.4105688171
0.4256426569
0.4240594923
0.4077769864
)


101
(
0
0.4713478132
0.8915951286
0.7228238426
-0.1261604419
-1.409419403
-2.779370519
-3.975153297
-4.707101114
-4.87853904
-4.408811573
-3.287868378
-1.5844096
0.5332060214
2.940238309
5.515777969
8.106323127
10.50694966
12.70739315
14.49561166
15.90478497
17.0298708
17.83558333
18.4070561
18.86698197
19.33207066
19.87951458
20.54260092
21.31206561
22.15494051
23.01218134
23.81765671
24.56663716
25.22983143
25.96478432
26.79453164
27.62097528
28.29464034
28.64042074
28.67231381
28.59338429
28.63195447
28.78944168
28.90306
28.82337969
28.53323405
28.13692745
27.72409023
27.32586445
26.92087215
26.47907429
25.99895241
25.49562213
24.97781111
24.43693086
23.8644183
23.26022157
22.63686763
22.00037469
21.34478857
20.67969234
20.00771041
19.32258019
18.62925733
17.92775223
17.21264363
16.49541637
15.77277741
15.050978
14.34561345
13.65374222
12.96432461
12.22913468
11.43514394
10.72882342
10.34819784
10.08794026
9.390709832
8.278594749
7.445687608
7.107805507
6.700410243
6.015756945
5.353121873
4.949398025
4.69090132
4.040476456
3.24400228
3.040055896
2.632138432
2.231022566
2.002163203
1.568221603
1.337471214
1.016845081
0.7985827593
0.6047264042
0.5830576654
0.5738355061
0.7582878944
0.9963482948
)


101
(
0
0.4735663587
0.8935843232
0.771625617
0.02641523626
-1.10710547
-2.301074967
-3.314047449
-3.900642743
-3.978268166
-3.503451395
-2.474393702
-0.9682884048
0.8484732611
2.849735473
4.930700822
6.96439929
8.77947843
10.37092933
11.57755315
12.44009898
13.04928729
13.40316665
13.58992471
13.72401142
13.91082203
14.24305779
14.7530244
15.43158383
16.25594433
17.16048567
18.06856698
18.93854022
19.7162517
20.55831725
21.54342392
22.63829885
23.66018903
24.35406983
24.64167436
24.72126086
24.88535351
25.25584871
25.72220465
26.06265913
26.15696381
26.06239784
25.90202579
25.75667489
25.6243911
25.46336819
25.24972449
24.98973014
24.70224553
24.38910598
24.02623999
23.61812433
23.17709803
22.71880242
22.19840721
21.62733835
21.05684596
20.43265804
19.79008661
19.13210483
18.43185568
17.71576306
16.98226389
16.21559254
15.47915303
14.71597853
13.96943336
13.21149746
12.41345048
11.57669335
10.87852222
10.42867224
9.969455571
9.115627156
8.037395397
7.335699897
7.019502551
6.500237268
5.824069445
5.248418437
4.855067769
4.446290762
3.818891138
3.349130538
3.029085146
2.658154545
2.276543932
1.972218008
1.7113432
1.367633778
1.070396073
0.8569068914
1.054716256
1.25207623
1.273443997
1.232325025
)


101
(
0
0.4764329764
0.8947471015
0.8146176192
0.1618405616
-0.8420878092
-1.89089597
-2.763729682
-3.256731798
-3.301206543
-2.886276783
-2.01466214
-0.7672159849
0.6968361859
2.25615523
3.820949911
5.292764488
6.533217649
7.550877836
8.213440158
8.578084303
8.73540896
8.693660548
8.559388677
8.42575488
8.390269038
8.54977922
8.952136821
9.58972834
10.43706617
11.43319516
12.49728326
13.56515807
14.5407153
15.55227194
16.72249478
18.09327352
19.51635236
20.69855371
21.45358529
21.87495824
22.28442455
22.93267264
23.82920168
24.75640728
25.48418913
25.97116568
26.33875685
26.71059164
27.11549667
27.53388966
27.87857195
28.14027874
28.34483192
28.52607869
28.60207137
28.56582948
28.48077434
28.32802906
28.05315008
27.67591998
27.25755799
26.71792773
26.0741278
25.38435738
24.60920118
23.7640252
22.8728662
21.90281381
20.91735029
19.89024688
18.8562454
17.81100377
16.75588324
15.64540675
14.53518983
13.58880685
12.81263031
11.95167277
10.76409905
9.526478697
8.786985179
8.199790332
7.421649579
6.630999127
5.973915893
5.431686768
4.854547972
4.122339053
3.757145651
3.329698876
2.916791719
2.493201207
2.148946477
1.757009407
1.562218056
1.323816832
1.485848556
1.675107187
1.912506386
2.20548259
)


101
(
0
0.4786679449
0.895180668
0.8522103368
0.2814492616
-0.6109830284
-1.541792969
-2.311056551
-2.753267873
-2.813170773
-2.508000708
-1.8426498
-0.8958954646
0.1823372053
1.280644979
2.323701995
3.239364585
3.924484912
4.395245661
4.558240224
4.466502567
4.209707506
3.823862707
3.406464808
3.044752107
2.827368071
2.851122462
3.171412388
3.788377242
4.682010847
5.794817968
7.049036943
8.365689033
9.618176175
10.88885416
12.30531899
13.98546348
15.87694991
17.7110532
19.19266233
20.2956021
21.26624703
22.45213395
24.02010454
25.82697813
27.58433872
29.10760872
30.44181047
31.73249636
33.02864177
34.35900052
35.55681621
36.62585959
37.5601437
38.3903355
39.02476573
39.45929172
39.72373663
39.83261816
39.71090806
39.38665547
38.95990135
38.34645878
37.56951326
36.6529772
35.59751282
34.39622323
33.15134624
31.79583543
30.38821282
28.92433902
27.39654535
25.84475786
24.29661712
22.74239953
21.14271148
19.60629356
18.22263145
16.97801666
15.62071925
13.994486
12.55238173
11.53122679
10.51186448
9.41313812
8.404182166
7.507496686
6.72696559
5.827468858
5.131619282
4.488187425
3.895579
3.448532117
2.935533375
2.53061628
2.146302046
1.636941767
1.952103091
2.278311987
2.510753093
2.789450455
)


101
(
0
0.4812242687
0.894989131
0.8847878767
0.3864753843
-0.4107316683
-1.247416522
-1.944480145
-2.370894483
-2.484418849
-2.326733153
-1.902415643
-1.28466736
-0.6122327753
0.01797948028
0.5453586727
0.919360515
1.071144782
1.030117453
0.7193190227
0.213139017
-0.4051806179
-1.106685998
-1.778624302
-2.331124196
-2.69919973
-2.791702734
-2.539687776
-1.934037041
-0.9865435487
0.2539052393
1.718062576
3.332432281
4.953353686
6.618370153
8.431375411
10.5561332
13.05124684
15.7433164
18.30292347
20.55899035
22.61042949
24.77777166
27.33795255
30.28568304
33.35208827
36.22938333
38.81805455
41.24802823
43.52720908
45.67706553
47.61324439
49.34965144
50.76349579
51.97993257
52.92833797
53.49040515
53.75945954
53.78472662
53.50647283
52.95131412
52.22027944
51.21841568
50.05041263
48.71030578
47.22250615
45.57562523
43.83110996
41.98532723
40.04021198
38.06827355
36.03110922
34.0141329
32.00362123
29.99999042
27.99128546
25.99555898
24.07425821
22.32136424
20.67024984
18.89389094
16.99785933
15.4216943
14.10271819
12.73135941
11.40292015
10.16273444
9.127190901
8.062363228
7.021535115
6.208440654
5.486295436
4.798969094
4.094078317
3.548648981
3.018256623
2.590080082
2.842106442
3.040490312
2.810259174
2.367573806
)


101
(
0
0.4843664495
0.8941831216
0.9127161873
0.4780874894
-0.2384962656
-1.002011602
-1.653711473
-2.092693616
-2.2892738
-2.306965245
-2.147557091
-1.874875554
-1.615173531
-1.450432481
-1.426307248
-1.573283595
-1.929183956
-2.45092872
-3.198733749
-4.090959561
-5.048583349
-6.028115167
-6.924872839
-7.648426542
-8.150695763
-8.249860889
-8.156076347
-7.551389289
-6.537582875
-5.148117828
-3.431412408
-1.449067083
0.6628793248
2.915887224
5.373234376
8.19813022
11.53517696
15.35297133
19.30517545
23.09256134
26.62658899
30.07864059
33.7511413
37.78205304
41.9975501
46.04366947
49.69283963
52.93492577
55.75626271
58.25943912
60.44237391
62.2776256
63.69547389
64.78422682
65.45012435
65.72219392
65.56109477
65.13316174
64.39962816
63.35579456
62.13044479
60.6391444
58.98658471
57.17446271
55.21129391
53.11113851
50.90652237
48.63991565
46.33149151
44.0109406
41.66068163
39.2978919
36.96204288
34.678315
32.44925058
30.23179295
28.04511821
25.98022555
24.0620022
22.21557825
20.26103168
18.34060041
16.77920558
15.25607648
13.76941981
12.33459915
11.13607395
9.972393362
8.736612171
7.759578505
6.878753693
6.037585232
5.260385805
4.625348577
3.961597564
3.236407253
3.352666701
3.301291474
2.351272781
1.125022146
)


101
(
0
0.4870101795
0.892850947
0.9363339967
0.5573408491
-0.09169014331
-0.8002968774
-1.429383652
-1.903837324
-2.205817143
-2.418194268
-2.537812334
-2.618277457
-2.769467312
-3.060464835
-3.521512859
-4.164150072
-4.998776295
-5.975467817
-7.126996827
-8.376295945
-9.64380021
-10.88135211
-11.99012941
-12.87119461
-13.48479894
-13.76607379
-13.62169616
-13.00429356
-11.89697831
-10.31278375
-8.277024196
-5.813847023
-3.052257463
0.01659204205
3.400590966
7.217647382
11.62924178
16.68276495
22.06395521
27.40837919
32.43200832
37.10659784
41.66009255
46.32485235
51.08959808
55.65284877
59.72194227
63.13239611
65.89644688
68.14919307
69.97870162
71.39343902
72.33883289
72.82370722
72.90886181
72.62119852
71.9009047
70.88582094
69.60446844
68.04291523
66.30669243
64.38918695
62.33325276
60.15088336
57.85127113
55.47358572
53.00666528
50.51871472
48.02335502
45.54270277
43.07332576
40.61836294
38.18695159
35.81017983
33.51563733
31.28436601
29.08645532
26.95618239
24.93867949
23.08191367
21.26230876
19.32372161
17.61842854
16.10099239
14.64610284
13.19099887
11.88816552
10.73229642
9.486943922
8.426059093
7.523599676
6.63656563
5.853112581
5.13966719
4.570745119
3.864439624
3.201848861
2.28214513
0.5491303329
-1.581949615
)


101
(
0
0.489936739
0.8910642796
0.9559666774
0.6252432242
0.03209591995
-0.6374859985
-1.263152923
-1.791298157
-2.215203057
-2.634454152
-3.040284418
-3.473502334
-4.028659805
-4.759545922
-5.682419029
-6.791973707
-8.079270577
-9.473610616
-11.00847753
-12.58854124
-14.13700033
-15.61543233
-16.91414419
-17.94334374
-18.65743136
-19.00062716
-18.87761434
-18.21376992
-16.96228475
-15.10728595
-12.65303162
-9.595568476
-6.023588642
-1.963258832
2.533009987
7.491048619
13.00849755
19.13923556
25.62463772
32.11277945
38.20435338
43.69912569
48.6741226
53.40464724
58.0153465
62.33126857
66.10438243
69.15634003
71.42188097
73.02961826
74.12351449
74.79335176
75.02910602
74.81595991
74.28491539
73.37936632
72.12930721
70.58930993
68.85442678
66.91259133
64.82821687
62.62319365
60.32692231
57.96875957
55.5456005
53.06766385
50.54076663
48.00649821
45.49629712
43.02630937
40.60204775
38.21928045
35.86633314
33.55533542
31.32422375
29.19621687
27.1309327
25.11066179
23.16713904
21.37465963
19.72846954
17.98995818
16.29502795
14.81827755
13.5169115
12.19155855
10.92589774
9.824749305
8.750759161
7.680812695
6.879413684
6.086681348
5.392920166
4.694026964
4.129278846
3.454066915
2.061021401
0.2509549376
-2.519310758
-5.520251013
)


101
(
0
0.4933234504
0.8888524011
0.9719198719
0.6827291473
0.135083094
-0.5091753898
-1.147449951
-1.743602615
-2.301142883
-2.933485916
-3.62671417
-4.406311643
-5.352940394
-6.504937935
-7.862407551
-9.409885452
-11.11744987
-12.90555539
-14.78866732
-16.67592292
-18.49492062
-20.1892579
-21.65883986
-22.81976499
-23.61930448
-23.99148906
-23.84322812
-23.07922527
-21.61628769
-19.40925576
-16.43441554
-12.67998862
-8.242717771
-3.1663964
2.418340829
8.418481139
14.81513196
21.61229502
28.63569959
35.61036128
42.13766069
47.88963476
52.79859891
57.09250913
60.99911039
64.54933056
67.59888711
69.9524407
71.53077767
72.39557907
72.69983419
72.58840699
72.1135573
71.29351535
70.19898666
68.8105099
67.16614012
65.2900682
63.26023769
61.10165715
58.85251474
56.53247464
54.16254836
51.7747113
49.37900574
46.96495021
44.52487272
42.08328114
39.67523708
37.32044245
35.03314668
32.81058873
30.63323744
28.49205355
26.41019294
24.43540356
22.55477568
20.72737942
18.96022114
17.3049562
15.82093973
14.34460369
12.81872145
11.43022957
10.29159604
9.169663702
8.073485861
7.060251995
6.199062158
5.322197399
4.638990051
3.994128646
3.430210139
2.871056017
2.432063977
1.979452278
-0.3951716889
-3.267654635
-6.777070505
-11.32239242
)


101
(
0
0.4963989279
0.8862752766
0.9844839933
0.7306751493
0.2193246718
-0.4113055417
-1.075410488
-1.7509032
-2.449836664
-3.296173957
-4.272931107
-5.389017352
-6.70971142
-8.258956398
-10.02439957
-11.97928187
-14.07673631
-16.22901816
-18.44027747
-20.60477326
-22.65992511
-24.55199212
-26.17271652
-27.44030659
-28.29203843
-28.65649984
-28.43520212
-27.50760596
-25.760993
-23.13341056
-19.6052738
-15.17200198
-9.929382883
-4.006270887
2.403424977
9.107938509
15.97906369
22.95142905
29.92376021
36.72551838
43.0412303
48.52759088
53.01420561
56.61647699
59.59081044
62.12811013
64.23597205
65.8084754
66.70465331
66.90410598
66.54658604
65.79794036
64.75615929
63.46370397
61.96394119
60.2664576
58.39360837
56.3572807
54.2064598
51.97686962
49.70244283
47.40107694
45.08043228
42.76395343
40.47503961
38.2051084
35.93585762
33.67183451
31.43854741
29.25596534
27.14509704
25.1164552
23.14854673
21.22154484
19.33757206
17.54244783
15.8561962
14.24191756
12.68593878
11.22013054
9.899596753
8.663956878
7.390170087
6.166041449
5.187703121
4.281873625
3.41507096
2.583361116
1.911900073
1.282969259
0.7649049517
0.3123497103
-0.03666819269
-0.4405723848
-0.6688843999
-0.8609677417
-4.082725962
-7.801156267
-11.34353515
-16.56471982
)


101
(
0
0.4996994747
0.883392031
0.9939343396
0.7699087434
0.2867255275
-0.3401929538
-1.040847241
-1.804420439
-2.649300096
-3.706390171
-4.959355567
-6.397436664
-8.072125587
-9.9934997
-12.13879815
-14.46898744
-16.92826117
-19.41365516
-21.92740571
-24.34248279
-26.61191932
-28.67328125
-30.41699271
-31.75921042
-32.62990738
-32.94305032
-32.58860554
-31.44069484
-29.37483253
-26.32847187
-22.29213761
-17.3011495
-11.5043552
-5.065348225
1.75928109
8.724889138
15.6263669
22.34160907
28.79364182
34.91614548
40.5510696
45.40339011
49.26017788
52.11693901
54.1728125
55.71170675
56.87550049
57.65912682
57.9533446
57.66682845
56.85073681
55.66998383
54.23997967
52.63906669
50.90511071
49.04219648
47.07478716
45.0038351
42.85579641
40.66048652
38.4544926
36.25581911
34.05885858
31.8727861
29.72799609
27.62652078
25.55638592
23.50096417
21.47603134
19.49593694
17.57922962
15.75006641
13.99314916
12.28830378
10.62549804
9.0286413
7.543865003
6.146375837
4.807771426
3.556297555
2.427097608
1.408472779
0.4049305455
-0.5883753303
-1.378680968
-2.066824037
-2.700019791
-3.275274761
-3.728251058
-4.120552735
-4.415721333
-4.660309667
-4.776046857
-4.965530822
-4.944692724
-4.861311565
-8.574056638
-12.62128656
-15.41457274
-14.56671145
)


101
(
0
0.5032809649
0.8803737621
1.000531622
0.8012014072
0.3390463989
-0.2924798314
-1.038184936
-1.896385875
-2.88933518
-4.150850249
-5.668691729
-7.412576555
-9.418790604
-11.68647797
-14.18182052
-16.85589747
-19.64430089
-22.43772361
-25.22164928
-27.85908355
-30.31052611
-32.51210802
-34.34992733
-35.73464003
-36.57943853
-36.7928225
-36.25931266
-34.86860809
-32.50521529
-29.11828915
-24.73083086
-19.42159962
-13.37979478
-6.82969489
-0.0342267272
6.746665158
13.28705038
19.4214163
25.06962325
30.24505586
34.91526906
38.9078004
42.03903228
44.22150272
45.53472343
46.24092139
46.57871841
46.66786672
46.44340594
45.81179739
44.74430482
43.32142752
41.67760803
39.90920226
38.06353896
36.14368296
34.17359679
32.1473966
30.07623252
27.98029154
25.89230102
23.8359236
21.79529135
19.77194785
17.79008673
15.85865079
13.97896215
12.12912996
10.32304643
8.560692
6.851105547
5.228162556
3.679901242
2.194115431
0.7652960088
-0.6071848223
-1.872684169
-3.04001381
-4.138492508
-5.158722412
-6.064221702
-6.848095918
-7.571615558
-8.293654477
-8.845096149
-9.275146831
-9.675210173
-9.958982616
-10.13471007
-10.28695674
-10.28619171
-10.3092777
-10.18882812
-10.12215144
-9.889075306
-9.612311197
-12.99107946
-16.52626543
-18.17319904
-23.27781135
)


101
(
0
0.5067816323
0.8767766994
1.004523496
0.8252717103
0.3778976367
-0.2651571241
-1.062380546
-2.019835474
-3.161105353
-4.618453288
-6.386793635
-8.418412233
-10.73286004
-13.32025513
-16.13362329
-19.12149398
-22.20653063
-25.27236409
-28.29683422
-31.12772495
-33.72671159
-36.04297143
-37.93407869
-39.32457405
-40.11091581
-40.19355434
-39.47180827
-37.86004558
-35.27893257
-31.7016469
-27.18014147
-21.83788684
-15.89922413
-9.615339425
-3.228353154
3.016529545
8.89271101
14.24245009
18.97851852
23.11721709
26.73684963
29.78869324
32.16376826
33.74768782
34.51292808
34.63239137
34.34598486
33.8609978
33.21251476
32.32860985
31.12890469
29.62376719
27.901366
26.07451207
24.20720863
22.29878474
20.37715524
18.43867576
16.48163677
14.51343823
12.56236494
10.65553348
8.778474975
6.938205776
5.123932717
3.361907029
1.662753217
0.01202921684
-1.577360656
-3.116558753
-4.598672646
-5.99783469
-7.319362015
-8.572742664
-9.756010618
-10.86730368
-11.88676578
-12.78371706
-13.59450784
-14.34005298
-14.97529248
-15.47851413
-15.88213068
-16.28039948
-16.54291325
-16.64258819
-16.7584377
-16.73934347
-16.57773485
-16.44205905
-16.11894864
-15.84976622
-15.49258389
-15.14357902
-14.65950304
-14.03471214
-16.51801736
-18.84529433
-18.83471447
-17.82702848
)


101
(
0
0.5104349315
0.8732819036
1.006145875
0.8428096746
0.4047902982
-0.2554403885
-1.108957621
-2.168494676
-3.456782845
-5.100211209
-7.102217596
-9.401639105
-12.00042585
-14.8806223
-17.98360966
-21.24959192
-24.59904389
-27.90613455
-31.12891771
-34.12470236
-36.84708405
-39.23625345
-41.14996062
-42.50784421
-43.21189581
-43.15561907
-42.26576431
-40.49931609
-37.82302327
-34.24697859
-29.83783825
-24.74832027
-19.21330343
-13.48662356
-7.795108719
-2.343704399
2.694263817
7.162343324
10.9590812
14.11027345
16.73391613
18.86655599
20.50014367
21.55032318
21.91809355
21.66911273
20.97550462
20.07303234
19.08001491
17.9916466
16.72222681
15.22112495
13.51864994
11.7057013
9.869421867
8.013439773
6.170742062
4.334277712
2.501107659
0.667525102
-1.142014251
-2.90581287
-4.62295686
-6.283057893
-7.917627112
-9.495373695
-11.0126517
-12.46700199
-13.84686653
-15.15184413
-16.37897588
-17.51905352
-18.57076528
-19.54550115
-20.44698357
-21.2659092
-21.98194249
-22.56026323
-23.01979326
-23.40780748
-23.69134104
-23.85499523
-23.86832237
-23.86316976
-23.7742139
-23.4770815
-23.19489296
-22.84397235
-22.28808648
-21.77997147
-21.12060714
-20.49039481
-19.84997159
-19.20952238
-18.42142898
-17.50761248
-18.45869359
-19.02073415
-17.2146887
-14.27368388
)


101
(
0
0.5142164829
0.869556376
1.005619453
0.8544433041
0.4210904718
-0.2606481132
-1.173882063
-2.336385457
-3.768874741
-5.588710189
-7.805799871
-10.35249659
-13.21120308
-16.35534478
-19.71774305
-23.2281978
-26.80655678
-30.32332753
-33.71312246
-36.84113851
-39.65089475
-42.07823256
-43.97950401
-45.27355611
-45.88272392
-45.71576642
-44.72309692
-42.89959754
-40.266767
-36.88142487
-32.81818405
-28.21329388
-23.33040069
-18.3618375
-13.53185467
-8.991830088
-4.885446051
-1.342937283
1.569017511
3.848876501
5.597124463
6.919400867
7.86448043
8.412593102
8.470481825
8.003938237
7.086697577
5.920478831
4.665673835
3.397277366
2.068436588
0.6031637816
-1.028991612
-2.779225464
-4.564289974
-6.356882956
-8.111394809
-9.844865311
-11.5639649
-13.25494945
-14.93120325
-16.55656037
-18.11763443
-19.60301186
-21.04339269
-22.4212136
-23.73648096
-24.9795015
-26.13453759
-27.17796989
-28.12426704
-28.96524494
-29.69154849
-30.32357402
-30.87552705
-31.33117304
-31.67613184
-31.87985255
-31.92682449
-31.85830688
-31.68490418
-31.42658923
-30.97586699
-30.45946745
-29.93276737
-29.20120429
-28.40048207
-27.64067213
-26.6519754
-25.66727438
-24.65112456
-23.60658511
-22.58633744
-21.61831364
-20.4557592
-19.14791448
-18.40579365
-17.0856109
-13.67492126
-10.68106502
)


101
(
0
0.518065139
0.8660862603
1.003150975
0.8607591021
0.428045997
-0.2788108271
-1.253549662
-2.518271053
-4.090678553
-6.077587693
-8.490288779
-11.26278888
-14.35630146
-17.73613057
-21.32628098
-25.04721765
-28.81807343
-32.50744819
-36.03763266
-39.26866983
-42.12836112
-44.55774174
-46.41718876
-47.63881539
-48.16366085
-47.92790188
-46.91304085
-45.14703548
-42.69861798
-39.66658407
-36.11776389
-32.19026578
-28.08535831
-23.98886999
-20.07999281
-16.51826328
-13.35030581
-10.68614194
-8.591028483
-7.074204164
-6.043533824
-5.408565011
-5.072248409
-4.977336378
-5.213789876
-5.825637605
-6.844881988
-8.149803276
-9.577131997
-10.99837628
-12.40880244
-13.85800817
-15.40813372
-17.06668675
-18.78746348
-20.52316919
-22.20223423
-23.84082608
-25.44152114
-27.00791663
-28.55293515
-30.03885532
-31.44487715
-32.76045733
-33.99679322
-35.1540452
-36.23585873
-37.23251037
-38.1221995
-38.87568129
-39.5062161
-39.99705217
-40.34278533
-40.56598486
-40.68670541
-40.69523487
-40.59185985
-40.34417045
-39.92319459
-39.33158774
-38.59765427
-37.82189004
-36.8417674
-35.73385265
-34.65026333
-33.44741628
-32.06457761
-30.79243825
-29.34576788
-27.81499836
-26.37132322
-24.8793571
-23.42460166
-22.04520508
-20.45725768
-18.66065556
-16.3280391
-13.34259719
-8.825542157
-2.626034256
)


101
(
0
0.5232660775
0.8615238583
0.9989449601
0.8623206977
0.426846555
-0.3077676031
-1.344747486
-2.709506888
-4.416414431
-6.560645989
-9.150507031
-12.12613002
-15.42925143
-19.0152935
-22.8024988
-26.70081664
-30.62738539
-34.45555135
-38.08880824
-41.3891095
-44.27788688
-46.68163636
-48.4810136
-49.625047
-50.08792236
-49.83896097
-48.88558281
-47.2906544
-45.14738472
-42.5697167
-39.66746116
-36.49373625
-33.24089198
-30.0679087
-27.07820094
-24.44052581
-22.16715091
-20.34322601
-18.99828115
-18.12548023
-17.67428852
-17.5997898
-17.76047601
-18.09031794
-18.60981818
-19.37397485
-20.45266323
-21.80106691
-23.32224654
-24.86271488
-26.37112722
-27.84918219
-29.3473644
-30.92131833
-32.5616528
-34.23803383
-35.85585149
-37.41303775
-38.91196084
-40.35519624
-41.76664836
-43.1090678
-44.35592929
-45.50499144
-46.52608346
-47.44314332
-48.2595942
-48.96609264
-49.55443321
-49.98301813
-50.24989236
-50.34749455
-50.27248862
-50.03748351
-49.66102164
-49.14331362
-48.50679862
-47.72855524
-46.78451326
-45.6474619
-44.28882136
-42.90631464
-41.35637665
-39.62365268
-37.88627231
-36.1566015
-34.18282195
-32.31518163
-30.37445236
-28.28555391
-26.34310496
-24.35354206
-22.44586163
-20.58549421
-18.54019438
-16.24261532
-12.63235466
-8.42537994
-3.477354816
1.750957693
)


101
(
0
0.5242965039
0.8577774019
0.9931856511
0.8596300021
0.418512455
-0.3457314199
-1.444569818
-2.90591356
-4.740906835
-7.032047504
-9.782475913
-12.93730112
-16.42415521
-20.18762754
-24.14120799
-28.18411161
-32.22980163
-36.15842908
-39.86367671
-43.20533857
-46.09431887
-48.45098016
-50.18558654
-51.26585071
-51.6986264
-51.49684986
-50.68614267
-49.34789491
-47.59105836
-45.53427525
-43.28388594
-40.91528322
-38.53506528
-36.22777458
-34.12840015
-32.33246002
-30.9074698
-29.80902383
-29.11833798
-28.81476361
-28.86833688
-29.23943602
-29.80611663
-30.50552955
-31.30488107
-32.25233709
-33.38161491
-34.76343509
-36.31520818
-37.93894638
-39.53863023
-41.09488531
-42.59287423
-44.10642489
-45.68185361
-47.29543119
-48.86636471
-50.3531178
-51.75833007
-53.09208642
-54.36477508
-55.55968835
-56.63497224
-57.60619248
-58.41079414
-59.07184365
-59.59713335
-59.98622523
-60.23337429
-60.29568465
-60.16536252
-59.84149139
-59.32346966
-58.61280017
-57.71498176
-56.6179047
-55.38739207
-54.03243525
-52.51949541
-50.82614938
-48.83789204
-46.79839546
-44.65461807
-42.32046178
-39.90604371
-37.57861703
-35.03272506
-32.53851884
-30.05772616
-27.42369439
-24.94500779
-22.43073396
-20.03895959
-17.67863822
-15.16309748
-12.37258551
-8.00348996
-3.183154906
1.441053737
6.358178332
)


101
(
0
0.530488156
0.8537346623
0.9860442158
0.8531758918
0.4040358772
-0.3909884057
-1.550500329
-3.104067335
-5.059871387
-7.486985914
-10.38229839
-13.69255064
-17.33697211
-21.24950245
-25.33938595
-29.49536302
-33.62570596
-37.61459517
-41.35737482
-44.71203657
-47.57735949
-49.87669466
-51.54986489
-52.5851832
-53.02847661
-52.91971235
-52.30872694
-51.28384324
-49.95313095
-48.43529678
-46.8454323
-45.21031474
-43.64665573
-42.16695557
-40.87833873
-39.83915649
-39.11395096
-38.68248042
-38.58072456
-38.78203152
-39.25335882
-39.97600548
-40.89401138
-41.8983302
-42.97455722
-44.10416948
-45.36604501
-46.76474561
-48.34246598
-50.01816634
-51.69562099
-53.34080518
-54.88899243
-56.40077125
-57.92696227
-59.49308053
-61.02119661
-62.46333812
-63.79350097
-65.01236984
-66.1472935
-67.19834699
-68.10127738
-68.86875358
-69.45559368
-69.85545861
-70.08283698
-70.14443828
-70.03392328
-69.70981913
-69.15866025
-68.39697249
-67.43525794
-66.26462727
-64.86886874
-63.20980824
-61.38182989
-59.43322877
-57.33468831
-55.08513954
-52.51723228
-49.83017309
-47.09195432
-44.18832998
-41.1478387
-38.18389147
-35.08840272
-31.98602361
-28.93501127
-25.77095269
-22.74408006
-19.70768363
-16.80569229
-13.97241517
-10.97880283
-7.716332144
-3.250236233
1.41297967
4.88176045
10.24178408
)


101
(
0
0.5338679264
0.8496704055
0.977686615
0.843398878
0.3842719181
-0.4420340014
-1.660276274
-3.300965513
-5.369653516
-7.921256706
-10.94583136
-14.38901233
-18.16546057
-22.19894269
-26.395346
-30.63492211
-34.81596954
-38.83110669
-42.57262707
-45.9091445
-48.73557277
-50.97440046
-52.59690589
-53.61725055
-54.10116928
-54.12477657
-53.74762909
-53.05768737
-52.16084242
-51.15984223
-50.14902483
-49.19736127
-48.35102211
-47.60117463
-46.9987552
-46.6289218
-46.51345608
-46.63984846
-47.0299512
-47.66514002
-48.51597608
-49.57021315
-50.78356412
-52.05549539
-53.3617392
-54.6955953
-56.10114383
-57.59132625
-59.21401834
-60.91584657
-62.66693281
-64.3849907
-66.01982628
-67.56769722
-69.09724786
-70.63556284
-72.124773
-73.54043839
-74.82119389
-75.93931325
-76.94038344
-77.83017024
-78.56863948
-79.13502464
-79.50845428
-79.65643631
-79.5982888
-79.34476802
-78.88994622
-78.19192827
-77.23840722
-76.05996863
-74.67247953
-73.06928111
-71.22269296
-69.08264463
-66.72489384
-64.22442397
-61.58138748
-58.79945553
-55.70942885
-52.45288701
-49.14283766
-45.72709644
-42.12392499
-38.54113265
-34.92288318
-31.25123069
-27.63307151
-23.96750451
-20.3981427
-16.86832573
-13.45408761
-10.18224024
-6.737870372
-3.064227025
0.7589066306
4.342757008
5.672850477
2.006625736
)


101
(
0
0.4951150371
0.8456194758
0.9682666522
0.8307122702
0.3601072412
-0.4975279352
-1.771986992
-3.494099431
-5.667067418
-8.331327075