/*--------------------------------*- C++ -*----------------------------------*\
| =========                 |                                                 |
| \\      /  F ield         | OpenFOAM: The Open Source CFD Toolbox           |
|  \\    /   O peration     | Version:  2.3.1                                 |
|   \\  /    A nd           | Web:      www.OpenFOAM.org                      |
|    \\/     M anipulation  |                                                 |
\*---------------------------------------------------------------------------*/
FoamFile
{
    version     2.0;
    format      ascii;
    class       dictionary;
    location    "constant";
    object      la_i24;
}
// * * * * * * * * * * * * * * * * * * * * * * * * * * * * * * * * * * * * * //

la_i24_table
101
(

101
(
0
0
0
0
0
0
0
0
0
0
0
0
0
0
0
0
0
0
0
0
0
0
0
0
0
0
0
0
0
0
0
0
0
0
0
0
0
0
0
0
0
0
0
0
0
0
0
0
0
0
0
0
0
0
0
0
0
0
0
0
0
0
0
0
0
0
0
0
0
0
0
0
0
0
0
0
0
0
0
0
0
0
0
0
0
0
0
0
0
0
0
0
0
0
0
0
0
0
0
0
-0.05372635663
)


101
(
0
0.0831120745
-0.05825835882
-0.09844551764
-0.3127764412
-0.7888541627
-1.501842574
-2.413132388
-3.431534838
-4.52005502
-5.653544554
-6.813524635
-8.007946072
-9.251447201
-10.57081618
-12.01006458
-13.60495804
-15.3742732
-17.34721617
-19.43476347
-21.63484795
-23.8927194
-26.16334934
-28.4087957
-30.46580093
-32.32124009
-33.86655596
-35.05150358
-35.86979967
-36.28843965
-36.3206593
-36.02231548
-35.44797084
-34.70725577
-33.82718326
-32.80366859
-32.32825766
-32.64209007
-31.86529845
-30.40129034
-28.80852499
-27.20820601
-25.62902585
-24.07577405
-22.54205581
-21.04838853
-19.60936135
-18.23822938
-16.93774033
-15.71191312
-14.56091588
-13.48532275
-12.48588292
-11.55845332
-10.70409155
-9.920730926
-9.20691724
-8.556425826
-7.965229889
-7.427237851
-6.93460699
-6.480057094
-6.058736641
-5.669301589
-5.310719117
-4.977842363
-4.662952643
-4.363566625
-4.079417248
-3.815557895
-3.580204673
-3.375032864
-3.182442768
-2.977684538
-2.750165023
-2.48874841
-2.223701394
-2.043802685
-1.909985557
-1.717667725
-1.501290347
-1.329734908
-1.207281432
-1.130108973
-0.8293901301
-0.733286086
-0.6878458284
-0.5439070315
-0.4386577471
-0.435174034
-0.2379144682
-0.2039276752
-0.1718684958
-0.08587525506
-0.07412766368
-0.03280992005
-0.008273467744
-0.009970731532
-0.01169698387
-0.01447581444
-0.01723788374
)


101
(
0
-0.01101361438
-0.1006222686
-0.04253675617
-0.2028278953
-0.5851497124
-1.267574835
-2.180200688
-3.180248481
-4.232500787
-5.32086422
-6.433806812
-7.576769362
-8.761168628
-10.01057283
-11.35705753
-12.844678
-14.52195076
-16.36952846
-18.35511306
-20.36310151
-22.41587818
-24.48917501
-26.57224546
-28.55615355
-30.32829107
-31.85626642
-33.07513387
-33.95619549
-34.45709387
-34.53486052
-34.21957903
-33.64392011
-32.95758745
-32.2038852
-31.3614017
-30.75593722
-30.50624801
-29.89527813
-28.74663559
-27.3505832
-25.92359392
-24.53873812
-23.1822086
-21.82493246
-20.4828406
-19.17836175
-17.92361467
-16.72984838
-15.59574126
-14.52199146
-13.5064629
-12.55249405
-11.66028791
-10.8281337
-10.05427818
-9.33427889
-8.668799091
-8.056349806
-7.494795907
-6.978779131
-6.498530847
-6.047057546
-5.626055098
-5.237934061
-4.87983425
-4.543630946
-4.225245919
-3.92420741
-3.644512078
-3.401193332
-3.20235832
-3.034104796
-2.855564834
-2.652785718
-2.42239677
-2.158683214
-1.932306473
-1.809778671
-1.682835508
-1.4945218
-1.334091522
-1.193132344
-1.13888136
-1.008066541
-0.7561824769
-0.6771290517
-0.6264079863
-0.4978290466
-0.4063970756
-0.3709171959
-0.2273413932
-0.208358431
-0.1625308811
-0.1129896314
-0.07595676417
-0.02925907477
-0.03393894379
-0.03861826231
-0.04319204921
-0.04822812536
)


101
(
0
-0.09964455669
-0.1474581128
0.01084372185
-0.06597189651
-0.3757879099
-1.033303692
-1.94793039
-2.936978078
-3.957670654
-5.0085337
-6.081659112
-7.183040588
-8.320669355
-9.512395128
-10.79195936
-12.19098637
-13.7803594
-15.52743906
-17.44889641
-19.34496537
-21.18941558
-23.12718038
-25.05136223
-26.98376646
-28.74217969
-30.29463978
-31.58237938
-32.5762573
-33.24907022
-33.50878432
-33.31026374
-32.75058159
-32.12982351
-31.48374236
-30.81585026
-30.3829669
-30.03276788
-29.4616567
-28.51276763
-27.31370639
-26.06230173
-24.85417708
-23.67966584
-22.49976178
-21.30439169
-20.11208719
-18.95154381
-17.83247288
-16.75867663
-15.72709444
-14.73567599
-13.78673093
-12.88301628
-12.02762608
-11.2242334
-10.45877226
-9.73626082
-9.056656892
-8.420676596
-7.830589262
-7.279080208
-6.756574443
-6.261678101
-5.797636117
-5.365752016
-4.96231708
-4.58092478
-4.224482654
-3.893820534
-3.604417728
-3.368918071
-3.173669636
-2.965892574
-2.72903773
-2.500404628
-2.286690453
-2.05224027
-1.853849983
-1.718158052
-1.57648218
-1.440274935
-1.275315492
-1.151922496
-1.085411012
-0.9500656549
-0.7286085255
-0.6781455673
-0.6072728401
-0.5069219819
-0.4420667383
-0.3606513875
-0.2581812535
-0.2195432344
-0.1777005213
-0.1360000846
-0.0769162769
-0.08268619958
-0.088065898
-0.09037604017
-0.0900351663
)


101
(
0
-0.1964457392
-0.1994801532
0.06020696401
0.06731878232
-0.1674631207
-0.7960550206
-1.712961063
-2.695428131
-3.689522075
-4.708067715
-5.748764676
-6.809053227
-7.906862795
-9.04945096
-10.26362813
-11.5927907
-13.10158384
-14.77143244
-16.6180564
-18.46686781
-20.21352336
-21.9677076
-23.79498829
-25.67670191
-27.47857556
-29.09172577
-30.48729274
-31.62817409
-32.50300866
-33.00429671
-33.03444541
-32.65294508
-32.0580701
-31.54846528
-31.13137838
-30.84004237
-30.58484582
-30.13364566
-29.37705672
-28.34271292
-27.24914966
-26.21999966
-25.2382003
-24.25128515
-23.22940506
-22.17506069
-21.11360506
-20.06955131
-19.06427508
-18.08517487
-17.12812388
-16.19215112
-15.28238261
-14.40265618
-13.55759253
-12.74881566
-11.96877203
-11.21831078
-10.48925288
-9.798434623
-9.146535706
-8.520900778
-7.923059936
-7.351617384
-6.800334585
-6.279044444
-5.783202521
-5.315051174
-4.880204221
-4.483187564
-4.152835304
-3.874059743
-3.584823291
-3.248578178
-2.927714484
-2.686951152
-2.460975419
-2.188817536
-1.944064303
-1.778191358
-1.66028496
-1.480093615
-1.305833179
-1.178289177
-1.086384242
-0.9275412121
-0.7634402234
-0.7069088157
-0.604500738
-0.50911603
-0.4496717573
-0.3518748042
-0.2990154
-0.2709235285
-0.2131164617
-0.1229156538
-0.1224932421
-0.1269430181
-0.1819696015
-0.2554799218
)


101
(
0
-0.2916001851
-0.2525408891
0.1051016208
0.1967453129
0.03928099196
-0.5555771733
-1.475745498
-2.455585975
-3.428474972
-4.418749705
-5.430384991
-6.459672068
-7.524053093
-8.637707003
-9.804901711
-11.06949605
-12.51243663
-14.13732736
-15.94267841
-17.75017201
-19.44262018
-21.10349284
-22.84589738
-24.67609185
-26.5164958
-28.20212868
-29.71271852
-31.04211094
-32.13802
-32.93130442
-33.2592699
-33.05440944
-32.63225067
-32.22970297
-31.95968695
-31.90119744
-31.90241561
-31.70769258
-31.16367746
-30.34310481
-29.4240937
-28.57106747
-27.81844943
-27.07835656
-26.29790399
-25.45927513
-24.58849254
-23.71695433
-22.86924585
-22.03736635
-21.21436336
-20.39428774
-19.58235493
-18.78361781
-17.98847342
-17.21177136
-16.45379847
-15.72300161
-14.96528456
-14.19820171
-13.47655595
-12.74130463
-12.02751057
-11.33591694
-10.63304447
-9.940556318
-9.257147596
-8.571469429
-7.949413477
-7.331210547
-6.777579069
-6.276821807
-5.779888293
-5.22240264
-4.665616228
-4.222669594
-3.86130585
-3.444652786
-2.985512246
-2.618119726
-2.408160255
-2.14474271
-1.871989693
-1.629669499
-1.443171644
-1.258156491
-1.068050902
-0.9249394389
-0.8071079243
-0.6921708346
-0.5759674141
-0.4849791981
-0.4164750421
-0.3812218039
-0.2959877321
-0.1838909186
-0.2468093021
-0.3216413513
-0.3963460381
-0.4671587373
)


101
(
0
-0.3817557848
-0.3111057861
0.1456353797
0.3221669707
0.2447377884
-0.3134372178
-1.235759119
-2.216520432
-3.173255836
-4.138611811
-5.125670396
-6.130665313
-7.166847827
-8.253807598
-9.39171559
-10.60317765
-11.99231763
-13.54418719
-15.33554783
-17.14195875
-18.79381686
-20.3988784
-22.03854933
-23.83109583
-25.72129994
-27.54412641
-29.20262402
-30.68857721
-32.00978573
-33.1019505
-33.83451038
-34.03211322
-33.78316856
-33.50145851
-33.4073631
-33.58280726
-33.85964117
-34.00718523
-33.85097385
-33.36049445
-32.73309869
-32.17731291
-31.7643976
-31.43890385
-31.0980666
-30.69371362
-30.26103482
-29.82960191
-29.41530038
-29.03299276
-28.6259256
-28.19045852
-27.74001705
-27.29977303
-26.79297275
-26.22893829
-25.66832174
-25.08791697
-24.42007367
-23.68790185
-22.95658384
-22.14236017
-21.26457551
-20.38293581
-19.45155753
-18.47612339
-17.47613506
-16.42302069
-15.39355594
-14.36802478
-13.38812429
-12.44543251
-11.50603565
-10.49837474
-9.469787209
-8.570548367
-7.788261226
-7.003720248
-6.158919223
-5.344497806
-4.767074233
-4.219257032
-3.673685543
-3.166873032
-2.730538683
-2.330932377
-1.979025034
-1.643591993
-1.412256927
-1.183911634
-0.9820929375
-0.800192246
-0.6632131703
-0.5856669001
-0.4857502827
-0.3259699047
-0.4507659637
-0.6104659899
-0.857071722
-1.145027037
)


101
(
0
-0.4790200343
-0.3733400175
0.1814793715
0.4428474987
0.4469713761
-0.06893603722
-0.9925418394
-1.977649249
-2.922199574
-3.867058649
-4.833555638
-5.818102482
-6.83165233
-7.893246274
-9.008921079
-10.18628055
-11.51983767
-13.04994077
-14.77173203
-16.61234527
-18.33073914
-19.87791102
-21.46526535
-23.24412114
-25.18119006
-27.12343904
-28.95661516
-30.64461666
-32.19459369
-33.58031489
-34.66289361
-35.28908089
-35.4740624
-35.41234403
-35.51501092
-35.92527437
-36.59289471
-37.27959411
-37.68934912
-37.81390315
-37.75353849
-37.76801216
-38.00392935
-38.42744635
-38.92062185
-39.36584161
-39.76810166
-40.16532002
-40.54597494
-40.95663416
-41.26397185
-41.49500445
-41.63966961
-41.71787806
-41.63020217
-41.38709827
-41.02158082
-40.55077758
-39.88526152
-39.05330042
-38.15860324
-37.11327241
-35.94399486
-34.67807378
-33.31402453
-31.83472532
-30.33533543
-28.74516563
-27.13697505
-25.52482492
-23.91090477
-22.32455188
-20.7400395
-19.11320852
-17.44492213
-15.9023878
-14.50039772
-13.16673049
-11.81279625
-10.43790941
-9.257153311
-8.215388139
-7.221134038
-6.289501406
-5.451177239
-4.669335478
-3.987758794
-3.35372354
-2.829706022
-2.347409041
-1.934226536
-1.611218452
-1.309441783
-1.138906704
-0.9003926235
-0.5685002273
-0.8603426433
-1.196367818
-1.618746942
-2.138254322
)


101
(
0
-0.5749090807
-0.4375554541
0.2127176616
0.5590497541
0.6460063895
0.1765739971
-0.7468704116
-1.739332574
-2.675670528
-3.60387152
-4.552405082
-5.521299338
-6.522651408
-7.56888102
-8.665054594
-9.822862883
-11.11632872
-12.59938011
-14.33031398
-16.17048228
-17.89684156
-19.4901567
-21.07084607
-22.80849946
-24.77594285
-26.84769689
-28.86670373
-30.77763348
-32.58138613
-34.28219985
-35.7962182
-36.93133515
-37.61485822
-38.0074328
-38.46904816
-39.29003755
-40.5050978
-41.90879998
-43.24728691
-44.41348313
-45.37647237
-46.41760317
-47.67564537
-49.17299817
-50.80573287
-52.39838658
-53.88638646
-55.31612745
-56.59580428
-57.71505355
-58.62674528
-59.38810539
-59.87503486
-60.20868027
-60.3068271
-60.04961688
-59.54003298
-58.83815149
-57.87150384
-56.66415044
-55.31897921
-53.73459329
-52.02201752
-50.17924504
-48.23277355
-46.16371013
-44.02545849
-41.8058378
-39.51149953
-37.2401042
-34.96971695
-32.78200166
-30.601884
-28.37742569
-26.13745959
-24.00373285
-22.0064959
-20.11001394
-18.24952037
-16.42732252
-14.72300018
-13.16331421
-11.71650169
-10.34499296
-9.088014744
-7.910892599
-6.87598771
-5.909465925
-5.031340264
-4.260923968
-3.622659464
-3.026307746
-2.490067272
-2.135023485
-1.684950836
-1.224370313
-1.66806113
-2.148412157
-2.60916383
-3.168323795
)


101
(
0
-0.6668742724
-0.5073865481
0.238672233
0.669499237
0.8411704883
0.423114156
-0.4981991641
-1.500161224
-2.432638844
-3.347147165
-4.281483247
-5.237670384
-6.225520537
-7.260880962
-8.347853808
-9.495609914
-10.75913165
-12.19945899
-13.90608513
-15.77720954
-17.59838742
-19.23063871
-20.80741063
-22.52840522
-24.54273831
-26.39567801
-28.99389178
-31.14890201
-33.23688395
-35.27854929
-37.21441966
-38.95314557
-40.3446535
-41.4673803
-42.59525799
-44.05818891
-46.06211874
-48.55177443
-51.14565567
-53.66481742
-56.03139915
-58.33904796
-60.75366259
-63.3580499
-66.05450698
-68.63691751
-70.98646729
-73.07997118
-74.80917163
-76.1986093
-77.2488709
-77.97135266
-78.33062102
-78.41207492
-78.10037787
-77.4266542
-76.34823905
-75.0539602
-73.49602664
-71.66511519
-69.69232126
-67.48272112
-65.14687086
-62.69001204
-60.12430744
-57.46219722
-54.72865621
-51.95942289
-49.17176728
-46.41440634
-43.68970021
-41.01487631
-38.37797403
-35.74582388
-33.14597492
-30.64031767
-28.25698219
-25.98559617
-23.76186836
-21.62736738
-19.64719979
-17.718123
-15.96294483
-14.25734611
-12.70036465
-11.22890053
-9.934005531
-8.708759379
-7.522723301
-6.498496443
-5.600540975
-4.769441875
-4.039949115
-3.516495584
-2.835950132
-2.074683017
-2.699489026
-3.334167034
-3.743282619
-3.738977187
)


101
(
0
-0.7641669986
-0.5795636556
0.2600076698
0.7749485731
1.032457227
0.6693447671
-0.2477459925
-1.260455509
-2.193446516
-3.096841902
-4.019734425
-4.967634463
-5.943293084
-6.972334204
-8.060746214
-9.205930031
-10.43726771
-11.88454188
-13.53701767
-15.43115345
-17.33756685
-19.06312669
-20.70882959
-22.4397031
-24.46428833
-26.80634616
-29.27236055
-31.72637245
-34.15165235
-36.59132196
-39.06173539
-41.46138629
-43.77046172
-45.89553671
-48.05062891
-50.54270287
-53.63219329
-57.32319169
-61.26000035
-65.19925162
-68.93209892
-72.37960928
-75.71895577
-79.0044838
-82.23316262
-85.22071742
-87.82562479
-89.90485452
-91.4613908
-92.52307987
-93.1423094
-93.34489522
-93.1069278
-92.46160655
-91.45773447
-90.11568602
-88.36025033
-86.35595231
-84.13028711
-81.66118728
-79.05826178
-76.30648285
-73.44881917
-70.49879432
-67.46839897
-64.40342752
-61.28323854
-58.1765086
-55.08869169
-52.05405728
-49.08544629
-46.18846136
-43.32740566
-40.48224841
-37.69770016
-35.04994926
-32.51981803
-30.07035897
-27.67170756
-25.38532039
-23.30791973
-21.22282552
-19.28195962
-17.42921954
-15.72532796
-14.09387515
-12.58852527
-11.22082123
-9.844673012
-8.623814209
-7.575259951
-6.572291054
-5.6734178
-4.977693462
-4.20975329
-3.314097273
-3.801540671
-4.343471506
-5.00497995
-6.219111527
)


101
(
0
-0.8604341224
-0.6557587017
0.2759975182
0.8743411969
1.218640398
0.9148889249
0.004993760733
-1.01985102
-1.956901223
-2.852430647
-3.766531272
-4.708448523
-5.678614769
-6.703659291
-7.795422054
-8.939954562
-10.17910681
-11.57593442
-13.24297929
-15.14891152
-17.08849309
-18.94743485
-20.67750566
-22.47115027
-24.5416388
-27.00744499
-29.72800019
-32.53491427
-35.38288187
-38.31080438
-41.4201632
-44.68999469
-48.02797569
-51.40837134
-54.86498528
-58.59096345
-62.77478359
-67.56594394
-72.63393862
-77.60150659
-82.24715235
-86.43470215
-90.17669695
-93.60911907
-96.76366797
-99.46508409
-101.6255394
-103.2026099
-104.1261571
-104.4636697
-104.2883576
-103.6749548
-102.6401291
-101.190971
-99.48224389
-97.43359433
-95.05655155
-92.42606228
-89.6499249
-86.70429002
-83.6554916
-80.52073359
-77.32650251
-74.1059452
-70.85395339
-67.58378437
-64.29932544
-61.04352025
-57.8436803
-54.72567672
-51.70364047
-48.77083963
-45.87169208
-42.97599445
-40.14391751
-37.49571307
-34.98930018
-32.52018593
-30.0917894
-27.77414665
-25.69506372
-23.61712036
-21.59887458
-19.68177891
-17.95272122
-16.28333878
-14.67804934
-13.2062856
-11.81008661
-10.43703028
-9.317060035
-8.237298456
-7.256892248
-6.408388558
-5.484015509
-4.440393381
-5.12096133
-5.810997656
-6.337758801
-6.571351733
)


101
(
0
-0.9539272684
-0.7355241909
0.2868039992
0.9676160328
1.399149337
1.158843101
0.259093594
-0.7790278706
-1.722691727
-2.613849831
-3.521132433
-4.459124881
-5.427513778
-6.455004587
-7.545469927
-8.702930801
-9.946492303
-11.34378396
-12.96524959
-14.88745235
-16.93469896
-18.89281532
-20.73829165
-22.63989959
-24.81412365
-27.40092512
-30.37567323
-33.59683516
-36.9822397
-40.55598095
-44.39285124
-48.54195469
-53.05557697
-57.75938857
-62.56036878
-67.49361938
-72.66777148
-78.18647502
-83.80625917
-89.24187431
-94.25261607
-98.6101582
-102.2259298
-105.2628895
-107.7928339
-109.7979919
-111.211389
-111.9468818
-112.056304
-111.5752523
-110.5784446
-109.1536114
-107.3526693
-105.2333004
-102.8916514
-100.2969425
-97.46618774
-94.43216661
-91.2886496
-88.05824975
-84.77429301
-81.45368298
-78.11465113
-74.79389004
-71.50450762
-68.22865409
-64.95453339
-61.70990782
-58.52896462
-55.44985758
-52.4915687
-49.63668134
-46.82055487
-43.99319534
-41.20486985
-38.6094763
-36.200189
-33.81953181
-31.45049692
-29.16842104
-27.12423585
-25.12675057
-23.12619907
-21.19663647
-19.48860465
-17.84845511
-16.2512881
-14.67996461
-13.3023918
-11.96662317
-10.77692658
-9.606044121
-8.571824113
-7.681849704
-6.682113919
-5.614299976
-6.249319196
-6.918938071
-7.492436814
-8.400813652
)


101
(
0
-1.05079162
-0.8185964848
0.2922565375
1.054548762
1.573563747
1.400284989
0.5142014171
-0.5377976562
-1.490272101
-2.380921822
-3.283370046
-4.219934438
-5.189250451
-6.2161503
-7.313122173
-8.488570766
-9.740456869
-11.14727799
-12.76655652
-14.67920469
-16.76837018
-18.85600638
-20.85593797
-22.89753306
-25.19817019
-27.95554688
-31.24946438
-34.95807268
-38.96912801
-43.26627379
-47.94633577
-53.08710462
-58.61671181
-64.46501789
-70.42195924
-76.34114865
-82.15944597
-87.87197575
-93.55151671
-98.89500436
-103.6638873
-107.7009783
-110.838079
-113.1962797
-114.9171115
-116.0177515
-116.5216845
-116.4708893
-115.8030736
-114.5641017
-112.8788523
-110.8288025
-108.4665432
-105.8481348
-103.0611526
-100.1299095
-97.04385838
-93.8224792
-90.52196241
-87.18557867
-83.83394892
-80.48760092
-77.151473
-73.85760041
-70.63393904
-67.46136494
-64.31657419
-61.19124202
-58.12145354
-55.15010738
-52.31090456
-49.58743636
-46.9112567
-44.22040538
-41.53484454
-39.0103678
-36.70598704
-34.44810389
-32.18523099
-29.98037076
-27.98103799
-26.06936683
-24.14583326
-22.23327981
-20.55296496
-18.97274259
-17.4155104
-15.84666459
-14.44721631
-13.17183684
-11.97704117
-10.74817614
-9.688127864
-8.75208312
-7.730906422
-6.553121028
-7.151439611
-7.806768579
-8.445863724
-9.830642915
)


101
(
0
-1.146866519
-0.9055984016
0.2920838193
1.134463022
1.740726912
1.638611432
0.7695346262
-0.2959650906
-1.2605756
-2.152665859
-3.052390013
-3.989469848
-4.961873327
-5.99061304
-7.100802862
-8.286935333
-9.569784838
-10.96896175
-12.60056888
-14.51094741
-16.6691488
-18.87774969
-21.04585243
-23.25184058
-25.74213252
-28.73601569
-32.37581752
-36.60725477
-41.30286077
-46.37956511
-51.83979956
-57.78668533
-64.21861025
-70.88617651
-77.62139637
-84.11649857
-90.22090502
-95.84988593
-101.1089686
-105.8616003
-110.0752771
-113.4827296
-115.9967921
-117.6018523
-118.4524895
-118.7139867
-118.4337743
-117.619048
-116.3476679
-114.5902643
-112.4030365
-109.9556185
-107.2539723
-104.3556402
-101.347015
-98.26048949
-95.09031667
-91.84294722
-88.54644015
-85.24434342
-81.95296451
-78.69052857
-75.45695669
-72.27009459
-69.16207383
-66.14074231
-63.17227486
-60.23016964
-57.3206557
-54.49130862
-51.78985474
-49.20735514
-46.67878741
-44.14763982
-41.60608466
-39.17091691
-36.94562289
-34.79623119
-32.64702367
-30.53979329
-28.59486077
-26.74377095
-24.91967627
-23.05169461
-21.3734548
-19.85555297
-18.32470235
-16.82416741
-15.40605425
-14.16056526
-12.94046302
-11.77142277
-10.64642448
-9.716332983
-8.628162049
-7.454520803
-8.155225996
-8.868240514
-9.441912448
-7.903787192
)


101
(
0
-1.241514172
-0.9957027113
0.2862092629
1.207247035
1.900219874
1.87286035
1.024538468
-0.05375676003
-1.033100267
-1.928840748
-2.828414904
-3.767535841
-4.745033504
-5.779208652
-6.902685767
-8.105818328
-9.407521918
-10.84755654
-12.47150582
-14.38395827
-16.59301768
-18.91651803
-21.28774602
-23.71484405
-26.42547378
-29.6983819
-33.69344219
-38.4464806
-43.81121906
-49.63680507
-55.83461533
-62.38767704
-69.32621042
-76.43673505
-83.50512903
-90.19661289
-96.2353081
-101.5467534
-106.1849337
-110.2048504
-113.5678164
-116.2242734
-118.0564481
-119.0480019
-119.2584839
-118.818155
-117.8702532
-116.5415719
-114.805523
-112.7128942
-110.3039792
-107.6437638
-104.8082285
-101.8274261
-98.76237349
-95.66662347
-92.54942482
-89.39333788
-86.21419433
-83.03655173
-79.88912153
-76.77914213
-73.70588774
-70.67461057
-67.70941279
-64.84110935
-62.05277924
-59.30241565
-56.57432228
-53.89886538
-51.33493644
-48.88126712
-46.47789282
-44.08692133
-41.70241998
-39.38256619
-37.22280334
-35.14292568
-33.08102965
-31.06801337
-29.1877044
-27.37165428
-25.62552883
-23.84030505
-22.14480038
-20.64655555
-19.14942293
-17.68957242
-16.27522883
-15.04665486
-13.75463927
-12.66350724
-11.52926608
-10.56516459
-9.499664016
-8.435555498
-9.100994021
-9.809394326
-10.48517622
-13.1390745
)


101
(
0
-1.337303669
-1.088606855
0.2751761779
1.273470856
2.052448215
2.104216731
1.277360771
0.1872959474
-0.8080870019
-1.710251778
-2.611120293
-3.553657488
-4.53806859
-5.580887481
-6.708034354
-7.940996857
-9.268656328
-10.7320959
-12.38948766
-14.31713816
-16.53424188
-19.00324084
-21.55757887
-24.25955601
-27.26145831
-30.84585949
-35.2076376
-40.41354578
-46.34931438
-52.79614028
-59.53719728
-66.45839843
-73.58624248
-80.76256828
-87.76466476
-94.28887323
-100.1268222
-105.0492236
-108.9532594
-112.1437342
-114.6331089
-116.5316004
-117.787954
-118.3103508
-118.0593284
-117.1810695
-115.8264938
-114.1103015
-112.1333136
-109.8973674
-107.398827
-104.7237024
-101.9089258
-98.99624253
-96.01498954
-93.00442375
-90.01768978
-87.03615117
-84.04890818
-81.06271672
-78.1046268
-75.18183505
-72.29626653
-69.44359346
-66.63987919
-63.91550001
-61.28453094
-58.70918976
-56.15137944
-53.62380263
-51.18542336
-48.84424358
-46.53694492
-44.24230781
-41.99046131
-39.79723758
-37.71173334
-35.67479501
-33.6563538
-31.70703507
-29.88965941
-28.0981688
-26.37872867
-24.68242235
-22.99297498
-21.45570724
-19.99230108
-18.55391919
-17.14350291
-15.90727683
-14.58132929
-13.48195378
-12.38262464
-11.37147711
-10.32509375
-9.255215703
-9.978503555
-10.72941197
-11.51063694
-12.07684754
)


101
(
0
-1.432560293
-1.185157484
0.257956484
1.331455789
2.195297989
2.330569878
1.528296217
0.4278134974
-0.5853902488
-1.496356449
-2.399947412
-3.347530384
-4.340163003
-5.393358314
-6.531533534
-7.781269101
-9.146008564
-10.64859232
-12.32727225
-14.2840308
-16.56072937
-19.11854004
-21.88664923
-24.87492712
-28.2152547
-32.1098236
-36.78068138
-42.33452765
-48.68364411
-55.55993181
-62.61970802
-69.67870111
-76.71525906
-83.62041048
-90.31230336
-96.53358967
-101.9457541
-106.3530903
-109.7268808
-112.1914647
-113.9346053
-115.1349793
-115.8487197
-116.0288625
-115.5960513
-114.5221707
-112.9679975
-111.0919717
-108.9921165
-106.7453654
-104.3325731
-101.758473
-99.08126542
-96.32454816
-93.51698354
-90.6933199
-87.88629117
-85.10213456
-82.33851836
-79.58630523
-76.84258042
-74.12374037
-71.4348577
-68.77015626
-66.13163694
-63.55019837
-61.04917467
-58.61799184
-56.20626387
-53.8085537
-51.47528847
-49.22764477
-46.99537285
-44.75640821
-42.58128671
-40.4963497
-38.49538091
-36.50183009
-34.49642696
-32.56461668
-30.78237732
-29.01524627
-27.27917351
-25.62422885
-23.97435123
-22.38231294
-20.90573548
-19.48988575
-18.06534728
-16.79092691
-15.4696818
-14.31632211
-13.23542567
-12.19178292
-11.13721023
-10.10047543
-10.85516061
-11.65996091
-12.57981539
-12.69612741
)


101
(
0
-1.52719553
-1.285272064
0.2349335403
1.381704527
2.328715859
2.539763872
1.776222867
0.6669220809
-0.3649142065
-1.287016861
-2.195437858
-3.148587497
-4.151470759
-5.215608015
-6.367331385
-7.63378124
-9.031168871
-10.58459669
-12.307606
-14.29992253
-16.63202458
-19.28306548
-22.2586591
-25.51784433
-29.18627257
-33.40897962
-38.34900453
-44.11056833
-50.65061535
-57.71161567
-64.88629331
-71.87571787
-78.69525239
-85.13897476
-91.31415436
-96.99861663
-101.9582723
-106.0125058
-108.9243333
-110.8281352
-112.0217553
-112.6241799
-112.9075122
-112.8959939
-112.3862369
-111.3571438
-109.8278084
-107.9428443
-105.8858035
-103.7189298
-101.4517209
-99.0892417
-96.62742682
-94.10639281
-91.53248681
-88.9265746
-86.33174853
-83.77220871
-81.25164982
-78.72712395
-76.21446225
-73.70648437
-71.20971714
-68.72580777
-66.25241288
-63.81037769
-61.42713326
-59.10777234
-56.81627616
-54.52553877
-52.27658703
-50.10166726
-47.9294692
-45.72232648
-43.57009426
-41.54553977
-39.614414
-37.67403885
-35.68256189
-33.73164083
-31.93665504
-30.18511714
-28.41759357
-26.73341391
-25.11464368
-23.498701
-21.95546446
-20.54306695
-19.09634876
-17.74700953
-16.44173229
-15.23126923
-14.11360586
-13.03999947
-11.94918788
-10.90715137
-11.77143359
-12.6998713
-13.81097002
-15.98393412
)


101
(
0
-1.621358909
-1.389133182
0.2066478485
1.424698057
2.452859566
2.746998904
2.01905872
0.9028540278
-0.1485089448
-1.083518444
-1.997367996
-2.957370893
-3.970796393
-5.048209311
-6.213272844
-7.496100145
-8.923188181
-10.50999527
-12.31105759
-14.3678985
-16.73434387
-19.49282289
-22.64210751
-26.17898254
-30.15030066
-34.64834646
-39.78100244
-45.61065787
-52.13210493
-59.15573293
-66.2180731
-73.05833303
-79.48357065
-85.41930897
-90.96002249
-96.15216145
-100.6211887
-104.2465574
-106.8554996
-108.4865826
-109.3061902
-109.5665429
-109.5459092
-109.3270363
-108.8995561
-108.0244633
-106.6980657
-104.9933545
-103.0673504
-101.0524387
-99.01311814
-96.90787391
-94.7239949
-92.46593921
-90.16672808
-87.82715341
-85.45641483
-83.11209953
-80.80315079
-78.53318338
-76.24930184
-73.95174455
-71.64316542
-69.32772813
-67.01080118
-64.70127036
-62.42568852
-60.20184859
-58.00503868
-55.80205387
-53.62286618
-51.50061849
-49.37815916
-47.19505091
-45.03498908
-43.00915846
-41.10944751
-39.2114838
-37.24804092
-35.27554918
-33.42265393
-31.65589683
-29.8611899
-28.10257296
-26.45871427
-24.84473081
-23.21744124
-21.76470684
-20.29678108
-18.85066394
-17.52551622
-16.26625842
-15.08522076
-13.9522842
-12.8132886
-11.72698081
-12.76033001
-13.89250538
-15.29813653
-16.57370843
)


101
(
0
-1.723580717
-1.492671581
0.1718168347
1.458695291
2.564648574
2.943834855
2.257362081
1.13681697
0.0654133016
-0.8841988316
-1.805678921
-2.77293982
-3.798246807
-4.889366451
-6.069948705
-7.372261162
-8.823872503
-10.46397048
-12.31200249
-14.43120615
-16.90068283
-19.77328318
-23.06797295
-26.80637723
-31.01428992
-35.71529026
-40.94685356
-46.75125534
-53.10145204
-59.84261833
-66.70648087
-73.21694728
-79.23243093
-84.72830702
-89.64840307
-94.23773146
-98.24607783
-101.5855319
-104.0490889
-105.5219109
-106.1885181
-106.3133596
-106.0947034
-105.7863577
-105.401568
-104.8074253
-103.8114589
-102.3895996
-100.7136313
-98.90657084
-97.10857364
-95.28418131
-93.40967106
-91.47184387
-89.45860092
-87.39572983
-85.27491451
-83.1476514
-81.05232269
-78.98451096
-76.92506178
-74.836036
-72.71638117
-70.56497757
-68.38770552
-66.20346496
-64.03134223
-61.88757403
-59.76722782
-57.63657105
-55.51296902
-53.43229759
-51.35254568
-49.19954525
-47.02539223
-44.95817241
-43.03627111
-41.14314262
-39.20006862
-37.2260332
-35.29973388
-33.47175873
-31.65008501
-29.81542383
-28.08139689
-26.45550748
-24.75305016
-23.21364605
-21.71244581
-20.17182722
-18.78230437
-17.45128429
-16.2046258
-14.98357119
-13.79417227
-12.6574357
-13.91341518
-15.33921465
-17.18803011
-19.17406472
)


101
(
0
-1.80225694
-1.601276836
0.1317727307
1.485258725
2.666788696
3.131355246
2.488007677
1.365852115
0.2746239887
-0.6911797002
-1.620794764
-2.596121172
-3.633236196
-4.7391794
-5.936192566
-7.256262261
-8.735964282
-10.41980405
-12.34087971
-14.54478806
-17.10877959
-20.07986247
-23.5013622
-27.3867883
-31.73645204
-36.56445884
-41.82048037
-47.49753925
-53.56557389
-59.90843261
-66.32933577
-72.53660967
-78.20076412
-83.18757241
-87.63407345
-91.66144308
-95.35015002
-98.33402486
-100.6509768
-102.142161
-102.9178214
-103.0808809
-102.8397573
-102.5166498
-102.1846407
-101.8385068
-101.1768685
-100.2133939
-98.86457067
-97.34222785
-95.77968012
-94.25159363
-92.69529976
-91.07192928
-89.38981683
-87.61584644
-85.77545999
-83.86525163
-81.95688052
-80.0824026
-78.22062063
-76.32737223
-74.38656598
-72.3999349
-70.36170419
-68.29322649
-66.2155789
-64.14859487
-62.0902479
-60.0186858
-57.93989864
-55.88959957
-53.84742229
-51.73603885
-49.56487085
-47.44107163
-45.45471736
-43.5232989
-41.56826814
-39.59548547
-37.60544764
-35.67874728
-33.810447
-31.92057326
-30.07136667
-28.37853776
-26.6101914
-24.95385459
-23.38862983
-21.75908988
-20.28547684
-18.85038942
-17.52731044
-16.20671011
-14.97349754
-13.7789595
-15.35384679
-17.20324763
-19.69077493
-22.17979768
)


101
(
0
-1.897124617
-1.712828391
0.08548962969
1.502832511
2.756706678
3.306806875
2.711443574
1.590654845
0.4799205497
-0.503237721
-1.442635309
-2.426215207
-3.475549244
-4.596884442
-5.811253371
-7.14910488
-8.659853594
-10.38166749
-12.37835764
-14.68066217
-17.33991517
-20.40080793
-23.90329213
-27.86529545
-32.2849936
-37.12940812
-42.32334165
-47.80737096
-53.52233773
-59.41302292
-65.3946018
-71.12933161
-76.43680802
-81.09029295
-85.18145806
-88.77928734
-92.05364847
-94.85717647
-97.1142763
-98.69406963
-99.61144755
-99.93486072
-99.89314691
-99.63786179
-99.40969072
-99.21341093
-98.97541191
-98.40218414
-97.50566864
-96.34087237
-95.04394309
-93.7898315
-92.53474496
-91.24806854
-89.87870824
-88.42892001
-86.87337141
-85.21908342
-83.50178397
-81.78647759
-80.09307621
-78.39257586
-76.62522416
-74.79154636
-72.89287457
-70.94045868
-68.9567244
-66.96365561
-64.96634615
-62.9438836
-60.89705128
-58.86429208
-56.84893793
-54.78426549
-52.64221692
-50.48158238
-48.41363257
-46.41231852
-44.40113171
-42.40488988
-40.3654464
-38.32665226
-36.38019683
-34.44185609
-32.49569081
-30.68042868
-28.84262037
-27.05852933
-25.39655451
-23.67337897
-22.11532558
-20.55718798
-19.14378487
-17.72133005
-16.44925526
-15.19063342
-17.22911463
-19.69548893
-23.07575744
-36.50930161
)


101
(
0
-1.991968908
-1.826358757
0.03344266795
1.511958746
2.834935432
3.469965935
2.925811411
1.809448097
0.6801429936
-0.3209900732
-1.271612877
-2.26331173
-3.324613201
-4.461844701
-5.694300743
-7.055249504