/*--------------------------------*- C++ -*----------------------------------*\
| =========                 |                                                 |
| \\      /  F ield         | OpenFOAM: The Open Source CFD Toolbox           |
|  \\    /   O peration     | Version:  2.3.1                                 |
|   \\  /    A nd           | Web:      www.OpenFOAM.org                      |
|    \\/     M anipulation  |                                                 |
\*---------------------------------------------------------------------------*/
FoamFile
{
    version     2.0;
    format      ascii;
    class       dictionary;
    location    "constant";
    object      la_i26;
}
// * * * * * * * * * * * * * * * * * * * * * * * * * * * * * * * * * * * * * //

la_i26_table
101
(

101
(
0
0
0
0
0
0
0
0
0
0
0
0
0
0
0
0
0
0
0
0
0
0
0
0
0
0
0
0
0
0
0
0
0
0
0
0
0
0
0
0
0
0
0
0
0
0
0
0
0
0
0
0
0
0
0
0
0
0
0
0
0
0
0
0
0
0
0
0
0
0
0
0
0
0
0
0
0
0
0
0
0
0
0
0
0
0
0
0
0
0
0
0
0
0
0
0
0
0
0
0
3.570276783e-06
)


101
(
0
1.962507257e-07
-3.42949621e-06
-6.714960418e-06
8.00115276e-05
0.0006131539595
0.002399839884
0.00720051272
0.01772203204
0.03809380757
0.07377767145
0.1322137147
0.2218727571
0.3545267027
0.5411855705
0.7930310643
1.121338005
1.536407621
2.03942041
2.63663146
3.321972625
4.086087725
4.916965159
5.798555853
6.711387601
7.634555808
8.547407921
9.430775501
10.26480648
11.03391798
11.72330465
12.32357706
12.8367522
13.23977206
13.55189706
13.78501343
14.02312157
14.27476204
14.28781321
14.12204945
13.86178065
13.53387017
13.13668327
12.67552437
12.16287891
11.61296417
11.0375281
10.44295815
9.83324103
9.215312185
8.595895764
7.981415854
7.376289784
6.783134635
6.205176549
5.646470515
5.113911292
4.607309062
4.12939958
3.680482776
3.261938586
2.874234578
2.516418515
2.188001402
1.888422033
1.617633367
1.3748229
1.159073171
0.9688388689
0.8016068368
0.6550588388
0.5280640726
0.4210348005
0.3331719912
0.265729197
0.2105857121
0.1592464079
0.116557168
0.08526102025
0.06129016207
0.0422176947
0.02773656581
0.0178881843
0.01145877209
0.006970206381
0.003955188853
0.002196001073
0.001149354357
0.000514364726
0.0002120033768
7.910201424e-05
1.772889369e-05
7.551054838e-06
1.447223136e-06
5.834710998e-07
2.565927612e-07
4.166053712e-08
1.022558896e-07
2.075177836e-07
6.787058521e-07
1.145509453e-06
)


101
(
0
-4.670003269e-08
-7.350564052e-06
-2.716936689e-05
1.49915004e-05
0.0004348035428
0.001953593653
0.006141628592
0.01543506893
0.03349022849
0.0651974412
0.1171229421
0.1969377472
0.3151053398
0.481932326
0.7076945653
1.002851159
1.377252885
1.833586292
2.375910682
3.001684243
3.702921592
4.467806577
5.283644033
6.133344596
6.997853511
7.858043102
8.695984098
9.492920711
10.23416668
10.90572982
11.49677079
12.0051736
12.41675145
12.74748486
13.00783609
13.23932252
13.45400633
13.53032159
13.44449626
13.25308371
12.99624478
12.67625869
12.28653152
11.83367598
11.33683614
10.81476446
10.27570445
9.72235645
9.156815526
8.585619288
8.016104898
7.453976385
6.900783576
6.357771718
5.828005907
5.317305599
4.829393502
4.365987929
3.927907713
3.516540077
3.132688306
2.776109191
2.446227865
2.142251013
1.863761404
1.610456253
1.382659784
1.179842581
0.9994500383
0.8382999387
0.6943170157
0.568665124
0.4624864822
0.3769410436
0.3078070207
0.2450945163
0.1884832784
0.1437068173
0.1096566475
0.08209971516
0.05942492376
0.04248725165
0.02954903126
0.02015371677
0.01340154263
0.008272996182
0.005278628583
0.003232235045
0.001727812361
0.0009311821007
0.0005064712671
0.0002548119403
0.0001204673507
5.387541832e-05
2.031300462e-05
3.122277626e-06
1.216950143e-05
2.518257352e-05
6.570775605e-05
0.0001188771652
)


101
(
0
-2.265087605e-07
-1.095921651e-05
-4.637249289e-05
-4.572070885e-05
0.0002699483603
0.001540491143
0.005169402335
0.01334296513
0.02932093841
0.05744810374
0.1035140286
0.1745102181
0.279717446
0.4287304633
0.6311454163
0.8965571231
1.234357327
1.648400999
2.141725097
2.713639526
3.357600124
4.063192186
4.819469369
5.611809624
6.423359211
7.236431896
8.034006066
8.798953781
9.517077671
10.17508202
10.76177163
11.27209017
11.69254536
12.04070918
12.32564706
12.58267187
12.80069487
12.9133376
12.88980687
12.7615913
12.57275648
12.33208348
12.02491364
11.64545797
11.20829465
10.73840564
10.25283528
9.755117363
9.24415586
8.722339971
8.19654013
7.674395306
7.159293846
6.651228388
6.152019566
5.664775846
5.194721246
4.744566933
4.315170947
3.908506594
3.52554374
3.166574969
2.831395539
2.51942001
2.229985353
1.96287333
1.71807499
1.496743198
1.297844666
1.118208022
0.9542921119
0.8065803087
0.6770051716
0.5667764464
0.474725915
0.3936763274
0.3197569621
0.2557813016
0.2040946287
0.1619679399
0.1256330349
0.09618852494
0.07226451339
0.0537355982
0.03905397125
0.02771486179
0.01875493407
0.01304790027
0.008805082651
0.005566731506
0.003351294877
0.001882189295
0.001155953348
0.0006354161387
0.0002971215805
8.873114053e-05
0.0002633240517
0.0004840624031
0.0009174490029
0.001395618326
)


101
(
0
-3.627300385e-07
-1.42662072e-05
-6.433999077e-05
-0.0001025690032
0.0001166276883
0.001158967341
0.004277208439
0.01143320254
0.02553826578
0.05044314999
0.09128766058
0.1542634465
0.2478495347
0.3808365187
0.5621489969
0.800823707
1.105618208
1.481370141
1.930345443
2.453553844
3.045672896
3.697118184
4.399266938
5.139282332
5.902214533
6.672217716
7.433418815
8.169805668
8.867873351
9.515164715
10.10081651
10.61616933
11.04923807
11.41473466
11.72798388
12.01277305
12.25846784
12.41311497
12.44292793
12.3681835
12.23580675
12.06714763
11.84699439
11.55336409
11.18839119
10.77663674
10.342512
9.897840603
9.442880086
8.974066089
8.494767914
8.012670633
7.533837693
7.059825683
6.591162527
6.130474523
5.680786187
5.245807643
4.825955788
4.42394788
4.041756422
3.679788214
3.338006417
3.016281125
2.714380729
2.432383377
2.169627976
1.926802412
1.704752587
1.501796562
1.314744751
1.14231399
0.9870147399
0.8497393077
0.7295211176
0.6220748006
0.5248741307
0.4376092421
0.3625823303
0.2991049655
0.2431869556
0.1955678827
0.1555491588
0.1227496435
0.09452308318
0.07181976551
0.0536770529
0.03870500119
0.0283160513
0.01979347736
0.01384272561
0.009257068388
0.005939432993
0.003822103606
0.002126826784
0.0008770076062
0.00165074246
0.002825816455
0.006485918399
0.01107693136
)


101
(
0
-4.508096038e-07
-1.726089176e-05
-8.110288957e-05
-0.0001556738075
-2.57220777e-05
0.0008075044089
0.003458899311
0.009690284676
0.02210079855
0.04410654119
0.08025115114
0.1360792242
0.2192287819
0.3379090741
0.5002611668
0.7147645266
0.9897965603
1.330883329
1.739840419
2.218541313
2.763169587
3.365422535
4.017820988
4.709505748
5.42731964
6.157374659
6.885080958
7.595049293
8.274938596
8.913005207
9.498738148
10.02312474
10.47065676
10.85137116
11.18695327
11.5008091
11.78694687
11.99550603
12.08293089
12.05966714
11.97319956
11.86154238
11.72052269
11.51896782
11.2392546
10.89513184
10.51633144
10.12461941
9.724289458
9.310991935
8.88317599
8.445449475
8.004242291
7.56407638
7.125675048
6.692620527
6.266202329
5.849912037
5.443146162
5.048341005
4.66903944
4.305862853
3.958880316
3.627974159
3.313943364
3.017774867
2.738258211
2.474592131
2.228325168
1.999242551
1.786092939
1.586735505
1.40344915
1.237329346
1.08698302
0.949469604
0.8235383516
0.7076565389
0.6040444615
0.5129599836
0.432137084
0.3611449457
0.2988337685
0.2456850068
0.1983491059
0.1577343725
0.1253275346
0.0971064811
0.07376895407
0.05642732785
0.04101570119
0.03015052497
0.0218459515
0.01512569575
0.00898501823
0.004494874636
0.01001103664
0.01684653178
0.02864610232
0.04177073155
)


101
(
0
-4.913533966e-07
-1.996408087e-05
-9.667202162e-05
-0.0002051237547
-0.0001574211649
0.0004838514046
0.002709854333
0.008101634938
0.01897957444
0.03838888547
0.07031075095
0.119745493
0.1935142373
0.2992757257
0.4445979105
0.6372643178
0.885382056
1.194637491
1.567349058
2.005533528
2.506509689
3.06346692
3.669991139
4.316990619
4.992922359
5.685436165
6.381497356
7.06683665
7.729580811
8.358986356
8.944860685
9.478358849
9.942612099
10.34094688
10.6940908
11.0304689
11.35518648
11.62361296
11.78178618
11.81774619
11.77467878
11.70539616
11.62671383
11.51213462
11.32635551
11.06331575
10.74754142
10.4085431
10.06129068
9.705215215
9.333416101
8.945415542
8.547324157
8.143919731
7.737820388
7.332702471
6.931700899
6.536843419
6.147674921
5.765179645
5.392782214
5.032605675
4.684065764
4.34700351
4.022702369
3.713980538
3.420576869
3.140069372
2.872012868
2.617607497
2.377586304
2.150826503
1.939221335
1.743713248
1.561907392
1.392149218
1.234857952
1.087860273
0.9521992714
0.8284260375
0.7158811828
0.6166440932
0.5262914453
0.4461116619
0.3739271746
0.3104342284
0.2551170429
0.2080264582
0.1654389821
0.1327109992
0.1037539638
0.07870805986
0.06031969558
0.04389237713
0.03057984052
0.01812540207
0.03374835204
0.05390043419
0.0917524754
0.1361077976
)


101
(
0
-4.93838472e-07
-2.237871611e-05
-0.0001110835538
-0.0002510600326
-0.0002791654997
0.0001870159656
0.002025982264
0.006656039491
0.01615370096
0.03322673425
0.06138148616
0.1050625171
0.1704114124
0.2644990641
0.3944475917
0.5674327997
0.7910735747
1.071624217
1.410845327
1.812114982
2.273246824
2.788150643
3.352224516
3.957513585
4.593955083
5.250729256
5.916332744
6.577738922
7.223546944
7.843823672
8.430020257
8.972324407
9.45311654
9.871850344
10.24070053
10.5926322
10.94665246
11.27218185
11.50684298
11.61751304
11.6262735
11.59184038
11.5568721
11.51261847
11.41936338
11.24923774
11.00905884
10.72805285
10.43167556
10.12873754
9.81441944
9.48320563
9.134793197
8.774510964
8.405522964
8.03178249
7.658006152
7.287715254
6.920133556
6.554920209
6.194755971
5.84267641
5.498759111
5.161222713
4.830821084
4.512090657
4.207852158
3.915531617
3.632011673
3.357427026
3.093094178
2.83983441
2.600976708
2.378040469
2.16618831
1.963011534
1.772072329
1.592730337
1.425116375
1.267566736
1.117433255
0.9845427812
0.8622355327
0.7500366997
0.6473725028
0.5525080471
0.4683703003
0.3942681328
0.327560559
0.2657333973
0.2170458851
0.1767730993
0.1408929538
0.1109376259
0.08234910441
0.05208996937
0.09079532087
0.1400476517
0.2272950515
0.3383907696
)


101
(
0
-4.590293149e-07
-2.450364027e-05
-0.0001243447526
-0.0002935357131
-0.0003912520922
-8.473837016e-05
0.001402653465
0.005341784289
0.01359397143
0.02856538819
0.05334631444
0.09188786573
0.1497508735
0.2333585644
0.3493790351
0.5045899584
0.7060523971
0.96015508
1.269255595
1.636306754
2.060223812
2.536481014
3.060973084
3.627026069
4.226110692
4.848755321
5.484926044
6.122748247
6.751458647
7.361563741
7.945531971
8.495528344
8.993140318
9.433007804
9.819807365
10.1829024
10.55291236
10.92117282
11.23065945
11.42729184
11.50447799
11.51126642
11.50697648
11.51180409
11.49672905
11.42058849
11.26789755
11.0564017
10.81548195
10.56239061
10.30108559
10.02744294
9.735721871
9.425885603
9.101699318
8.765156672
8.423040986
8.080932706
7.739157483
7.396722106
7.054921451
6.716701205
6.384028198
6.053849805
5.724628879
5.400922675
5.08873476
4.788446636
4.49535262
4.207746643
3.925510384
3.650309773
3.386887733
3.139334304
2.90265028
2.66975117
2.444480521
2.229624309
2.028455537
1.840875477
1.655187601
1.483377868
1.325914249
1.175174439
1.038714675
0.905842796
0.7923084554
0.6829532829
0.5853980225
0.4924406487
0.4218507201
0.3511716792
0.2881344118
0.234941765
0.1801608462
0.1338849611
0.213389251
0.3116311589
0.4590192123
0.6593789027
)


101
(
0
-3.896980843e-07
-2.635998196e-05
-0.0001364983873
-0.0003327212177
-0.0004941130292
-0.0003325308346
0.0008365258561
0.004151007207
0.01127936904
0.02437134718
0.04614494265
0.08006419963
0.1311629265
0.2053474529
0.3088293649
0.4479520786
0.6292642349
0.8591700249
1.140397721
1.476165615
1.866038936
2.305983122
2.793256024
3.322359487
3.88594419
4.382130621
5.082722879
5.696866411
6.307790018
6.906260967
7.486175265
8.040356933
8.552744807
9.013668434
9.42076704
9.795292793
10.17229372
10.56502302
10.93417749
11.2166981
11.37909203
11.4420191
11.46850675
11.50471703
11.54699404
11.55532342
11.49472301
11.36362454
11.18509801
10.98507698
10.77516144
10.55417198
10.31954459
10.0668921
9.792953765
9.502290435
9.199031947
8.890569824
8.578871826
8.264781927
7.947445616
7.629439229
7.314599699
7.000350501
6.68188291
6.360664953
6.045115032
5.739812028
5.44227479
5.149006646
4.857668886
4.567400676
4.283576868
4.014104695
3.757915059
3.50370511
3.250399015
3.002129311
2.764696033
2.546223685
2.332564608
2.122723867
1.929293422
1.737257498
1.56454792
1.392549646
1.246235313
1.100963149
0.9615018624
0.832342361
0.7242352469
0.621452342
0.5293363719
0.4497916699
0.3609964297
0.2722829266
0.4267213819
0.6048627608
0.8111181593
0.9331272642
)


101
(
0
-2.886853523e-07
-2.794278849e-05
-0.0001475421757
-0.0003686253767
-0.00058801173
-0.0005578328414
0.0003234520168
0.003074368385
0.009188969219
0.02059912698
0.03967146285
0.06949920557
0.1144932306
0.180216419
0.2724291534
0.3969714501
0.5598610112
0.7679378694
1.023309695
1.330175126
1.688350706
2.094513176
2.54686242
3.040844825
3.57039743
4.128202602
4.706566295
5.296498655
5.888643899
6.473939423
7.046402565
7.602004453
8.124553969
8.605304119
9.034288544
9.422804209
9.803047776
10.20288212
10.60970341
10.96603187
11.21912436
11.357102
11.42641613
11.4866969
11.56446553
11.63732339
11.66401758
11.61922551
11.51333073
11.3709007
11.21161689
11.042943
10.86141481
10.66459435
10.44711959
10.20891492
9.951609308
9.682627655
9.407230765
9.125947446
8.8388072
8.546896992
8.255192343
7.963198121
7.665108079
7.357885156
7.046895256
6.741422468
6.442940634
6.149452224
5.856990913
5.561315906
5.264801478
4.977207304
4.703787336
4.435677111
4.164761406
3.891871739
3.623626149
3.373734963
3.136260539
2.895168989
2.664375213
2.43652806
2.232275174
2.024812734
1.832891363
1.654910164
1.470291328
1.300985172
1.157295596
1.017025213
0.8859434894
0.7706215315
0.6569191394
0.5378133776
0.7383054338
0.9831826482
1.315851602
1.830420469
)


101
(
0
-1.600176565e-07
-2.926681559e-05
-0.0001575139883
-0.0004013908078
-0.000673411704
-0.0007616779984
-0.0001391958932
0.002104112696
0.007306734456
0.01721017308
0.03388178175
0.06004665397
0.09961858722
0.1577197475
0.2397416772
0.3510312381
0.4974009328
0.684992308
0.9170354635
1.197084042
1.525494407
1.900178408
2.319490977
2.780136729
3.277028902
3.803788218
4.353555066
4.918548105
5.490543125
6.060996935
6.623436729
7.17466749
7.703155095
8.199259865
8.649811245
9.055473173
9.441324782
9.838789963
10.25877172
10.66588577
11.00089173
11.22585336
11.35563439
11.44661645
11.54669615
11.66103488
11.7565099
11.79716616
11.77088575
11.69319606
11.58696101
11.46676933
11.33623134
11.19192778
11.03014625
10.84698081
10.64071643
10.4170413
10.18224204
9.938681855
9.686266208
9.425514658
9.160444308
8.894383384
8.623636618
8.340689118
8.045545939
7.747150752
7.451972205
7.162039196
6.874809945
6.582707371
6.28283695
5.983752855
5.695497908
5.417265155
5.137943894
4.85007336
4.561689455
4.285400643
4.026117303
3.76435886
3.500241008
3.236832471
3.006354752
2.77238632
2.539864761
2.318520394
2.110009991
1.892574084
1.715869752
1.541428442
1.378475575
1.216852425
1.059458122
0.894874835
1.214494764
1.569563714
1.899939222
2.156920049
)


101
(
0
-6.634210559e-09
-3.033837503e-05
-0.000166430807
-0.0004310862169
-0.0007506414494
-0.0009452176656
-0.0005547654978
0.001231970099
0.005617114264
0.01417036187
0.02870968375
0.05159422123
0.08633725376
0.1376357044
0.2103824851
0.3097366862
0.4409822633
0.6101156162
0.8201913541
1.075465133
1.376574363
1.721432282
2.109410947
2.538133041
3.003360932
3.499664937
4.020956276
4.560323223
5.110651496
5.66386138
6.213903939
6.758001601
7.28580109
7.791013263
8.25957935
8.684242264
9.078863724
9.471330391
9.887757541
10.31836179
10.71444021
11.02283523
11.22801834
11.36357989
11.48423167
11.62172304
11.76429467
11.87465471
11.92694565
11.91989462
11.87138534
11.8000487
11.71550672
11.61957972
11.50854968
11.37750741
11.22404392
11.04893538
10.85691833
10.65337372
10.43849289
10.21151103
9.975568681
9.736629422
9.494182062
9.241501382
8.972189221
8.69023112
8.404043406
8.120590556
7.841816141
7.5595097
7.265431693
6.964030878
6.665992633
6.378655349
6.096025246
5.802222954
5.503775773
5.209311669
4.929542169
4.655824119
4.370088331
4.078313556
3.823530353
3.572457813
3.317579608
3.04518915
2.815796625
2.584435741
2.367523646
2.14825225
1.954564675
1.764213178
1.571465349
1.375139257
1.730702732
2.116129082
2.415290444
2.817430249
)


101
(
0
1.705293415e-07
-3.116529559e-05
-0.000174314883
-0.0004577920677
-0.0008200033024
-0.00110953664
-0.0009260345886
0.0004520666914
0.004106040836
0.01144906291
0.0240853677
0.04408116087
0.07450676326
0.1196465059
0.1840798263
0.2726382163
0.3900943857
0.5423325604
0.7324003801
0.9644875084
1.239745839
1.5567007
1.91494905
2.312963316
2.747426266
3.213810309
3.706618054
4.219611979
4.746729295
5.280761245
5.81538293
6.347393466
6.869995011
7.377669936
7.857680011
8.299103023
8.704924099
9.097741458
9.501482182
9.931681069
10.35990854
10.73399329
11.01666059
11.2115816
11.36133287
11.51285125
11.67962451
11.83970243
11.95884019
12.02007809
12.03151714
12.00906412
11.96837565
11.91454628
11.84700897
11.76220315
11.65622552
11.52757579
11.37895323
11.21466391
11.0361718
10.84356011
10.63704266
10.42235942
10.20523363
9.980877479
9.741232302
9.483071018
9.212066434
8.937873197
8.667766468
8.396861825
8.11427221
7.819843886
7.519855986
7.224454781
6.939396695
6.645265031
6.344652578
6.042534995
5.746204928
5.464208455
5.171069539
4.860674433
4.585695035
4.327153951
4.059988425
3.766914679
3.507304532
3.269420487
3.03257348
2.779688135
2.55948978
2.344579191
2.128781507
1.876731772
2.204523792
2.539385033
2.708090912
3.008831656
)


101
(
0
3.670265982e-07
-3.175904458e-05
-0.0001811945451
-0.0004816124143
-0.0008818780564
-0.001255566767
-0.00125574702
-0.0002415021554
0.002757491861
0.009022160225
0.01997643131
0.03738726196
0.0639811262
0.1036019694
0.1605969742
0.2392897629
0.3443532132
0.4809142268
0.6526137872
0.8631744335
1.114406362
1.404953831
1.73481889
2.103147937
2.507613801
2.944413824
3.408644845
3.894550029
4.396794824
4.909180509
5.426200841
5.943830322
6.454763949
6.957770953
7.441284378
7.89428947
8.311864588
8.706809209
9.098726563
9.514242721
9.945568379
10.35821486
10.70445544
10.96421454
11.15498701
11.32162933
11.49760529
11.68198576
11.84821375
11.96870126
12.0354303
12.06054551
12.0583443
12.03971572
12.00750333
11.95961058
11.89165716
11.80201917
11.69057485
11.56065506
11.41373807
11.2509876
11.07081867
10.87635072
10.67598701
10.47207628
10.25684134
10.02291302
9.769513115
9.505909614
9.242661747
8.979009721
8.705741216
8.422640207
8.12991357
7.831083747
7.540879235
7.24697306
6.948711764
6.649013509
6.345743474
6.056116031
5.76769146
5.453402025
5.162671895
4.905062351
4.631778197
4.347124487
4.067008294
3.827672488
3.577107011
3.333517879
3.087055707
2.871027492
2.628538446
2.35931257
2.613047744
2.807690656
2.697929445
1.92003826
)


101
(
0
5.800898164e-07
-3.213125314e-05
-0.0001870910892
-0.0005026166947
-0.0009365361694
-0.001384300505
-0.001546464735
-0.000854420648
0.00156087652
0.006866013838
0.01632166774
0.03145382853
0.0546389908
0.0893418708
0.1396397981
0.2094424818
0.303107269
0.4256448176
0.5801670593
0.7707029124
0.9993444702
1.264947766
1.567848231
1.90756308
2.282632356
2.690153143
3.125728034
3.583958919
4.059902146
4.548256856
5.044095748
5.544010369
6.040134191
6.531673174
7.010500141
7.466837677
7.893242259
8.290574446
8.674563739
9.067260726
9.483102237
9.902860164
10.28793346
10.60300177
10.84052942
11.02904728
11.20758029
11.39643946
11.58384968
11.74336916
11.85635114
11.92142601
11.95138358
11.95831744
11.94932755
11.92513682
11.88274545
11.81907152
11.73337029
11.62686214
11.50162045
11.3583524
11.19527915
11.01335969
10.81935541
10.62128433
10.41702766
10.19677663
9.956593374
9.700543923
9.439794246
9.175884331
8.901429085
8.622100839
8.340208667
8.045996381
7.750865237
7.452265594
7.15499986
6.863147983
6.565417892
6.272431021
5.992136145
5.693619234
5.398177376
5.1440554
4.881061964
4.614630619
4.338745373
4.112650417
3.853804835
3.642023961
3.404917848
3.194271528
2.968999398
2.735176487
2.765442391
2.67328483
2.252580373
1.983595131
)


101
(
0
8.084568654e-07
-3.226854417e-05
-0.0001920184003
-0.0005208494426
-0.0009841578662
-0.001496239099
-0.001800959526
-0.00139309331
0.0005051693963
0.004954556997
0.01308268605
0.026206561
0.04637081583
0.07670428326
0.1208752625
0.1827657118
0.2661055964
0.3756333679
0.5145344229
0.6864801423
0.8936297329
1.135908039
1.412976248
1.725201084
2.071560689
2.449969799
2.856632748
3.286558975
3.734896946
4.196911693
4.668750232
5.147289701
5.624663816
6.09921185
6.565913136
7.017260785
7.442741452
7.839663484
8.218060114
8.590088637
8.978626246
9.380441129
9.772702756
10.12035137
10.3989277
10.61386153
10.79497284
10.97417113
11.15880471
11.33184166
11.47028658
11.5633082
11.61360075
11.63413557
11.63386273
11.61541232
11.57997574
11.52476986
11.44753169
11.34804376
11.22781399
11.08715861
10.92497246
10.74171843
10.54023032
10.32972874
10.11591648
9.891299178
9.648810685
9.38880176
9.121397115
8.848213502
8.559422004
8.26620168
7.984735471
7.697819055
7.4015699
7.095774469
6.792666653
6.505722058
6.222362677
5.937140851
5.664359477
5.395004594
5.117387843
4.870973113
4.636509738
4.404261952
4.161329391
3.961821322
3.733500943
3.550354922
3.361536982
3.177648117
2.989459027
2.775414302
2.518640576
2.044176743
1.277244633
0.01909678935
)


101
(
0
1.048435932e-06
-3.222236854e-05
-0.0001960196967
-0.0005364555441
-0.001025185692
-0.001592610321
-0.002021026475
-0.001861371904
-0.0004195410754
0.003270087353
0.01022551311
0.0215695985
0.03906581356
0.06551957654
0.1042551371
0.158887688
0.2329404203
0.3306593526
0.4549847758
0.6096765694
0.7969660217
1.016890197
1.269489508
1.555192722
1.873569436
2.223042063
2.600619385
3.001786134
3.421631086
3.855375709
4.300217084
4.753843125
5.208681506
5.662533776
6.11010967
6.545507811
6.962537221
7.354572332
7.721783562
8.075031298
8.431713918
8.799677118
9.171524632
9.522568885
9.821867874
10.05787643
10.24260285
10.40499215
10.566606
10.72564149
10.86372696
10.96278782
11.01782993
11.03420158
11.02369423
10.99152277
10.94068386
10.86903922
10.7759209
10.66056335
10.52205507
10.36077634
10.17620506
9.969872694
9.740459734
9.497866085
9.24892063
8.993865418
8.724413639
8.439509733
8.148260524
7.852533956
7.537708061
7.213127715
6.908440903
6.616436648
6.321098094
6.011030838
5.69734712
5.406953774
5.139170109
4.873551145
4.614600333
4.378590009
4.144491587
3.925115159
3.730800976
3.556363227
3.373293291
3.221898884
3.064346402
2.929352777
2.815065782
2.692611747
2.562657163
2.409694326
1.794949366
0.8738578684
-0.207173776
-1.495037081
)


101
(
0
1.297902504e-06
-3.197225256e-05
-0.0001991121634
-0.0005494802881
-0.001059861594
-0.001676235564
-0.002209031939
-0.002264906046
-0.001222646719
0.001795504353
0.007709861956
0.01749521106
0.03265265165
0.05564475011
0.08953623019
0.137618092
0.2032145074
0.2902316958
0.4012390429
0.5398774987
0.7085058764
0.9072984522
1.136654339
1.396799199
1.687917891
2.008848144
2.357143843
2.729033416
3.119713007
3.523892569
3.93895136
4.364166332
4.791602443
5.22037014
5.643853231
6.057813061
6.456163488
6.830848764
7.182806464
7.515591966
7.838983604
8.166175356
8.497617262
8.820562968
9.113498286
9.353395311
9.535598677
9.676880708
9.800815503
9.920640044
10.02810096
10.10620767
10.14178037
10.13400427
10.09021806
10.01801152
9.924352706
9.808864534
9.670405488
9.508209069
9.321478887
9.109951866
8.872847507
8.612625336
8.32811653
8.026955307
7.715820392
7.398766346
7.072076158
6.734945239
6.393468634
6.053243075
5.69802369
5.327962695
4.976937469
4.658746684
4.354223351
4.041496289
3.720872244
3.423535516
3.167570261
2.930717621
2.699741166
2.504523105
2.331957387
2.171329511
2.036344088
1.943145117
1.848902422
1.779463054
1.727112419
1.683062768
1.663828029
1.639793737
1.595453086
1.530053683
0.5720502941
-0.7640275596
-2.042577071
-3.892082726
)


101
(
0
1.554812681e-06
-3.154940035e-05
-0.0002013160299
-0.0005599849275
-0.001088600016
-0.0017447409
-0.002367472854
-0.002608802718
-0.001915403213
0.0005109099261
0.005508534119
0.01391981675
0.0270137376
0.0469683677
0.07652309922
0.1187041076
0.1766177792
0.2537268638
0.3527459151
0.476650553
0.6276291526
0.8065675819
1.013739072
1.249505289
1.514144983
1.806954219
2.125978648
2.468115874
2.828939561
3.202567757
3.586110495
3.978810907
4.375874523
4.774941087
5.170610587
5.554920299
5.926644642
6.277638899
6.604769233
6.909336201
7.198646677
7.479469107
7.757589339
8.031965514
8.286757112
8.504775041
8.668342477
8.780360905
8.856305784
8.916180156
8.963056624
8.987434002
8.974533089
8.915827791
8.812757629
8.67206914
8.503896315
8.310098196
8.091166497
7.847772836
7.576325184
7.278466297
6.953470982
6.601921903
6.226571451
5.832756449
5.426925216
5.015498484
4.598605804
4.176474837
3.753827474
3.341530565
2.925997122
2.496653594
2.084267381
1.716353753
1.383879004
1.064282341
0.7459548724
0.449616143
0.2062944941
0.006629385344
-0.1731754749
-0.3125583408
-0.4020787911
-0.4683568951
-0.5084250997
-0.4934897292
-0.4640319502
-0.4048201775
-0.3178123824
-0.2216979971
-0.1110676712
-0.001563661235
0.07753060154
0.1319117373
-1.082660171
-2.690460756
-3.947122517
-5.524884709
)


101
(
0
1.825535215e-06
-3.090861305e-05
-0.0002026753625
-0.0005681031633
-0.001111325127
-0.001800373343
-0.002497797189
-0.002896387814
-0.002504029519
-0.0005945939143
0.003593339247
0.01080389812
0.02209155721
0.03935508121
0.06506778651
0.1019763985
0.1528836475
0.2211286393
0.3088881875
0.4191276498
0.5540878018
0.7143897497
0.9004797899
1.112779742
1.351803743
1.61709088
1.907064885
2.219186805
2.549492951
2.892098254
3.242250018
3.600556465
3.963113884
4.327436204
4.690575117
5.042867385
5.381142384
5.697705719
5.98918497
6.258855921
6.508258333
6.73920992
6.958556202
7.168026514
7.360892395
7.525392229
7.645770861
7.713072019
7.73002726
7.713630685
7.673556417
7.611157769
7.515193813
7.373112757
7.181240906
6.940791065
6.664631915
6.35621814
6.01892554
5.65253419
5.255550744
4.830261454
4.377273773
3.892834289
3.385310432
2.858801665
2.320994048
1.779393335
1.235211818
0.6925599418
0.1581004785
-0.3555007372
-0.8567292362
-1.359672162
-1.842381921
-2.271521522
-2.645594146
-2.979104039
-3.286554335
-3.565295196
-3.776130852
-3.920514264
-4.02085576
-4.068672643
-4.043945875
-3.974230737
-3.868855324
-3.705199991
-3.506410843
-3.261327692
-2.996471484
-2.709803544
-2.421077134
-2.135865578
-1.891632005
-1.665683047
-2.976113721
-4.600237049
-5.547297718
-6.499507051
)


101
(
0
2.083385654e-06
-3.015542321e-05
-0.0002032038468
-0.0005738508975
-0.001128513832
-0.0018435191
-0.002602564829
-0.003133259223
-0.002998707815
-0.001540377373
0.001939339133
0.00809278963
0.01780582801
0.03270685141
0.05501098542
0.08717481365
0.1317914139
0.1918836549
0.2695384495
0.367306747
0.487303263
0.630110323
0.7963766684
0.9863585202
1.200633544
1.43915191
1.70046763
1.982465955
2.281761689
2.592653237
2.909873741
3.231590665
3.555779241
3.883013692
4.207984452
4.524020218
4.82137448
5.099368847
5.349362455
5.573523499
5.772308785
5.947858392
6.103609459
6.238727451
6.352357515
6.437816697
6.487779123
6.484288988
6.426536259
6.31817065
6.171022255
5.990656767
5.775621679
5.514967164
5.198500284
4.825300762
4.405348623
3.945030841
3.448357793
2.916790639
2.350225828
1.751761444
1.126328364
0.4660196092
-0.2166071456
-0.9183518237
-1.629415711
-2.339898614
-3.047112752
-3.741952997
-4.417976892
-5.061457921
-5.672194186
-6.261482159
-6.816362665
-7.300156169
-7.710696363
-8.05903834
-8.340148281
-8.56854207
-8.705924259
-8.754613697
-8.732673514
-8.637540551
-8.446008589
-8.182725783
-7.871537585
-7.501329004
-7.074878824
-6.58071711
-6.08284642
-5.561345786
-5.037209719
-4.533432348
-4.077934036
-3.624559684
-4.791072105
-6.081426535
-6.43792159
-6.47649998
)


101
(
0
2.342036278e-06
-2.923243243e-05
-0.0002029442151
-0.0005773600306
-0.001140441379
-0.001875251031
-0.002683153779
-0.003322590063
-0.003405860847
-0.002336895857
0.0005233201071
0.005752499106
0.01408546523
0.02692017027
0.04621098341
0.07412799424
0.113104974
0.1657482224
0.2341954921
0.3206178358
0.4267956544
0.5533169997
0.7009037884
0.8698280622
1.060535276
1.273152128
1.506454027
1.758523359
2.02655106
2.305415674
2.589076727
2.875046793
3.159465145
3.444755815
3.727129079
4.001544131
4.257659477
4.488687916
4.689227158
4.859641592
5.001834759
5.11547114
5.198837463
5.254788721
5.277411169
5.267105862
5.214986857
5.117929395
4.961206202
4.743549379
4.471194157
4.147851753
3.78143619
3.363779693
2.886466624
2.343084522
1.742619949
1.091003713
0.3942372427
-0.3442095759
-1.124413037
-1.943149748
-2.788322144
-3.666309446
-4.567091889
-5.483630988
-6.406827789
-7.324121058
-8.225712501
-9.09930434
-9.93608107
-10.72558675
-11.46008468
-12.13988811
-12.75540842
-13.2707151
-13.6901674
-14.01945805
-14.23968899
-14.36265812
-14.36692706
-14.24906026
-14.03716964
-13.71860501
-13.28545619
-12.7512543
-12.16210848
-11.5149654
-10.79238902
-9.989423013
-9.192241411
-8.390526387
-7.58414028
-6.831069939
-6.117561071
-5.387053123
-6.13896321
-6.749474491
-6.324257778
-6.777452668
)


101
(
0
2.607726683e-06
-2.817129722e-05
-0.000201923167
-0.0005786986942
-0.001147477258
-0.001895978112
-0.00274155525
-0.00346875004
-0.003733469092
-0.002997908064
-0.0006779197045
0.003744840184
0.01088056174
0.02190628506
0.03853783598
0.0627245881
0.09655098881
0.1425550931
0.2025097047
0.2785582816
0.3721374631
0.4836238702
0.6137532313
0.7629161399
0.931414359
1.119328529
1.325376826
1.547898428
1.78462461
2.031177141
2.2817841
2.531615841
2.776103925
3.017542007
3.255057534
3.482784701
3.691918661
3.873378517
4.020835506
4.132919834
4.209977188
4.250872483
4.254895261
4.22352326
4.15062962
4.032099425
3.862521268
3.641963268
3.360320835
3.013878234
2.596658643
2.112161797
1.565860479
0.9587809081
0.2821975965
-0.4696032179
-1.28747722
-2.169670288
-3.10698576
-4.092104254