/*--------------------------------*- C++ -*----------------------------------*\
| =========                 |                                                 |
| \\      /  F ield         | OpenFOAM: The Open Source CFD Toolbox           |
|  \\    /   O peration     | Version:  2.3.1                                 |
|   \\  /    A nd           | Web:      www.OpenFOAM.org                      |
|    \\/     M anipulation  |                                                 |
\*---------------------------------------------------------------------------*/
FoamFile
{
    version     2.0;
    format      ascii;
    class       dictionary;
    location    "constant";
    object      la_i23;
}
// * * * * * * * * * * * * * * * * * * * * * * * * * * * * * * * * * * * * * //

la_i23_table
101
(

101
(
0
0
0
0
0
0
0
0
0
0
0
0
0
0
0
0
0
0
0
0
0
0
0
0
0
0
0
0
0
0
0
0
0
0
0
0
0
0
0
0
0
0
0
0
0
0
0
0
0
0
0
0
0
0
0
0
0
0
0
0
0
0
0
0
0
0
0
0
0
0
0
0
0
0
0
0
0
0
0
0
0
0
0
0
0
0
0
0
0
0
0
0
0
0
0
0
0
0
0
0
-1.873290023e-16
)


101
(
0
-3.102165386e-09
4.496281288e-07
5.356143112e-06
2.725564448e-05
7.281287367e-05
0.0001334660696
0.0002353643585
0.000365935855
0.0005215593322
0.0006915529464
0.0008673609116
0.001037676705
0.001190342247
0.001317152437
0.001412720116
0.001469789362
0.001466608444
0.001461614767
0.001377284265
0.001283840964
0.001187159533
0.001058872899
0.0009252989624
0.0007980642501
0.0006794314961
0.0005718737858
0.0004766610595
0.0003936285175
0.0003227306541
0.0002632559877
0.0002140562639
0.0001705764657
0.0001372442112
0.00011034192
8.670470493e-05
7.462001498e-05
8.541765536e-05
7.581167565e-05
5.988299842e-05
4.721991735e-05
3.683719776e-05
2.872863631e-05
2.24923295e-05
1.74566548e-05
1.353859051e-05
1.04349399e-05
8.02945648e-06
6.150312393e-06
4.703701365e-06
3.580394227e-06
2.710254117e-06
2.042798697e-06
1.523447623e-06
1.125472267e-06
8.22497607e-07
6.023182753e-07
4.362476258e-07
3.134438089e-07
2.230163939e-07
1.5716009e-07
1.094986078e-07
7.506554764e-08
5.064782968e-08
3.350832642e-08
2.193346051e-08
1.405285208e-08
8.806897726e-09
5.384638361e-09
3.198088754e-09
1.842976204e-09
1.025855758e-09
5.612205481e-10
2.908473391e-10
1.407049473e-10
6.61770309e-11
2.857345532e-11
1.141948985e-11
4.082511937e-12
1.119880846e-12
1.332961225e-13
-1.193407583e-13
-1.07406502e-13
-7.134274937e-14
-3.602720852e-14
-1.406881452e-14
-3.800568068e-15
-8.844901428e-16
-4.03935423e-16
-1.254349461e-16
-2.993940023e-17
-7.567215216e-18
-3.154296431e-19
-4.214017989e-20
1.186568905e-19
4.118782341e-20
6.432917997e-21
2.174714879e-20
6.702615466e-20
3.63581775e-19
-6.010378209e-17
)


101
(
0
-1.405383893e-08
1.312910311e-07
1.905651386e-06
9.075379797e-06
2.200334728e-05
3.642951179e-05
5.816759065e-05
8.276725817e-05
0.0001090691471
0.0001352312864
0.0001605062895
0.0001841471207
0.0002049627307
0.0002231880208
0.0002384370418
0.0002500547894
0.0002559180173
0.0002615762111
0.0002596717761
0.0002554807166
0.000248878038
0.0002383233544
0.0002251023885
0.0002101187905
0.0001938749607
0.0001769491916
0.0001598834988
0.0001432214248
0.0001272900438
0.0001124035922
9.869874207e-05
8.597466155e-05
7.46357736e-05
6.405440264e-05
5.569696901e-05
4.941868184e-05
4.1719281e-05
3.677846486e-05
3.245328939e-05
2.783547508e-05
2.341117655e-05
1.9642982e-05
1.646010871e-05
1.374693183e-05
1.14611248e-05
9.53190405e-06
7.888608136e-06
6.502117826e-06
5.331442322e-06
4.349435255e-06
3.529151112e-06
2.851396991e-06
2.291868054e-06
1.827326546e-06
1.446499325e-06
1.132912499e-06
8.823822736e-07
6.821499279e-07
5.225049252e-07
3.973565009e-07
2.991333692e-07
2.220977581e-07
1.632020115e-07
1.185617683e-07
8.503858088e-08
5.987410931e-08
4.141843164e-08
2.83162969e-08
1.886270116e-08
1.229714372e-08
7.747573389e-09
4.835777365e-09
2.923263809e-09
1.698167882e-09
9.479955372e-10
5.065942348e-10
2.594991234e-10
1.305056601e-10
6.28341638e-11
2.844636088e-11
1.145790859e-11
4.40902994e-12
1.419198064e-12
3.235001054e-13
8.435667555e-15
-2.911733366e-14
-2.951836777e-16
-3.573123291e-16
-1.8382004e-15
-5.677726417e-16
7.288100519e-17
1.333020709e-16
6.619750762e-17
2.968138178e-17
9.440965129e-18
1.130984767e-18
8.219539698e-18
3.847912135e-17
3.340123794e-16
2.722687039e-15
)


101
(
0
-1.827766033e-08
4.874447496e-09
6.475272703e-07
3.095756648e-06
7.105282634e-06
1.13492255e-05
1.765978876e-05
2.520633444e-05
3.424198391e-05
4.485434675e-05
5.728827622e-05
7.175343888e-05
8.778847285e-05
0.0001053350355
0.000123785441
0.0001422622515
0.0001595350601
0.0001756803741
0.0001888096612
0.0001988884224
0.0002052620605
0.0002078208337
0.0002065695348
0.0002017457899
0.0001939294719
0.000183716833
0.0001717333296
0.0001587602132
0.0001453319858
0.0001319217983
0.0001189689646
0.0001064382907
9.49153996e-05
8.383652906e-05
7.206118998e-05
6.641975765e-05
5.776042314e-05
5.034231736e-05
4.497435665e-05
3.976058108e-05
3.458377809e-05
2.990941514e-05
2.573939632e-05
2.207555412e-05
1.893397433e-05
1.620740258e-05
1.384716208e-05
1.177720525e-05
9.984182198e-06
8.416811381e-06
7.064308024e-06
5.90904532e-06
4.920946616e-06
4.074775047e-06
3.370162227e-06
2.749672352e-06
2.234364167e-06
1.804945696e-06
1.444946066e-06
1.150584786e-06
9.097776872e-07
7.123288044e-07
5.53020599e-07
4.253793168e-07
3.228361053e-07
2.422907643e-07
1.783151621e-07
1.305722908e-07
9.42333852e-08
6.676754744e-08
4.615442304e-08
3.149160953e-08
2.106083451e-08
1.37312608e-08
8.718689366e-09
5.341550968e-09
3.177296283e-09
1.83618544e-09
1.042762574e-09
5.77877322e-10
2.997478774e-10
1.507252059e-10
7.240845443e-11
3.251455209e-11
1.329158328e-11
4.920746508e-12
2.026269088e-12
8.908015525e-13
3.272349069e-13
9.677755889e-14
3.77115753e-14
1.465924444e-14
6.499977197e-15
2.745994671e-15
8.541443309e-16
1.316867387e-16
1.751940259e-15
8.751812047e-15
7.282676087e-14
2.683377206e-13
)


101
(
0
-1.947960586e-08
-4.399790402e-08
1.911362962e-07
1.133555004e-06
2.732125161e-06
4.814338607e-06
8.267341714e-06
1.324330826e-05
2.023441327e-05
2.955497535e-05
4.144208563e-05
5.609940113e-05
7.311550583e-05
9.225400638e-05
0.0001129073074
0.0001341784649
0.000154950246
0.0001746837782
0.0001920492385
0.0002064386746
0.000217151973
0.0002239474702
0.0002266716474
0.0002254101093
0.0002206014383
0.0002127527724
0.0002024963771
0.0001906099186
0.0001776967941
0.0001640993442
0.0001508159231
0.0001374729049
0.0001250043064
0.0001126278661
0.000102343725
9.227466137e-05
8.225027422e-05
7.325168593e-05
6.565101101e-05
5.892202243e-05
5.251398612e-05
4.661236147e-05
4.114885653e-05
3.617638153e-05
3.179315837e-05
2.788649597e-05
2.440071833e-05
2.12599132e-05
1.851444001e-05
1.605213169e-05
1.385847279e-05
1.191867827e-05
1.022621443e-05
8.737683025e-06
7.421859877e-06
6.281781205e-06
5.285006944e-06
4.429474801e-06
3.671836486e-06
3.030216365e-06
2.490393248e-06
2.030244969e-06
1.646479956e-06
1.327453838e-06
1.054145777e-06
8.295981818e-07
6.459659891e-07
4.984653356e-07
3.822907149e-07
2.870437719e-07
2.126691911e-07
1.551756922e-07
1.119275284e-07
7.930092673e-08
5.520298383e-08
3.723362827e-08
2.464806963e-08
1.586279351e-08
1.002045707e-08
6.249989661e-09
3.750102711e-09
2.170424736e-09
1.228601856e-09
6.693578835e-10
3.443539112e-10
1.660332339e-10
7.896653844e-11
3.785214838e-11
1.773925167e-11
7.231757901e-12
3.002007616e-12
1.255611936e-12
4.960619295e-13
2.120119592e-13
6.896585937e-14
1.294779721e-14
1.519617545e-13
7.588475686e-13
7.297727763e-12
2.584416304e-11
)


101
(
0
-1.93315371e-08
-6.157739485e-08
2.701517179e-08
4.883202158e-07
1.432740325e-06
3.056438008e-06
5.968096034e-06
1.053802888e-05
1.727195598e-05
2.650621292e-05
3.847454172e-05
5.338784618e-05
7.094575669e-05
9.091537655e-05
0.0001127857749
0.0001357444257
0.0001587560808
0.0001811642532
0.0002017517355
0.0002197336517
0.0002343454966
0.0002451680369
0.0002518452183
0.000254329101
0.0002528815455
0.0002478382201
0.0002398159281
0.0002295681813
0.0002176756232
0.0002047643838
0.000191159067
0.0001771698657
0.000164055405
0.0001506618981
0.000138728148
0.0001273867842
0.0001160026362
0.0001052013562
9.554991649e-05
8.688216359e-05
7.890661352e-05
7.151084682e-05
6.457868479e-05
5.806618027e-05
5.208290013e-05
4.659333832e-05
4.163528638e-05
3.714214042e-05
3.309984351e-05
2.937242139e-05
2.595561061e-05
2.283860805e-05
2.00558023e-05
1.758303814e-05
1.533613389e-05
1.33165907e-05
1.15116622e-05
9.962151134e-06
8.527046703e-06
7.224741189e-06
6.138730859e-06
5.163232135e-06
4.33173848e-06
3.624767718e-06
2.999453185e-06
2.462182723e-06
2.003185234e-06
1.606781202e-06
1.29570964e-06
1.024206274e-06
8.013032851e-07
6.171662492e-07
4.712550772e-07
3.549111603e-07
2.637722995e-07
1.929624513e-07
1.387213578e-07
9.672185855e-08
6.639241308e-08
4.486789812e-08
3.006251196e-08
1.938281688e-08
1.226688534e-08
7.563113462e-09
4.50316603e-09
2.543193103e-09
1.403779535e-09
7.620595969e-10
4.065221528e-10
2.041016934e-10
9.594597469e-11
4.686327175e-11
2.152186204e-11
9.872442646e-12
3.549425167e-12
8.211187938e-13
1.049385109e-11
4.65746827e-11
3.369579459e-10
9.575174406e-10
)


101
(
0
-1.859508366e-08
-6.658688957e-08
-3.100800357e-08
2.725787938e-07
1.027466472e-06
2.528472574e-06
5.288735715e-06
9.725562032e-06
1.634272945e-05
2.550178111e-05
3.747359582e-05
5.250518448e-05
7.042706913e-05
9.105600794e-05
0.0001139907717
0.0001385261214
0.0001637008304
0.0001888182043
0.0002127044774
0.0002344836769
0.0002533173959
0.0002686782626
0.0002799500167
0.000286912871
0.0002896772375
0.0002883362676
0.0002833810888
0.0002755402777
0.000265439952
0.0002537063399
0.0002407106907
0.0002267482259
0.0002131646883
0.000199148621
0.0001859397542
0.0001733277011
0.0001606953846
0.0001482900142
0.0001368315255
0.0001262103563
0.0001163616087
0.0001071866176
9.858757946e-05
9.035549124e-05
8.248622805e-05
7.504435217e-05
6.831065802e-05
6.21764825e-05
5.646533495e-05
5.123504657e-05
4.623430217e-05
4.149931072e-05
3.715073554e-05
3.333329379e-05
2.973806908e-05
2.636206581e-05
2.334640155e-05
2.064166301e-05
1.812800777e-05
1.583261641e-05
1.382892043e-05
1.199207845e-05
1.032908982e-05
8.889756253e-06
7.604765929e-06
6.456831809e-06
5.444085498e-06
4.540989584e-06
3.77266914e-06
3.109171676e-06
2.545648027e-06
2.059843356e-06
1.650844545e-06
1.307341841e-06
1.022963737e-06
7.945272044e-07
6.076423599e-07
4.54775776e-07
3.34880103e-07
2.423487089e-07
1.747117873e-07
1.230617123e-07
8.475375696e-08
5.750069996e-08
3.79493015e-08
2.422600471e-08
1.494209585e-08
9.129697775e-09
5.446036307e-09
3.139549824e-09
1.706352014e-09
9.334089994e-10
4.937906044e-10
2.528140307e-10
1.120156213e-10
3.285953359e-11
3.313677672e-10
1.327561807e-09
7.869520797e-09
2.095878191e-08
)


101
(
0
-1.762102579e-08
-6.659979784e-08
-5.071475265e-08
1.962455109e-07
8.818396304e-07
2.318843591e-06
4.983348955e-06
9.30991709e-06
1.580514632e-05
2.486585944e-05
3.680964243e-05
5.193161157e-05
7.01878564e-05
9.14601312e-05
0.0001154546327
0.0001415863366
0.0001689742824
0.0001969169217
0.0002242615799
0.0002500873374
0.0002734929767
0.0002939244795
0.0003104316014
0.0003225577391
0.0003303326604
0.0003336022182
0.0003326873721
0.0003282613534
0.0003209342337
0.0003113086992
0.0002997842163
0.0002866020799
0.0002732335585
0.0002592352828
0.0002456511475
0.0002323022826
0.0002187636813
0.0002053780673
0.0001923661552
0.0001799117723
0.0001678088592
0.0001567338665
0.0001464276096
0.0001364445671
0.0001267082812
0.0001171485578
0.0001081530206
9.992505079e-05
9.22207758e-05
8.524615597e-05
7.821302224e-05
7.156807395e-05
6.538297062e-05
5.96700908e-05
5.423211143e-05
4.917217676e-05
4.443294067e-05
4.008053643e-05
3.592905102e-05
3.203542991e-05
2.859356722e-05
2.53981425e-05
2.246581895e-05
1.980282567e-05
1.738504645e-05
1.514318459e-05
1.317818675e-05
1.136727659e-05
9.764985553e-06
8.344631764e-06
7.067690906e-06
5.933724697e-06
4.942340643e-06
4.088875906e-06
3.340354941e-06
2.713226251e-06
2.181326461e-06
1.733113899e-06
1.356692733e-06
1.042939123e-06
7.924365453e-07
5.988264277e-07
4.417895073e-07
3.225043676e-07
2.310751144e-07
1.612532361e-07
1.093355487e-07
7.336510894e-08
4.816102694e-08
3.055117055e-08
1.872766727e-08
1.154401413e-08
6.884927102e-09
3.989204414e-09
2.10717118e-09
7.732575545e-10
5.830338024e-09
2.071534601e-08
1.010455048e-07
2.875543556e-07
)


101
(
0
-1.656897706e-08
-6.466949736e-08
-5.663914033e-08
1.650093571e-07
8.118744487e-07
2.193638651e-06
4.768975519e-06
8.986075713e-06
1.535685843e-05
2.43172582e-05
3.62315894e-05
5.144929982e-05
7.003549659e-05
9.195489908e-05
0.000117014593
0.0001447584053
0.0001743902049
0.0002052360061
0.0002361713097
0.0002662426102
0.0002945028346
0.0003204354001
0.0003427267995
0.0003605465457
0.0003739237103
0.0003827421437
0.0003871163243
0.0003874652094
0.0003843179952
0.0003782334033
0.0003696713447
0.0003587857491
0.0003465515272
0.000333707978
0.0003205309484
0.0003066826439
0.0002922232127
0.0002782734812
0.0002642857156
0.0002507164703
0.0002374300581
0.0002245526997
0.0002122116762
0.0002002043471
0.0001884904984
0.0001768277472
0.0001654635888
0.0001553136371
0.0001455666765
0.0001360697674
0.0001265900648
0.0001178488752
0.0001090779791
0.0001011557811
9.382353492e-05
8.644637344e-05
7.950390364e-05
7.299233795e-05
6.670702735e-05
6.07073913e-05
5.527876616e-05
4.996615979e-05
4.513116335e-05
4.064528713e-05
3.655555638e-05
3.273197422e-05
2.920976848e-05
2.590719807e-05
2.275952106e-05
1.997172884e-05
1.736966051e-05
1.511615653e-05
1.306136836e-05
1.117765243e-05
9.487415131e-06
8.00254412e-06
6.687257181e-06
5.542653935e-06
4.539034643e-06
3.686247648e-06
2.941959282e-06
2.34531461e-06
1.833023969e-06
1.419566882e-06
1.078236291e-06
8.105054455e-07
5.953030486e-07
4.304763226e-07
3.063469974e-07
2.11799845e-07
1.445627964e-07
9.701957099e-08
6.375848876e-08
4.070709285e-08
2.395488958e-08
1.122573691e-08
6.382746804e-08
1.990989869e-07
7.715082486e-07
2.230536297e-06
)


101
(
0
-1.551164867e-08
-6.202067241e-08
-5.762816246e-08
1.484348571e-07
7.644608373e-07
2.09273346e-06
4.581276116e-06
8.689386645e-06
1.49350522e-05
2.379898396e-05
3.568969872e-05
5.100871767e-05
6.992420158e-05
9.248974769e-05
0.0001186125953
0.0001479771823
0.0001798725564
0.0002136859148
0.000248313596
0.0002828207061
0.0003161677429
0.0003476084656
0.0003761903914
0.0004002561658
0.0004199879716
0.0004278843505
0.0004463367785
0.0004528808789
0.00045531374
0.0004541544172
0.0004501007163
0.0004434014755
0.0004338523874
0.0004229226803
0.0004109748015
0.0003974975522
0.0003830788774
0.0003702978493
0.00035661776
0.0003424304826
0.0003280634655
0.0003134832199
0.0002991389224
0.0002852177354
0.0002717477008
0.0002583746237
0.0002454764432
0.0002335081902
0.0002213161195
0.0002093598515
0.0001976896444
0.0001864733881
0.00017533655
0.0001653037248
0.0001549718733
0.0001452075028
0.0001351722583
0.000126038629
0.0001172537468
0.0001084717404
0.0001006019305
9.258354883e-05
8.523499303e-05
7.830573873e-05
7.172418238e-05
6.55086901e-05
5.956069048e-05
5.391116991e-05
4.860111655e-05
4.372679553e-05
3.913218564e-05
3.479205144e-05
3.081572533e-05
2.716597542e-05
2.385935581e-05
2.075596978e-05
1.790796087e-05
1.540922435e-05
1.310013887e-05
1.10328078e-05
9.236672356e-06
7.656701616e-06
6.310767718e-06
5.10958712e-06
4.086806644e-06
3.255008186e-06
2.547768028e-06
1.964404322e-06
1.484900826e-06
1.101881565e-06
8.095305182e-07
5.865235078e-07
4.197038995e-07
2.945632239e-07
1.910497887e-07
1.04000395e-07
4.754249004e-07
1.310125739e-06
4.015502291e-06
7.552016218e-06
)


101
(
0
-1.448216782e-08
-5.915228622e-08
-5.690136535e-08
1.367344265e-07
7.2441609e-07
2.00062819e-06
4.404877231e-06
8.406112435e-06
1.452745585e-05
2.329862162e-05
3.516510659e-05
5.058516608e-05
6.981922574e-05
9.301143532e-05
0.0001201716422
0.0001511372566
0.0001852917634
0.0002220567041
0.0002604063218
0.0002994566372
0.0003380822735
0.0003753170264
0.0004106894995
0.0004416278997
0.000468616452
0.0004917988827
0.0005106283818
0.0005246503949
0.0005340759014
0.0005392186619
0.0005408035579
0.0005393911275
0.0005341645545
0.0005265701183
0.0005172029244
0.0005060582671
0.0004939537586
0.0004832193424
0.000470645956
0.0004568866834
0.0004421887293
0.000426953241
0.0004112546064
0.0003958876314
0.0003815305626
0.0003673303755
0.0003534281371
0.000339504445
0.0003253050898
0.0003113380406
0.0002978084013
0.0002846588651
0.0002717672726
0.0002582332737
0.000244998233
0.0002331182649
0.0002202704434
0.0002083682506
0.0001967383104
0.0001847490458
0.0001735725166
0.0001626396042
0.0001521660443
0.0001418689881
0.0001316947048
0.0001226442878
0.0001134088931
0.0001048233049
9.637825666e-05
8.839809503e-05
8.067024786e-05
7.342642262e-05
6.657353596e-05
6.015778196e-05
5.405613396e-05
4.827434029e-05
4.290850872e-05
3.795651836e-05
3.327787282e-05
2.893991686e-05
2.512858062e-05
2.155736243e-05
1.843872259e-05
1.558108491e-05
1.299625821e-05
1.080098536e-05
8.846526801e-06
7.178408567e-06
5.746479899e-06
4.500001841e-06
3.523919071e-06
2.72115896e-06
2.072784201e-06
1.563451875e-06
1.118901887e-06
7.075376366e-07
2.481430721e-06
6.073456712e-06
1.594362786e-05
3.357244641e-05
)


101
(
0
-1.349423462e-08
-5.624984453e-08
-5.559318812e-08
1.267922762e-07
6.873978903e-07
1.913368149e-06
4.236114639e-06
8.131336495e-06
1.412953081e-05
2.28114286e-05
3.464821514e-05
5.016053179e-05
6.969495348e-05
9.348520352e-05
0.0001216451554
0.0001541441301
0.0001904923521
0.0002301532089
0.0002722266653
0.0003159971835
0.0003602709511
0.0004040196133
0.0004468319412
0.0004861003501
0.0005218036932
0.0005535117271
0.0005807967417
0.0006030591684
0.0006205584257
0.0006332152165
0.0006413424877
0.0006458861082
0.0006468061325
0.00064470772
0.0006400547977
0.0006332624806
0.0006252474625
0.0006180475926
0.0006076622791
0.0005958185802
0.0005824748751
0.0005684814487
0.0005532819915
0.0005384615823
0.0005247109621
0.0005101915644
0.0004952552342
0.0004804329509
0.0004651743388
0.0004499884027
0.0004348644154
0.0004203239
0.0004056144179
0.0003888174215
0.0003753240089
0.0003604989851
0.0003456215498
0.0003300057686
0.0003159703862
0.0003009477553
0.0002864355949
0.0002719891033
0.0002576281303
0.0002439454488
0.0002299136177
0.0002165079302
0.0002035936373
0.0001910843758
0.0001787028883
0.0001667722063
0.0001549952688
0.0001437672856
0.00013278128
0.0001222084585
0.00011188858
0.0001022153156
9.323038889e-05
8.41484561e-05
7.565936701e-05
6.770131122e-05
6.033425722e-05
5.339371913e-05
4.702981436e-05
4.097323381e-05
3.538274777e-05
3.044636759e-05
2.595680639e-05
2.190615758e-05
1.8336128e-05
1.500917818e-05
1.236219114e-05
1.002858917e-05
8.094376808e-06
6.432078849e-06
4.917289706e-06
3.450801521e-06
1.011066259e-05
2.228115036e-05
4.942305806e-05
8.41021339e-05
)


101
(
0
-1.255270816e-08
-5.339805027e-08
-5.411535261e-08
1.176261257e-07
6.521287783e-07
1.829840694e-06
4.074145903e-06
7.862033537e-06
1.37354505e-05
2.233424116e-05
3.413317407e-05
4.972632554e-05
6.955167807e-05
9.391423792e-05
0.0001230235513
0.000156933971
0.0001952980073
0.0002377408406
0.0002835613903
0.0003323028249
0.0003827121628
0.0004336280681
0.0004840633148
0.0005317654799
0.0005765784349
0.000617688388
0.0006544767112
0.0006862657337
0.0007133688219
0.000735182129
0.000751470887
0.0007635059556
0.0007725755187
0.000778419003
0.0007811043061
0.0007809907401
0.0007789328235
0.000776094565
0.0007698323958
0.0007619800378
0.0007525453772
0.0007418062407
0.0007294137301
0.0007168915021
0.0007048628746
0.0006919799834
0.0006783045293
0.0006634583904
0.0006487055618
0.0006339866423
0.0006186990095
0.0006035836025
0.0005880233627
0.0005710861173
0.0005564157756
0.0005398436692
0.0005226804929
0.0005044903756
0.0004880674306
0.0004704758042
0.0004531367111
0.0004358146901
0.0004176585199
0.0003990735124
0.0003820984177
0.0003645548297
0.0003471126955
0.0003306397651
0.0003129946332
0.0002963265677
0.000279864039
0.0002633655962
0.0002470228588
0.0002309461164
0.0002153431703
0.0002001316829
0.0001854682809
0.0001712718075
0.0001571016911
0.0001433364237
0.0001304335481
0.0001183296101
0.0001064420902
9.521007004e-05
8.470836942e-05
7.482627735e-05
6.574429511e-05
5.70199858e-05
4.933613156e-05
4.219959015e-05
3.601988374e-05
3.028136878e-05
2.539707808e-05
2.118242568e-05
1.709648172e-05
1.303029459e-05
3.203088332e-05
6.36583268e-05
0.0001241452667
0.0002166216936
)


101
(
0
-1.165820825e-08
-5.062922224e-08
-5.26083427e-08
1.089239134e-07
6.182118437e-07
1.749326112e-06
3.917858786e-06
7.599319737e-06
1.334621273e-05
2.185929331e-05
3.361154312e-05
4.92650206e-05
6.934754557e-05
9.423206022e-05
0.0001242253666
0.0001594628778
0.000199742564
0.000244867525
0.0002944070903
0.000348072589
0.0004046230638
0.0004628357817
0.0005210817107
0.0005774449561
0.0006315780569
0.0006828971015
0.0007307204451
0.0007741603986
0.000812692374
0.0008450090549
0.0008713991884
0.0008940964553
0.0009138498393
0.000929759613
0.0009417738173
0.0009502070143
0.0009555513413
0.0009585149386
0.0009592555615
0.0009581506833
0.0009547407021
0.0009496519894
0.0009429544974
0.0009352470581
0.0009272368808
0.0009182744606
0.0009080075456
0.0008964335517
0.0008861944501
0.0008732457549
0.0008583933781
0.0008453881121
0.0008313747278
0.000815045666
0.0007984819303
0.0007837248244
0.0007654295921
0.000747953593
0.0007296900019
0.0007116224324
0.0006920238322
0.0006723011633
0.0006506407374
0.0006295421625
0.0006091594128
0.000586998227
0.0005664157785
0.0005435561818
0.0005216321246
0.0004997311091
0.000478464267
0.0004558524517
0.0004330648963
0.0004102348278
0.0003872955979
0.0003647440623
0.0003438583044
0.0003218154692
0.0003002978732
0.0002786278875
0.000258003355
0.0002379287443
0.0002179176404
0.0001988670499
0.0001807841893
0.0001630529539
0.0001465080251
0.0001301632857
0.0001153809559
0.0001016908655
8.924154182e-05
7.723253165e-05
6.682162792e-05
5.75050224e-05
4.837226909e-05
3.871466565e-05
8.266018682e-05
0.000150726364
0.0002649349315
0.0004676734352
)


101
(
0
-1.081129155e-08
-4.793971229e-08
-5.112092635e-08
1.005873797e-07
5.855342915e-07
1.671520468e-06
3.766681088e-06
7.342512708e-06
1.296163385e-05
2.137423705e-05
3.308590323e-05
4.877138676e-05
6.905499682e-05
9.438713176e-05
0.0001251733065
0.0001617190565
0.0002039492132
0.0002518360313
0.0003056508967
0.0003640854484
0.0004263799059
0.0004911441302
0.0005570570572
0.000622365093
0.0006861551226
0.0007485213504
0.0008084659112
0.0008648000526
0.0009161948321
0.0009606792087
0.0009989721283
0.001034239423
0.001067258739
0.001095754331
0.001119649986
0.001139067394
0.001154580146
0.00116714363
0.001177222224
0.001184996137
0.001191950051
0.001196576795
0.001198581868
0.001198044954
0.001196643821
0.001194899199
0.00119086653
0.001186020579
0.001183006421
0.001174084183
0.001162711742
0.001156168362
0.001145651646
0.001132975329
0.001120036472
0.001108266476
0.00109375249
0.001076876439
0.001059831598
0.001044511322
0.001025474745
0.001003100094
0.0009796598681
0.0009584975654
0.0009343768551
0.0009114011068
0.0008847453652
0.0008591552324
0.0008331549446
0.0008053515077
0.0007788491592
0.0007502956223
0.0007206181739
0.0006903402635
0.0006587343509
0.0006286608848
0.0005982337301
0.0005665563412
0.0005363739765
0.0005037274866
0.000471891995
0.000441573076
0.00041054795
0.0003787898563
0.0003493407466
0.0003215340534
0.0002928937648
0.0002657250901
0.000240030136
0.0002156525367
0.0001932495466
0.0001710481512
0.0001509612584
0.0001332871241
0.0001151767817
9.566904082e-05
0.0001821777005
0.0003073453091
0.0005008955972
0.0005904448768
)


101
(
0
-1.001171322e-08
-4.529364634e-08
-4.967444826e-08
9.259389722e-08
5.539974914e-07
1.596175235e-06
3.620132495e-06
7.091882939e-06
1.258190286e-05
2.087935796e-05
3.254988821e-05
4.823970727e-05
6.866294565e-05
9.437291176e-05
0.0001258635147
0.0001636668641
0.0002078879624
0.0002585804296
0.000316768956
0.0003795619054
0.0004471944409
0.000518303397
0.0005918322314
0.000666269115
0.0007401929776
0.0008144202065
0.0008871351945
0.0009566651467
0.001021730164
0.001081087839
0.001134881561
0.001184501139
0.001232877562
0.001275780843
0.001313464028
0.001346327479
0.001375010506
0.001400816628
0.001423712034
0.001446157962
0.001466346366
0.001483256852
0.001498051675
0.001510798996
0.001520927274
0.001527998301
0.001533904734
0.001540492938
0.001546115826
0.001546593203
0.001544698597
0.001546733511
0.001544352009
0.00154134351
0.00153702378
0.001531291026
0.001524935921
0.001513664603
0.001502711367
0.001488800394
0.001474617624
0.001452449975
0.001432995407
0.001414498129
0.001387770941
0.00136361934
0.001336443304
0.001311015486
0.001281292522
0.001247774018
0.001217367893
0.00118152037
0.001146073803
0.001108981952
0.001067438218
0.001028055112
0.0009843144543
0.0009437869101
0.0009002391501
0.0008539871856
0.0008095148865
0.0007637632223
0.000718297489
0.0006723732502
0.0006245759361
0.0005812289305
0.0005366532193
0.0004927663889
0.0004509930772
0.0004102336201
0.0003717483125
0.0003355557292
0.0003008125002
0.0002701018703
0.0002382233207
0.0002039658847
0.0003545063152
0.0005636558254
0.0008760072991
0.001425121166
)


101
(
0
-9.259025566e-09
-4.25486602e-08
-4.826877719e-08
8.493578262e-08
5.235565123e-07
1.52311284e-06
3.47772545e-06
6.850096782e-06
1.221184257e-05
2.037527436e-05
3.199088952e-05
4.765884073e-05
6.818024103e-05
9.422319156e-05
0.0001263614448
0.0001653209905
0.000211358748
0.0002646760433
0.0003268288215
0.0003935618353
0.0004661829615
0.0005440966197
0.0006253158472
0.0007093788209
0.0007944769002
0.0008809103682
0.0009661636315
0.001048844463
0.001128394979
0.001204463226
0.001276274947
0.001342355226
0.001408380443
0.001467746223
0.001521711674
0.001571161904
0.00161718658
0.001661379709
0.001702594599
0.00174182128
0.001778093084
0.001813756851
0.0018468098
0.001876321111
0.001901620376
0.001924041915
0.00194769707
0.001966709324
0.001985713532
0.00200271335
0.002016717861
0.002030900464
0.002044325901
0.002055543109
0.002061099304
0.002068985251
0.00207857531
0.002077601821
0.002075567019
0.002072024198
0.002066828366
0.002052344253
0.002044108091
0.002024458102
0.002007299143
0.001987545214
0.001960981393
0.001935752391
0.001901603861
0.001868635538
0.00183445543
0.001794181052
0.001753585959
0.001710259256
0.001660562648
0.001604094763
0.001553229656
0.001496745154
0.001436468662
0.001376418038
0.001316605465
0.001247652065
0.001183322204
0.001117408992
0.001048223312
0.0009811495774
0.0009154233138
0.0008474960332
0.0007817752661
0.0007181011037
0.0006554629234
0.0005988306837
0.0005427962953
0.0004929809064
0.0004416526412
0.0003855943862
0.0006290949638
0.0009585297258
0.001460896328
0.002119557695
)


101
(
0
-8.547982754e-09
-4.04925325e-08
-4.689535717e-08
7.761339172e-08
4.94175437e-07
1.452220883e-06
3.338888228e-06
6.618379878e-06
1.185969145e-05
1.986228344e-05
3.139696957e-05
4.701172806e-05
6.761727894e-05
9.401786674e-05
0.0001268685628
0.000166956696
0.0002146777541
0.0002703500757
0.0003347607464
0.0004051486627
0.000482584785
0.0005682118721
0.0006570671504
0.0007505055589
0.0008468255685
0.0009456794863
0.001043846993
0.001140650332
0.001236565959
0.001330768768
0.001421395909
0.001506216249
0.001592113985
0.001670183456
0.001744318328
0.001815297703
0.001882611792
0.001947446115
0.002009547617
0.002070055403
0.002129681637
0.002187518159
0.002242265689
0.00229384885
0.002342019773
0.002387466426
0.002432846031
0.002470280253
0.002509537212
0.002549045803
0.002587297437
0.002622779049
0.002658547436
0.00269213214
0.002712808453
0.002742275139
0.002770931656
0.00278853299
0.002803847713
0.002820586474
0.002827532643
0.002833312716
0.0028415812
0.002832475427
0.002832299087
0.002816461345
0.002797790003
0.002775194942
0.002751244257
0.0027237637
0.00268412636
0.002641558146
0.002596368921
0.002542626715
0.002484590152
0.002427933691
0.002360018614
0.0022845834
0.002206161599
0.002131305202
0.002045720064
0.001954517639
0.001861641051
0.001771237869
0.001671446792
0.001569269499
0.001473735891
0.001374038443
0.00127406875
0.00118098687
0.00108289259
0.0009957899866
0.0009122479413
0.0008327892765
0.0007523713975
0.0006658141081
0.001048026221
0.001562459846
0.002383621388
0.003158703131
)


101
(
0
-7.870496212e-09
-3.82970476e-08
-4.555167118e-08
7.062878155e-08
4.658339976e-07
1.383338278e-06
3.203368476e-06
6.391609881e-06
1.151352535e-05
1.934580506e-05
3.077605235e-05
4.631483182e-05
6.696039201e-05
9.365450887e-05
0.0001271299762
0.0001682165279
0.0002174512804
0.0002752952626
0.0003416093091
0.0004153605444
0.0004972623077
0.0005903279198
0.0006866494223
0.0007892326094
0.0008970345271
0.001008657859
0.001119953924
0.001232000757
0.001345611078
0.001458383057
0.001568428634
0.001674667825
0.001782645296
0.001880755482
0.001977199206
0.002072675141
0.002165353427
0.002256208988
0.002345258552
0.002431942473
0.002518180228
0.002601794105
0.00268357637
0.00276397549
0.002841672659
0.002915928437
0.002987859016
0.003056221818
0.003125955362
0.003195967081
0.003264772981
0.003330790278
0.003399213774
0.003464536146
0.003517571065
0.00357781142
0.003630466259
0.003679942493
0.003732382729
0.003764787943
0.003802788117
0.00383848779
0.003870141647
0.003882571037
0.003903833796
0.003905361754
0.003902767451
0.003896052416
0.003891866213
0.003863136005
0.003832326807
0.003799934292
0.003753348503
0.003691975406
0.003630191762
0.003559480072
0.003475945724
0.003390515252
0.0032936844
0.003190090599
0.003074081053
0.00295644573
0.002834001801
0.002693648417
0.002567236139
0.002421288671
0.00227889689
0.002136167426
0.001990394756
0.001851656619
0.001712580153
0.001575560695
0.001450110313
0.001331856832
0.001214291109
0.001086688974
0.001688514633
0.002504800068
0.003886125002
0.006022365376
)


101
(
0
-7.215361274e-09
-3.602070306e-08
-4.422489035e-08
6.398001019e-08
4.384881019e-07
1.316453274e-06
3.071833552e-06
6.170800775e-06
1.117237581e-05
1.885851523e-05
3.010823639e-05
4.560580625e-05
6.627716216e-05
9.320588394e-05
0.0001271980284
0.0001691183073
0.0002197162335
0.0002795388714
0.0003481081077
0.0004251379695
0.0005119262236
0.0006102294868
0.0007141404157