/*--------------------------------*- C++ -*----------------------------------*\
| =========                 |                                                 |
| \\      /  F ield         | OpenFOAM: The Open Source CFD Toolbox           |
|  \\    /   O peration     | Version:  2.3.1                                 |
|   \\  /    A nd           | Web:      www.OpenFOAM.org                      |
|    \\/     M anipulation  |                                                 |
\*---------------------------------------------------------------------------*/
FoamFile
{
    version     2.0;
    format      ascii;
    class       dictionary;
    location    "constant";
    object      la_i9;
}
// * * * * * * * * * * * * * * * * * * * * * * * * * * * * * * * * * * * * * //

la_i9_table
101
(

101
(
0
0
0
0
0
0
0
0
0
0
0
0
0
0
0
0
0
0
0
0
0
0
0
0
0
0
0
0
0
0
0
0
0
0
0
0
0
0
0
0
0
0
0
0
0
0
0
0
0
0
0
0
0
0
0
0
0
0
0
0
0
0
0
0
0
0
0
0
0
0
0
0
0
0
0
0
0
0
0
0
0
0
0
0
0
0
0
0
0
0
0
0
0
0
0
0
0
0
0
0
2.630365021e-06
)


101
(
0
2.570041996
13.75019172
35.21989095
64.93636248
100.3190351
138.7814316
177.6733874
214.9488655
248.9061442
278.0191271
301.1926079
317.8047181
327.1787172
329.5329872
325.3067652
315.1705179
300.1144017
281.4608881
260.3412227
237.9159574
215.0646837
192.7877672
171.6692371
152.0458372
134.1486057
118.0495704
103.7081117
91.07392429
79.98143737
70.26853273
61.74785969
54.17536374
47.67901793
42.01650172
37.05517419
33.1231324
30.21434327
27.1143278
24.04366504
21.27352453
18.79483369
16.59694779
14.64848953
12.90766887
11.36318597
9.992555463
8.779973231
7.703034524
6.747846439
5.89998772
5.148773655
4.483816951
3.8944432
3.371908605
2.909031957
2.503213355
2.146262542
1.834098314
1.561256108
1.323470202
1.116870257
0.9372914147
0.7818361892
0.6481237264
0.533791949
0.4364799451
0.3543922598
0.2855243212
0.2278978624
0.1798365606
0.1401861315
0.1081811769
0.08268962601
0.06375498788
0.04913718506
0.03638035777
0.02609864126
0.01861790295
0.01308966972
0.008912319436
0.005846952485
0.003781256432
0.002467039281
0.001539112061
0.000914526258
0.000552558561
0.0003220130176
0.0001683729365
9.303946249e-05
4.734939192e-05
2.091018127e-05
1.170634427e-05
5.231775001e-06
2.261601069e-06
7.319430263e-07
1.811935417e-07
2.680351888e-07
3.693667525e-07
6.089598422e-07
8.439425303e-07
)


101
(
0
2.547594601
13.40064738
34.2229247
63.00439963
97.19331634
134.2496707
171.6125814
207.3224095
239.7784608
267.5611086
289.6582934
305.5195303
314.5603697
316.9857787
313.2249192
303.9019265
289.9328417
272.5403667
252.7352394
231.6403547
210.0610571
188.8674859
168.6777989
149.8427138
132.5742212
116.9813351
103.0501271
90.72234814
79.86962952
70.3364997
61.95248136
54.52098946
48.05198972
42.4198678
37.50109775
33.42785484
30.21679974
27.26735248
24.38097563
21.68114777
19.23880275
17.06259811
15.12258114
13.38302764
11.83118803
10.45304868
9.231568564
8.146555649
7.179944103
6.318444006
5.552231229
4.872722874
4.269350471
3.73202477
3.252717925
2.827097572
2.450466691
2.118377019
1.826112588
1.569715629
1.344989437
1.147804457
0.9750369842
0.8241692236
0.6929510645
0.5791714953
0.4814116244
0.3981311073
0.3271022752
0.266309723
0.2142820541
0.1708285537
0.1351434361
0.1066039772
0.08396729562
0.06493832568
0.04894977566
0.03645794059
0.02698466536
0.01964306849
0.01393949642
0.009777768331
0.006674685453
0.004490669815
0.002953561077
0.001818325623
0.001177833305
0.0007397470036
0.0004096353313
0.0002382838984
0.0001417873601
8.003507432e-05
4.512280946e-05
2.322090895e-05
9.992084793e-06
2.685603091e-06
5.804007884e-06
9.752727523e-06
1.960414831e-05
3.167674993e-05
)


101
(
0
2.530148983
13.05941187
33.24926819
61.12297999
94.15475788
129.8657868
165.7738892
200.0077118
231.0557611
257.611418
278.7313685
293.9279853
302.6930483
305.2270267
301.9393158
293.4219412
280.5111173
264.3326678
245.8171654
226.0151535
205.6686821
185.5629055
166.294686
148.2370902
131.6031728
116.5124212
102.9773537
90.95530731
80.34296795
70.9942517
62.74608678
55.4222129
48.99993472
43.37951273
38.46232829
34.34098526
30.94431696
27.96482728
25.16570206
22.53276505
20.12264816
17.96017164
16.02161128
14.27370299
12.70046844
11.29357737
10.04478973
8.934006742
7.941596145
7.051400522
6.253525488
5.541168951
4.90614581
4.338536355
3.830003332
3.373184223
2.964070699
2.59907635
2.273910247
1.985790724
1.730753034
1.504558593
1.303657938
1.125343451
0.9673584697
0.8277144906
0.7047170943
0.597737597
0.5050029422
0.4242029194
0.3531185596
0.2914319003
0.2389502663
0.194865565
0.1581131134
0.1269131491
0.1003280209
0.07832082501
0.0607403362
0.04661910737
0.03504047174
0.02602887588
0.01897183811
0.01365780433
0.009596157699
0.006593288855
0.004350645422
0.0029690324
0.001978460922
0.001236765848
0.0007513812571
0.0004301028678
0.0002767562121
0.0001595097843
8.01775632e-05
3.018728914e-05
6.93375872e-05
0.000118473469
0.0002283104298
0.0003454024467
)


101
(
0
2.509532599
12.72654278
32.29806159
59.28872703
91.20281851
125.6231886
160.1464445
192.9857559
222.7151683
248.1337054
268.3603186
282.9608221
291.4944072
294.1611441
291.3482537
283.6110285
271.7208596
256.7181571
239.4422296
220.8962342
201.7647593
182.7231956
164.3818114
147.1023718
131.1098928
116.5247389
103.3901205
91.67703601
81.30353215
72.13927562
64.03383949
56.82625038
50.44732466
44.85447887
39.9612426
35.77549367
32.25371385
29.20046967
26.41356805
23.80556929
21.40793657
19.25101335
17.31182368
15.55240041
13.95333245
12.50787944
11.2135399
10.05875075
9.027514221
8.097878143
7.257470062
6.499129414
5.817230915
5.204103061
4.651832832
4.15350583
3.702112185
3.294419913
2.925519463
2.594105501
2.297619981
2.031946658
1.793092503
1.577923891
1.384104281
1.209911957
1.053327861
0.913528932
0.7897978658
0.6801972132
0.5824438898
0.4951727248
0.418607461
0.3521831709
0.2946897333
0.2443631841
0.2004605319
0.1625841158
0.1310707794
0.1049409021
0.08264233417
0.0642722157
0.04945247826
0.03771029143
0.02793466192
0.0204064686
0.01466185663
0.01022668582
0.007223262878
0.004873587397
0.003303136396
0.0021741056
0.001368792494
0.0008796618568
0.0004886052728
0.0002096690033
0.0004082928609
0.0007279288771
0.001900703075
0.003296841141
)


101
(
0
2.49197751
12.4024826
31.36891268
57.50043586
88.33440277
121.5159346
154.7192938
186.2388865
214.7305285
239.0898973
258.4976243
272.5607814
280.9054947
283.7199771
281.3768276
274.3953371
263.4857651
249.6094763
233.5351511
216.1968804
198.2386279
180.2704136
162.8502765
146.3482903
130.9965091
116.9213636
104.1890281
92.79620088
82.66840525
73.69918229
65.73841864
58.62453331
52.32304986
46.74908929
41.85617909
37.64229481
34.05398864
30.93843739
28.11571027
25.50093947
23.0894054
20.91483518
18.96660633
17.19500814
15.57073918
14.08235911
12.73484168
11.52542097
10.44124918
9.461553704
8.571201005
7.760066073
7.021448771
6.350712823
5.741293824
5.189385251
4.686107515
4.227664908
3.807129279
3.423167223
3.075446314
2.760565339
2.474569895
2.213707999
1.975735934
1.759178045
1.561412933
1.380719995
1.217228706
1.069692485
0.9365601963
0.8157181165
0.7070157401
0.6100937417
0.5240629814
0.4475042967
0.3790831535
0.3174128928
0.263767187
0.2181182164
0.1788752288
0.1450966211
0.1163449073
0.09265987636
0.07229687338
0.05547821553
0.04229985269
0.03165681516
0.0231331711
0.01695260579
0.01181275919
0.00837452109
0.005856890627
0.003924831376
0.002251746058
0.001079548192
0.002879484912
0.0052635893
0.01121556782
0.01789191593
)


101
(
0
2.479309892
12.08645554
30.46147
55.75697276
85.546818
117.5383112
149.4828859
179.7515607
207.0786788
230.4491415
249.1013245
262.6797578
270.8618475
273.8307903
271.9436597
265.6891404
255.7114566
242.9073468
227.9795179
211.8063164
194.9842661
178.0574776
161.5472999
145.8270751
131.1304743
117.5912372
105.27535
94.19952562
84.32533518
75.55947773
67.77474111
60.80694543
54.56329341
49.01372218
44.13218586
39.89807801
36.25498653
33.08746924
30.24289476
27.60168404
25.15790385
22.94895148
20.97177706
19.1849923
17.53986925
16.01220358
14.60919066
13.33571317
12.18885603
11.15249559
10.20623968
9.336776174
8.537994466
7.803310135
7.128057754
6.51093149
5.9458738
5.427929273
4.949239082
4.506500743
4.099609927
3.727366348
3.38575613
3.070795908
2.780154758
2.513258241
2.267546042
2.039687185
1.828699248
1.634755557
1.457319321
1.294617055
1.14595538
1.010428551
0.8867984773
0.774980045
0.6741922839
0.5814599815
0.4972825856
0.4225488765
0.3570683583
0.3003089559
0.2496507637
0.2058951852
0.1678262709
0.1351592303
0.1073982039
0.08480520052
0.06520537631
0.05023286442
0.03766958583
0.02767063444
0.0203744729
0.01428510733
0.009508163123
0.005186425369
0.01250259414
0.02255897451
0.0479643184
0.07690219043
)


101
(
0
2.463691911
11.77863286
29.57537471
54.0572171
82.8372741
113.6850112
144.4274279
173.5092538
199.7379301
222.1828277
240.1346253
253.2691122
261.3115167
264.4364758
262.9858061
257.4200513
248.3297745
236.5453882
222.7057299
207.6501584
191.9313514
176.0215208
160.4224495
145.4904488
131.4564883
118.4574218
106.5749807
95.8416329
86.2325511
77.67866987
70.06063242
63.23326472
57.11446748
51.60847553
46.73057586
42.47068298
38.80069573
35.61664655
32.74692383
30.09359377
27.6116757
25.34729957
23.32377148
21.50808456
19.84672384
18.29346823
16.84286647
15.50381332
14.28429464
13.18004438
12.17340941
11.24587944
10.38484252
9.585389684
8.841504924
8.152741718
7.516881656
6.931584712
6.388219956
5.881190927
5.409212018
4.972631333
4.568793938
4.192700269
3.841355107
3.515446055
3.214305027
2.933593308
2.669751955
2.422772255
2.192840851
1.979371958
1.782605947
1.601422698
1.432384698
1.275205591
1.131771898
0.9994722673
0.877589268
0.7655845994
0.6625969811
0.5728201215
0.4914606355
0.4178466389
0.3528642313
0.2941479444
0.2432661177
0.1994476107
0.1614435637
0.1270351314
0.1005333301
0.07919366623
0.06114978601
0.04644424773
0.03338603219
0.01992160054
0.04461173736
0.07770660729
0.1530661752
0.2479941305
)


101
(
0
2.450857455
11.47925109
28.71028156
52.40016711
80.20302041
109.9510835
139.5447171
167.4984382
192.6887741
214.263789
231.5619068
244.2923382
252.211596
255.4873404
254.4526598
249.5364588
241.2831005
230.4583415
217.6629853
203.6588196
188.9795849
174.0744769
159.3735003
145.2165673
131.8475398
119.4078561
107.9774367
97.60225473
88.27856932
79.95648581
72.53958276
65.88270014
59.88502319
54.46133974
49.60680822
45.34370751
41.65052192
38.43900157
35.57534836
32.935087
30.4271286
28.11854023
26.03433608
24.1708468
22.48307324
20.90992847
19.42706073
18.03611678
16.75018301
15.56958993
14.49126163
13.50253665
12.58232278
11.71919807
10.90927626
10.14773885
9.436674332
8.777885935
8.164224776
7.588688544
7.047632218
6.541489587
6.069922531
5.627599179
5.209519519
4.816532498
4.450895046
4.110012707
3.787810403
3.482467673
3.193673156
2.921420041
2.667746472
2.433442821
2.213699414
2.004077028
1.807148834
1.623308084
1.453656515
1.29830661
1.150275477
1.01525085
0.8934545775
0.7774045151
0.675245449
0.5789593798
0.4976048083
0.420545571
0.3533112841
0.290759366
0.243042165
0.1975102913
0.1585082425
0.1256319019
0.09347734499
0.0651443221
0.1307722812
0.215005207
0.3718571525
0.589418091
)


101
(
0
2.442360371
11.18763556
27.86577096
50.7846847
77.64198327
106.3319038
134.8268698
161.7067799
185.9135616
206.6686579
223.3560222
235.7099777
243.5122201
246.9342549
246.2916213
241.9829812
234.5128782
224.5950474
212.7649041
199.7694851
186.1043701
172.1501565
158.318422
144.9365306
132.2445318
118.5405716
109.4283096
99.4325033
90.41344608
82.33855145
75.12429435
68.65531592
62.82684812
57.52476186
52.72805056
48.45968577
44.74241195
41.53308703
38.68178043
36.06029411
33.57619332
31.23436465
29.09038491
27.17426317
25.45549171
23.86690485
22.36171476
20.93120666
19.5892584
18.34326519
17.19430612
16.13241125
15.15081948
14.22962805
13.35396803
12.52514067
11.74082618
11.00663697
10.31803877
9.671105633
9.058083665
8.479065499
7.935671266
7.423841601
6.935838853
6.46960333
6.030627213
5.620163994
5.23272587
4.863924023
4.511357622
4.173245567
3.85299717
3.555764855
3.279186698
3.01384309
2.757012969
2.511251094
2.281255473
2.072348032
1.874691851
1.684396482
1.51166134
1.342702968
1.192091685
1.04738036
0.925213485
0.8062935092
0.69312905
0.5910626273
0.5054027286
0.4270744618
0.3577116234
0.2987234542
0.2345037002
0.1697257526
0.3206562045
0.5003888301
0.7560062586
0.9340557373
)


101
(
0
2.431645177
10.90409161
27.04163475
49.2099314
75.15184965
102.8229723
130.2662718
156.1228201
179.3973307
199.3752189
215.488583
227.4880882
235.1846946
238.743038
238.460454
234.7157191
227.9813951
218.90308
207.9900624
195.9362825
183.2139155
170.1859185
157.213842
144.5949445
132.5671124
121.2870784
110.8273468
101.2394052
92.54743997
84.73891705
77.75615952
71.48257365
65.84907346
60.70083066
56.00471949
51.78318952
48.07190875
44.84816206
42.01763847
39.44623224
37.01755067
34.67731364
32.503799
30.52502878
28.75747947
27.15107243
25.64605289
24.19019915
22.80953002
21.50845272
20.29647153
19.17143281
18.12159615
17.13988691
16.20586995
15.31501088
14.4614171
13.65293617
12.89004552
12.16876931
11.48220734
10.82776995
10.20888332
9.623998611
9.064984478
8.524231635
8.00555382
7.515841452
7.053736133
6.614744479
6.19362957
5.784211251
5.388405133
5.015854181
4.671342161
4.345668621
4.02618256
3.711838552
3.412017859
3.137293684
2.882420476
2.630343843
2.392831967
2.164451615
1.959536076
1.757670953
1.575037795
1.407367251
1.235918329
1.080720582
0.9515085906
0.8271961265
0.7113506417
0.6126969286
0.5130284869
0.4091887687
0.6468142179
0.9423447392
1.379219312
2.026487509
)


101
(
0
2.423344494
10.62845849
26.23745756
47.6749228
72.73039098
99.42018191
125.8559947
150.7362388
173.1231214
192.3645847
207.9339675
219.6011047
227.1930167
230.8754289
230.9217593
227.700482
221.6412559
213.3458177
203.2872128
192.1086804
180.2745504
168.1220792
155.9700197
144.103057
132.7439002
122.0498969
112.1029795
102.9464494
94.60705317
87.08619347
80.35565209
74.32303989
68.89003659
63.94121648
59.40041693
55.26416901
51.56319972
48.34652848
45.55946993
43.03604642
40.67411936
38.40214049
36.23025824
34.22048933
32.41503027
30.77950706
29.26232073
27.81657749
26.41793958
25.08072175
23.81778767
22.63356096
21.52647513
20.48424255
19.49376823
18.54627281
17.62931408
16.75160974
15.91555522
15.12065897
14.35932807
13.62826179
12.9297601
12.26653732
11.63419946
11.01991491
10.42012532
9.843686071
9.296259088
8.77722478
8.280861884
7.795150935
7.316433093
6.856020517
6.426929333
6.028818147
5.642661008
5.254299271
4.876508388
4.523134232
4.198829199
3.880458419
3.565954906
3.26445919
2.999350249
2.734895973
2.482178589
2.243623259
2.023057963
1.798158413
1.616619455
1.43835131
1.27510052
1.117670417
0.9611698635
0.7971219769
1.205738502
1.672336735
2.177962037
2.617750634
)


101
(
0
2.418507603
10.36052494
25.45296229
46.1787582
70.37557586
96.11956331
121.5894256
145.5369212
167.0785656
185.6194264
200.671381
212.0200985
219.5118618
223.3008301
223.6457766
220.9000391
215.4599752
207.8931642
198.6120982
188.2530391
177.2569579
165.9212517
154.5568373
143.4202206
132.7217561
122.608956
113.1761235
104.4717303
96.51874902
89.32371531
82.85568374
77.05015243
71.86917085
67.15490415
62.81475803
58.81988498
55.20685149
52.02337605
49.25427307
46.79446645
44.53692804
42.37283152
40.25634366
38.24774513
36.40407295
34.74881498
33.23933501
31.79511399
30.40257386
29.05686357
27.76864329
26.54335931
25.3843
24.29199772
23.24910806
22.24831281
21.27820394
20.33863029
19.43177237
18.56479021
17.72952765
16.91972925
16.13816131
15.3915413
14.67784423
13.98796846
13.30832386
12.64144211
11.99909369
11.38768457
10.80502121
10.23565504
9.667907333
9.110170058
8.578137753
8.085052833
7.619927864
7.150282131
6.685776477
6.240016123
5.826754284
5.432771165
5.033661019
4.643137394
4.304726084
3.97307479
3.648430738
3.316071589
3.034522321
2.759135043
2.506120093
2.249355481
2.0307757
1.820788519
1.604901056
1.37949374
1.890401702
2.469674305
3.058672959
3.863148511
)


101
(
0
2.412480574
10.10025232
24.68782427
44.7205865
68.08542761
92.91736028
117.460326
140.5168678
161.2512685
179.1232671
193.6804165
204.7229254
212.1097428
215.9869083
216.603696
214.2848687
209.4134833
202.5040146
193.9539173
184.3402433
174.0985033
163.5345378
152.9167627
142.4758582
132.4122701
122.8800287
113.9778634
105.7456766
98.20049577
91.35013191
85.19099163
79.67510542
74.72700453
70.26540679
66.17984784
62.40605938
58.93053441
55.79495614
53.08254764
50.7038576
48.54222619
46.51443954
44.51351367
42.56594582
40.74191624
39.0688298
37.5497728
36.14536029
34.77551958
33.435632
32.14531967
30.90323778
29.71766908
28.58545621
27.50010582
26.45497935
25.43819119
24.44541185
23.47717551
22.54095495
21.63268322
20.74626574
19.87953833
19.04009599
18.2365528
17.46195914
16.6998074
15.94232573
15.19694675
14.48013291
13.79585343
13.12965181
12.46374489
11.80264
11.15608627
10.5412652
9.969313978
9.404165305
8.8423771
8.291883794
7.765868489
7.275636368
6.784733963
6.285831149
5.850065045
5.44398401
5.032507934
4.613968742
4.242326252
3.903782001
3.580172553
3.241176248
2.950697985
2.678680992
2.400329691
2.073795917
2.650723763
3.30615224
3.984247114
5.134397079
)


101
(
0
2.40843036
9.847552061
23.94171353
43.29957261
65.85808791
89.81006209
113.4632266
135.6666488
155.630222
172.8611186
186.942841
197.6888854
204.9665199
208.9148033
209.768107
207.8341137
203.4693246
197.1651399
189.2664649
180.3386932
170.8019917
160.9428409
151.0182727
141.2343549
131.788412
122.8267339
114.4452697
106.6928461
99.58130321
93.11409778
87.27401269
82.0390278
77.39116523
73.20830305
69.41600433
65.90297689
62.64121724
59.65068744
57.0118099
54.70361716
52.67636245
50.79812537
48.97157098
47.14505733
45.37053694
43.72371155
42.23074615
40.84167712
39.52686921
38.2364514
36.95578507
35.72077154
34.52913101
33.37773705
32.26818871
31.19425809
30.1407833
29.10837961
28.0886067
27.09029338
26.1127005
25.15322337
24.20326101
23.2676592
22.36311384
21.49126214
20.63801871
19.78508858
18.93031816
18.09604183
17.29404925
16.51197354
15.730178
14.95625819
14.19128248
13.43749802
12.72542243
12.03417658
11.35698468
10.69235314
10.03603555
9.416457365
8.818752747
8.200985292
7.630743133
7.126792702
6.610031303
6.098429139
5.615727305
5.193427933
4.768387281
4.374765295
3.984087152
3.648262214
3.279219599
2.875453187
3.55121316
4.305721784
5.156560104
4.816048412
)


101
(
0
2.406652255
9.603760634
23.21433046
41.91488085
63.69176762
86.79431966
109.5921923
130.978812
150.204778
166.8199129
180.4434022
190.8977161
198.060334
202.0622472
203.1183352
201.5214158
197.6118471
191.8470227
184.5418303
176.2331943
167.3230374
158.1048061
148.8247303
139.6623475
130.7941642
122.3737612
114.5003951
107.2287205
100.5709338
94.51890479
89.05231862
84.14045893
79.77691489
75.90270373
72.42691352
69.23233412
66.23783826
63.46023939
60.97834144
58.7984971
56.88462616
55.17209312
53.53746416
51.90949269
50.28386074
48.7038365
47.23931819
45.91382132
44.65650442
43.4335836
42.2188554
41.00893428
39.83478842
38.6902953
37.57349438
36.48784061
35.41931922
34.36381182
33.31012064
32.26257266
31.2252553
30.19766485
29.16831819
28.14102572
27.13149698
26.15173582
25.19458737
24.23593285
23.26761991
22.30559221
21.37042673
20.4537242
19.53214886
18.6246254
17.73728669
16.84578951
15.97352265
15.11699998
14.29239391
13.49640913
12.69955176
11.92184254
11.18233446
10.439535
9.705420468
9.055400689
8.419542402
7.78274592
7.16952614
6.641232416
6.071505445
5.607673296
5.119617016
4.686378247
4.246698153
3.7929954
4.566766124
5.492807747
6.845598214
9.605372122
)


101
(
0
2.404986702
9.363376432
22.50543926
40.56578351
61.58477011
83.86688146
105.8423132
126.4457972
144.9652674
160.9879751
174.1664411
184.3336528
191.3737538
195.4073317
196.6348767
195.3320759
191.8200438
186.5318036
179.7596496
171.9998225
163.6513148
155.0080626
146.3054878
137.7178484
129.397906
121.4923986
114.1123432
107.3127927
101.115987
95.50422255
90.44119258
85.88333014
81.8445334
78.2979561
75.15274183
72.29751538
69.67189158
67.21409668
64.92020706
62.90525664
61.13261422
59.59555244
58.19826814
56.82010675
55.39636984
53.96295174
52.59275829
51.32838276
50.16959064
49.05134357
47.9190026
46.78096934
45.65082077
44.54392648
43.45299106
42.37045364
41.30292268
40.25088656
39.19079074
38.11805499
37.03795737
35.95242952
34.85394653
33.74729514
32.639168
31.5487352
30.48245014
29.41533367
28.32963413
27.23363828
26.15531948
25.09020477
24.00976586
22.94228216
21.91795468
20.89547279
19.86469216
18.82433379
17.8123067
16.84927405
15.89964485
14.94916937
14.02079618
13.13256919
12.22750382
11.37547855
10.58706428
9.802538506
9.029654919
8.353161717
7.629128335
7.027788405
6.436595351
5.879943058
5.340794281
4.763130231
5.870128101
7.203278684
9.401587492
11.81868491
)


101
(
0
2.404798661
9.133724542
21.81465083
39.25145935
59.53544422
81.02486415
102.2087559
122.0617518
139.9028753
155.3540353
168.0989314
177.9812514
184.8889604
188.9347971
190.3019347
189.2450375
186.0788458
181.2087755
174.9007642
167.630547
159.7821072
151.6309023
143.4519727
135.3838305
127.5689898
120.1402753
113.2194558
106.8735016
101.131242
95.97811639
91.34316605
87.18854804
83.5002474
80.28876593
77.51365477
75.07017842
72.82469202
70.71394401
68.75554065
66.98205318
65.40838497
64.06227372
62.88876636
61.78662421
60.66532735
59.46018417
58.24664881
57.10298315
56.0506969
55.06691585
54.08093007
53.05405434
52.0087931
50.96501674
49.93219443
48.8995811
47.86044786
46.82750977
45.78773362
44.72815319
43.6356855
42.51644707
41.37159954
40.20758475
39.01958868
37.83769054
36.66744015
35.49908183
34.30086866
33.07862087
31.85946566
30.64475769
29.40101076
28.15701309
26.96955884
25.80890608
24.63894482
23.42459721
22.20609365
21.03438993
19.89941522
18.76637911
17.61139429
16.52428662
15.44656336
14.36742353
13.35676802
12.40072652
11.42819237
10.54957378
9.656411725
8.865767901
8.129186152
7.431858729
6.748990701
6.041036645
7.764518555
9.833256307
13.38350555
16.01254669
)


101
(
0
2.40588728
8.910094908
21.1417035
37.97119804
57.54226181
78.26557414
98.68692122
117.8184753
135.0089012
149.9088571
162.2310491
171.8272974
178.5918927
182.6283166
184.1033658
183.2527163
180.3747003
175.863005
169.9616982
163.1151882
155.6930664
147.9746294
140.2420635
132.6311075
125.2704295
118.2898881
111.8068587
105.8842067
100.5688959
95.86865738
91.6953116
87.968553
84.70929675
81.86625921
79.46745372
77.40977783
75.60069189
73.96476447
72.40068412
70.94025855
69.65118274
68.51382366
67.58924631
66.80556877
66.0089927
65.1357567
64.17882769
63.20756833
62.31801346
61.49800843
60.68840373
59.84112454
58.93544527
58.00865969
57.07448581
56.12456907
55.15506634
54.1817996
53.20300696
52.18983808
51.13246842
50.02434748
48.87071221
47.68395611
46.45651217
45.21611433
43.97289471
42.72341047
41.44012535
40.12031723
38.78182125
37.43573159
36.04408846
34.62470975
33.25161992
31.93840216
30.63364364
29.2681943
27.85917621
26.45694431
25.08276636
23.74602775
22.34419498
20.98593616
19.69409366
18.39295833
17.08576263
15.90448477
14.69569886
13.54900427
12.45174625
11.43965514
10.48900152
9.624461744
8.75293207
7.867755033
10.64127179
13.95375748
19.63819477
27.65948998
)


101
(
0
2.407866762
8.697048364
20.48630024
36.72426726
55.60288446
75.58605846
95.27255693
113.7108246
130.2755482
144.6424516
156.5490482
165.8596838
172.4704125
176.4763264
178.0261766
177.3400769
174.6980527
170.4834935
164.9249972
158.4419632
151.3752565
144.0205892
136.6642837
129.4589917
122.5052274
115.9250688
109.8398763
104.3095796
99.39541795
95.13146267
91.41401665
88.18771937
85.35890676
82.93645332
80.91805565
79.32003611
77.96427572
76.78703565
75.70160674
74.69454235
73.75814276
72.93975052
72.301554
71.80151288
71.4031811
70.91681953
70.31779578
69.63195466
68.95384969
68.33732432
67.76664899
67.15825411
66.47211683
65.72004724
64.9453661
64.14732202
63.29776712
62.42869034
61.53931015
60.64778362
59.68498078
58.65268863
57.5528896
56.39589043
55.188818
53.944302
52.67799093
51.39715114
50.07539516
48.7025319
47.29317051
45.85997235
44.36383981
42.79776858
41.23836617
39.73746088
38.28021816
36.77004562
35.19619913
33.57246646
31.90708613
30.31459985
28.65427172
26.96535671
25.37117732
23.83807202
22.18545537
20.69435462
19.21684189
17.74182902
16.3726616
15.11070999
13.8981612
12.82973277
11.74447952
10.66336854
15.05773854
20.45088992
29.53087119
41.83159844
)


101
(
0
2.416119524
8.480917457
19.84813103
35.50995924
53.71823365
72.98405351
91.96159893
109.7327139
125.6952563
139.5463741
151.0456114
160.0672298
166.5121692
170.4648931
172.0594882
171.4968832
169.0454415
165.0677554
159.7889277
153.6013259
146.8353967
139.7808374
132.7297279
125.8574703
119.2509718
113.0230373
107.2931036
102.130076
97.58899108
93.71216397
90.48381133
87.73654856
85.38893908
83.46323411
81.86512705
80.68805833
79.80365923
79.17328714
78.65461853
78.15602786
77.6716157
77.27559256
76.96234186
76.8097357
76.78516283
76.77184661
76.63525467
76.33142373
75.97145235
75.61693003
75.32513092
75.01449262
74.63562089
74.16964546
73.63273595
73.05895671
72.4174391
71.72911412
71.01205146
70.27624596
69.49209153
68.62302715
67.66928426
66.62480566
65.51166502
64.34426871
63.13533928
61.88930409
60.58836064
59.22013954
57.80002302
56.34055049
54.80098669
53.14997656
51.43560545
49.72676167
48.07487479
46.38883548
44.63877158
42.81136354
40.83277662
38.90883361
36.96216906
34.92417333
32.93112065
31.11413312
29.09564185
27.20707325
25.42630032
23.59248317
21.9048353
20.34060907
18.85504681
17.56317666
16.28307056
15.04695435
21.9512838
30.82452811
45.20856351
62.7952294
)


101
(
0
2.406775318
8.280563721
19.2269623
34.32764498
51.8848307
70.45706329
88.75025457
105.878694
121.2612429
134.6125751
145.7114026
154.4432058
160.7072386
164.5848872
166.1935631
165.7175897
163.4051677
159.6161882
154.552879
148.6026283
142.0734762
135.2497092
128.4359627
121.8298393
115.5111779
109.5901145
104.1778891
99.34218926
95.14058568
91.62534167
88.79706121
86.57436917
84.7660973
83.32194747
82.22955527
81.49295456
81.15971213
81.03163985
81.08568199
81.19136175
81.31375938
81.43636223
81.56028627
81.80540781
82.17816149
82.65590123
83.02868529
83.28426113
83.35638395
83.37145332
83.40405085
83.46549932
83.48142394
83.39643568
83.23151434
82.98725754
82.67668919
82.27110337
81.80590362
81.32491162
80.80576949
80.20011213
79.49693359
78.68044738
77.76881037
76.7768086
75.71911632
74.60192574
73.39826952
72.10568923
70.73154434
69.29600772
67.77149309
66.10835309
64.30438663
62.3982933
60.51247024
58.60179075
56.62794967
54.58287544
52.29436192
49.98146702
47.7089614
45.34698654
42.93719608
40.76160496
38.39843196
36.07302499
33.9767663
31.79652162
29.82655509
27.92838868
26.19058764
24.69072527
23.29999738
22.00879404
32.84137949
47.24870207
69.44800659
96.65736369
)


101
(
0
2.421948422
8.083941355
18.62240028
33.17661976
50.10200375
68.00262982
85.63491922
102.143715
116.9666987
129.8332759
140.5388674
148.975115
155.0470748
158.8277936
160.421295
159.9957668
157.778834
154.1220645
149.220292
143.4451431
137.0902523
130.436662
123.7920947
117.3705121
111.2839539
105.6114836
100.4701018
95.92729523
92.03376892
88.84721462
86.41107967
84.61887862
83.35268448
82.48344828
81.95903879
81.73367331
81.88453085
82.34728501
83.03387175
83.8032646
84.57608426
85.30551346
86.02843724
86.75360887
87.59795743
88.54903835
89.56233918
90.4141423
91.096529
91.62500158
92.08411384
92.58250678
93.07624488
93.50537947
93.82509119
94.06787407
94.21280599
94.24990947
94.16845984
94.04143738
93.88776244
93.67846397
93.3541478
92.89056337
92.30325191
91.6056194
90.81065205
89.92311372
88.91785678
87.7763481
86.50158749
85.12485356
83.64761841
82.02367942
80.20603723
78.16398121
76.04368265
73.89162411
71.65350754
69.36332343
66.79960547
64.11926388
61.52872249
58.92079291
56.22830062
53.69197067
51.08438112
48.3990919
46.05403921
43.60884254
41.4903504
39.29102835
37.37834072
35.70147743
34.32805554
33.13320555
49.92729033
72.39312658
105.236109
203.6063969
)


101
(
0
2.423132156
7.893702643
18.03419906
32.05620327
48.36742329
65.61939404
82.61228002
98.52287203
112.8058057
125.2014938
135.5198459
143.6580436
149.5242766
153.1863497
154.7365601
154.3231209
152.1619731
148.5885949
143.7935814
138.1322809
131.900726
125.3603528
118.8182505
112.5149506
106.5761975
101.0990872
96.18943386
91.9073086
88.29979835
85.41137142
83.28228626
81.92212658
81.16926661
80.89377641
80.95364626
81.33054659
82.04426224
83.09724597
84.4128809
85.86829818
87.37980788
88.86799434
90.30828207
91.66761872
93.05021978
94.54914554
96.17407822
97.75926992
99.19334874
100.3822512
101.4416587
102.4627202
103.5288023
104.5693879
105.5430513
106.4413023
107.1941386
107.8389439
108.3159076
108.7072187
109.0536283
109.3435181
109.5429705
109.5831606
109.4527634
109.1652346
108.7480814
108.2026027
107.4935436
106.590384
105.4769902
104.1984095
102.7875108
101.2228568
99.43871874
97.36778567
95.12484515
92.80371136
90.38193888
87.90146447
85.16941444
82.30261424
79.54561679
76.89487597
74.2476094
71.52142942
68.88620858
66.0854656
63.67477336
61.13500492
59.04600533
56.66329947
54.67775316
52.82576727
51.57461713
50.63323804
75.89221288
109.0454974
155.5249755
74.77298961
)


101
(
0
2.235588221
7.709783052
17.46205848
30.96581904
46.68412712
63.3041627
79.67909518
95.0123277
108.7728766
120.7107922
130.6476822
138.4848905
144.1327038
147.6549321
149.1337523
148.6999464
146.5534981
143.0166934
138.2771795
132.6780471
126.5101604
120.031699
113.536718
107.2798974
101.4204943
96.07106186
91.33950167
87.28300366
83.92608724
81.30950224
79.49124211
78.48312924
78.20677103
78.51957531
79.22709482
80.23411303
81.55290424
83.23038621
85.23156984
87.43769067
89.73178253
92.03007797
94.28013047
96.43981847
98.54958905
100.6997866
102.9506298
105.3393469
107.6016027
109.6948111
111.5434464
113.2367259
114.9641482
116.7359041
118.4904362
120.2067054
121.8181241
123.2254588
124.4545682
125.543428
126.5497485
127.4982186
128.348724
129.03511
129.5046704
129.7516506
129.8079843
129.7050371
129.3938477