/*--------------------------------*- C++ -*----------------------------------*\
| =========                 |                                                 |
| \\      /  F ield         | OpenFOAM: The Open Source CFD Toolbox           |
|  \\    /   O peration     | Version:  2.3.1                                 |
|   \\  /    A nd           | Web:      www.OpenFOAM.org                      |
|    \\/     M anipulation  |                                                 |
\*---------------------------------------------------------------------------*/
FoamFile
{
    version     2.0;
    format      ascii;
    class       dictionary;
    location    "constant";
    object      la_i22;
}
// * * * * * * * * * * * * * * * * * * * * * * * * * * * * * * * * * * * * * //

la_i22_table
101
(

101
(
0
0
0
0
0
0
0
0
0
0
0
0
0
0
0
0
0
0
0
0
0
0
0
0
0
0
0
0
0
0
0
0
0
0
0
0
0
0
0
0
0
0
0
0
0
0
0
0
0
0
0
0
0
0
0
0
0
0
0
0
0
0
0
0
0
0
0
0
0
0
0
0
0
0
0
0
0
0
0
0
0
0
0
0
0
0
0
0
0
0
0
0
0
0
0
0
0
0
0
0
-0.001338627786
)


101
(
0
3.506181971e-05
-0.0006652623592
-0.003436756246
-0.009870291901
-0.022287577
-0.04530850501
-0.08227124124
-0.1376484813
-0.2147592076
-0.3254685542
-0.4655923125
-0.615149379
-0.7778148324
-0.9330342021
-1.061306576
-1.155769078
-1.226321652
-1.226387023
-1.235302937
-1.206357761
-1.138774005
-1.066129307
-0.9716404866
-0.8678496495
-0.7501724373
-0.6382734339
-0.5396199912
-0.4506361948
-0.3586898412
-0.2507586763
-0.1361442609
-0.05394871228
-0.01182996555
-0.007538204183
-0.01581121787
0.002807255273
0.06945109577
0.1920275418
0.3264381913
0.4024673308
0.4153765704
0.3895223238
0.3320728593
0.2873897638
0.2812498083
0.3128003582
0.3732348751
0.4463587803
0.4764108696
0.435415561
0.3132804796
0.1746607846
0.08263027017
0.06448704736
0.1000392363
0.1352553181
0.1559563855
0.1669059277
0.1728234701
0.1560828672
0.1104999459
0.05279823639
0.00967124324
-0.008769778611
-0.02217595485
-0.06009352678
-0.1242746462
-0.1864576392
-0.1830717911
-0.03537601271
0.246928717
0.4567935387
0.3417891682
-0.06149855697
-0.3283963948
-0.1804956151
0.08279241158
0.1211957883
-0.02962610395
-0.1026221556
0.04427464267
0.0281861393
-0.005316675868
-0.03689162323
0.01226697717
0.02283006065
0.007791572155
0.01578513812
-0.0005768463166
-0.005224319736
0.01660683827
0.004284555099
-0.0005970724509
0.01635398395
0.01612529009
-0.0001961049733
-0.0002175051173
-0.0002600045147
-0.000323041602
-0.0004284871757
)


101
(
0
-6.169899525e-06
-0.00133497174
-0.006685700871
-0.01828621695
-0.0384418059
-0.07041747586
-0.1157898245
-0.1737336845
-0.2472717138
-0.3423138587
-0.4628071641
-0.5904145986
-0.7275234239
-0.8585329283
-0.9721455189
-1.056541134
-1.106640231
-1.109134044
-1.100269834
-1.094158691
-1.053122747
-0.9980522998
-0.9151462775
-0.8070128648
-0.6842312576
-0.5578493535
-0.4476165254
-0.3564504118
-0.2676105593
-0.1499923983
0.009581442151
0.1602536804
0.2317723849
0.2064938706
0.1340860482
0.08466197808
0.1640862436
0.3639767302
0.6053781831
0.8011316521
0.8747075818
0.8331393467
0.7086593792
0.5887400147
0.517657962
0.5163272561
0.5899127826
0.7179889035
0.8412335704
0.8719797227
0.7377133557
0.4771518199
0.2337963735
0.1097138374
0.1236678453
0.1880270417
0.235441564
0.2683588167
0.2982722003
0.3105283575
0.2731508579
0.1855375684
0.09273382562
0.03515902369
0.005255371987
-0.03875445304
-0.1259005831
-0.246825118
-0.3321858368
-0.2310776853
0.1408469665
0.6113869892
0.7204311581
0.2531498715
-0.3428220749
-0.38394476
-0.02055707369
0.1829215608
0.03918716424
-0.1467245876
0.02819688822
0.05055215197
0.035649912
-0.02247853631
-0.04284258631
0.02547035489
0.02912338263
0.02132775722
0.01341798078
0.001945273089
-0.001658515124
0.01567066543
0.002763051169
0.03516711527
0.03446821133
-0.000639670124
-0.0007084140742
-0.0008162545902
-0.0008848797572
-0.001103592569
)


101
(
0
-3.642147083e-05
-0.001953194455
-0.009763040086
-0.02628017134
-0.05375243824
-0.09487012974
-0.148792781
-0.2108714067
-0.2800801584
-0.3619817177
-0.466846467
-0.5725247685
-0.6858083575
-0.7956785514
-0.8894071062
-0.9652846637
-1.004600906
-1.009667783
-0.9821194562
-0.9836675725
-0.9850841988
-0.9445762533
-0.8861023704
-0.7806824476
-0.6537913524
-0.5141922743
-0.3883635134
-0.2884122898
-0.2025004
-0.0932875757
0.08007578341
0.3010159082
0.4476800303
0.4633746792
0.3496979524
0.2021970042
0.1862712176
0.3754032103
0.7137782776
1.033877645
1.207616976
1.216294239
1.084037684
0.88564401
0.7272837605
0.6686512231
0.6970271
0.811553254
0.9901066854
1.124181337
1.0949196
0.8478829352
0.4932209017
0.223066361
0.1242260346
0.1638487341
0.2218142765
0.2667977583
0.3091915158
0.3441356156
0.3419535047
0.2772112433
0.1717566445
0.07483358929
0.01115472692
-0.04816977169
-0.1326622354
-0.2584386186
-0.3874031415
-0.363873804
-0.03203413075
0.5055891344
0.7853730558
0.4538209492
-0.2043866519
-0.4147320152
-0.1284766008
0.1281409923
0.05721425017
-0.1453677029
0.02147187078
0.05398155643
0.04124501655
0.007522293913
-0.02274240915
-0.03935303709
0.03202679186
0.04007829073
0.009114418157
0.009145882115
-0.003137097924
0.01882466022
0.00938903929
0.04812683492
0.05781573936
-0.001606441949
-0.001425003996
-0.001272945273
-0.001529005509
-0.001840885808
)


101
(
0
-5.905770759e-05
-0.002521302808
-0.0126664717
-0.03390024484
-0.06843636632
-0.1185246006
-0.181213728
-0.248315685
-0.3143781131
-0.3853359752
-0.4720320297
-0.5684651475
-0.6599701154
-0.7510942233
-0.8324603046
-0.8956621455
-0.9284045578
-0.9324603047
-0.9006420266
-0.8934899584
-0.9122554047
-0.9127860857
-0.873064902
-0.780322135
-0.6497640611
-0.5012761437
-0.3590245957
-0.2464331907
-0.1604508591
-0.06553384523
0.09520329267
0.3335767715
0.5721205615
0.65509416
0.5424495167
0.3373752795
0.222191686
0.3427295063
0.6595616694
1.089980458
1.40252623
1.492899736
1.390818859
1.1617512
0.9188134194
0.7538856824
0.7163368204
0.7973438798
0.9470238091
1.131523034
1.222191211
1.098461213
0.7650092122
0.4070067608
0.1804010804
0.1297868469
0.1651198719
0.2017944552
0.2457846071
0.2883584568
0.3079398056
0.2784460274
0.2018306956
0.104659109
0.01380125047
-0.07210704084
-0.1621792141
-0.274372712
-0.3968804659
-0.4001181504
-0.1042413214
0.4317211729
0.7547442887
0.5033620933
-0.1001370165
-0.3414880081
-0.1277016271
0.0822312331
0.0221465361
-0.1433943769
0.03946899467
0.05643417733
0.03636685315
-0.01144504395
-0.002063777404
-0.03822897885
-0.02375579617
0.05196268495
0.01482444415
0.008360925507
0.006153513483
-0.009385614884
0.0199678285
0.07013832068
0.08409870452
-0.002538672684
-0.00194189562
-0.001474887504
-0.002485196922
-0.004010894795
)


101
(
0
-7.328397704e-05
-0.00303700503
-0.01539673743
-0.04113992877
-0.0824745035
-0.1412610811
-0.2129860888
-0.28595449
-0.350877574
-0.4128561701
-0.4849672814
-0.5674404948
-0.6414777012
-0.7064327118
-0.7732657292
-0.8304206272
-0.8565419256
-0.8516500997
-0.8128002043
-0.8047928776
-0.835511016
-0.8625819273
-0.8503181936
-0.7823081986
-0.6603268056
-0.5119360176
-0.357585973
-0.2281347599
-0.1381458124
-0.06018859765
0.070793043
0.3118793581
0.5971504438
0.7748236937
0.7454910787
0.5179306795
0.2788200188
0.2503788982
0.515240745
0.9578066772
1.381042828
1.61353732
1.573101339
1.358356357
1.07679171
0.8356002353
0.7125628764
0.7073485409
0.796887775
0.9675976135
1.120082773
1.113710628
0.8998203576
0.5573684218
0.2844423791
0.1386279817
0.124061458
0.1388988267
0.1696768378
0.2083778167
0.2311547638
0.2189991589
0.1729189798
0.1065763422
0.01787068487
-0.08834441436
-0.1964783422
-0.3052038117
-0.4046809634
-0.399729527
-0.1146200714
0.4229967396
0.7538283788
0.5092360466
-0.06256055577
-0.2694032352
-0.06088896721
0.1104310872
-0.01280527205
-0.1816361214
0.05969567603
0.08122364566
0.0573108581
-0.002584710922
0.00299341486
-0.02509190729
-0.02499682167
0.03230840276
0.03359248589
0.02207307564
0.01173571534
-0.002795413737
0.02699192051
0.09285384284
0.1082109567
-0.003007505021
-0.004598853822
-0.006521890625
-0.005608339796
-0.004174146272
)


101
(
0
-7.919939794e-05
-0.00350349941
-0.01795141005
-0.04798918289
-0.09581485923
-0.1631027306
-0.2438901556
-0.3234504461
-0.38904086
-0.442560806
-0.5027553058
-0.5703288608
-0.6303747375
-0.6753489144
-0.7221086469
-0.773707757
-0.792730121
-0.7978899393
-0.7442649527
-0.7261534264
-0.7705888954
-0.8187368648
-0.8446624034
-0.8028466114
-0.6932101711
-0.5428749927
-0.380204346
-0.2360530285
-0.1331311464
-0.06152916011
0.03167691927
0.2233498412
0.5255160677
0.7915972209
0.857316146
0.6668906407
0.3823079651
0.2299113431
0.3523638214
0.7464411647
1.218049175
1.547178288
1.621920203
1.44237369
1.146231676
0.8692596688
0.6939721985
0.6336763303
0.6595863329
0.7356252375
0.8581942605
0.9370962101
0.8371345547
0.582745982
0.3312978185
0.1674796877
0.1098700907
0.1105882187
0.1230680254
0.1488334713
0.1682093336
0.1510615439
0.1189089048
0.08146516079
0.02173640135
-0.08347326704
-0.2126743177
-0.3360787355
-0.4220197426
-0.3938406979
-0.1038847984
0.4348997691
0.7685458714
0.5010953891
-0.08493773617
-0.2665252049
-0.03256456075
0.1518864305
-0.005987530532
-0.24571084
0.03391685949
0.08665052206
0.07751934023
0.02373284268
0.04324567409
-0.02419437087
-0.01412936013
-0.01667013054
0.0527768589
0.01295526009
0.002186559975
0.004905926207
0.02592096164
0.1216852523
0.1328245114
-0.001307245553
-0.001943958041
-0.002555376318
-0.001505635486
-0.0009266039761
)


101
(
0
-7.842321194e-05
-0.003920941816
-0.02033279249
-0.05444861052
-0.1084759977
-0.183894134
-0.2736912431
-0.3604473413
-0.4276184653
-0.4750011087
-0.5227424111
-0.5788773617
-0.6270805992
-0.6582033089
-0.6854344811
-0.7250232083
-0.7439251591
-0.7364437885
-0.7006896989
-0.6609273049
-0.6857811265
-0.7662465124
-0.8240628032
-0.8100657008
-0.7221534499
-0.5829443954
-0.4191344349
-0.2639238986
-0.1485774221
-0.07799842093
-0.01014810515
0.1307707823
0.3867960868
0.6965683001
0.8685984392
0.7837630251
0.4954310798
0.2200577262
0.2135973175
0.484122272
0.9434256922
1.35658014
1.543923046
1.449054851
1.156448445
0.8296196414
0.6007742068
0.5121605825
0.5456278259
0.5861377881
0.6207477477
0.655423336
0.6300124824
0.4631261689
0.2562644663
0.1317778306
0.08290648259
0.09191922441
0.1027795428
0.1206585002
0.1337940716
0.1052706194
0.06220888956
0.03657221754
0.0142023586
-0.06121428814
-0.1942714856
-0.3430847121
-0.4410450268
-0.3973538677
-0.09068683391
0.4573738399
0.7982915363
0.511653493
-0.1123116653
-0.2961223764
-0.037876735
0.1723946799
0.02168695962
-0.2579622655
0.03240577602
0.09261480377
0.07260234227
0.01502276771
0.02753074725
-0.008846353322
0.0002100124779
-0.01934425239
0.03486097838
0.03678766511
-0.004051930173
0.01375034286
0.01608526655
0.1529807104
0.1587091696
-0.007267878764
-0.004037224117
0.0002885253687
0.01218077987
0.031968042
)


101
(
0
-7.110123742e-05
-0.004288799393
-0.02253846892
-0.06050538614
-0.1204160689
-0.2036237194
-0.3023143635
-0.3968307459
-0.4668696887
-0.5103365073
-0.5472520038
-0.5912877389
-0.6220585321
-0.6393875428
-0.6533241381
-0.6775322979
-0.6930350807
-0.6905092822
-0.638804515
-0.5988578559
-0.6302888786
-0.7107704958
-0.7925253508
-0.8183472594
-0.7597025284
-0.6356379588
-0.4770299885
-0.3147781286
-0.1850219391
-0.1065168257
-0.05788947775
0.0309053991
0.2293372237
0.5251728794
0.7732315662
0.7984347116
0.5684491286
0.2684923482
0.1275619784
0.2427907153
0.6366094727
1.050267722
1.318774102
1.335570683
1.113493865
0.7833178911
0.5017333923
0.3539991986
0.3534858705
0.4301832559
0.4811394201
0.4397767873
0.3695127948
0.2499434963
0.0675160155
-0.01606586104
-0.02810980296
0.01545676899
0.05285004679
0.08324146867
0.09637955991
0.06177270732
-0.007610712673
-0.04772335468
-0.04242461427
-0.06533024675
-0.1600130622
-0.3149501962
-0.4431503818
-0.4148565402
-0.1001804333
0.4663359104
0.8309367262
0.5510169213
-0.1069745419
-0.3157862993
-0.0338172432
0.2260431626
0.0798446968
-0.2517972408
0.0374143415
0.1219518703
0.0896162004
0.02605028175
0.02748064784
0.05673816077
0.002254138816
0.03310374107
0.01999290032
0.07665020718
0.01547523618
0.01268271298
0.02833865401
0.1892510385
0.1891292857
-0.003900873229
0.005482104728
0.0185487413
0.04173540058
0.08515826963
)


101
(
0
-5.772180115e-05
-0.004610455251
-0.02457251677
-0.06616846488
-0.1316219879
-0.2221991285
-0.3295378361
-0.4320549424
-0.5062309771
-0.5465321022
-0.5730544699
-0.6085817328
-0.6287979079
-0.6332245617
-0.6309165231
-0.6383730764
-0.6494411911
-0.6523285271
-0.6025372376
-0.5504046623
-0.5578739871
-0.6475548828
-0.7580189162
-0.8213430155
-0.7919536972
-0.6466306405
-0.5385435554
-0.3794303816
-0.2407819547
-0.1515563899
-0.1090157536
-0.06106751032
0.0675271428
0.3067447541
0.5757029267
0.7109126526
0.5940052199
0.3008992426
0.07814472023
0.08351972202
0.3320967977
0.7207053495
1.044557719
1.134677158
0.9772449141
0.6613367306
0.3602709535
0.1862579009
0.1406493547
0.1995533552
0.2666034456
0.2830026578
0.1691446556
0.001278967094
-0.1497895071
-0.2530583936
-0.2528121581
-0.1828174639
-0.09171478453
-0.03626795784
-0.004249227699
-0.02906051069
-0.123602624
-0.2114116061
-0.2182666196
-0.1817372566
-0.2007294087
-0.3064688438
-0.4414134211
-0.4495160315
-0.1575626466
0.4190531034
0.8252048671
0.5848788652
-0.08219698116
-0.3313075906
-0.0636339575
0.2550939779
0.181492012
-0.1919006538
0.04364138988
0.1434719736
0.1396739035
0.08102430122
0.04219721558
0.1255845553
0.03561474246
0.06426471021
0.04031092866
0.1532866742
0.06648736517
0.02951152545
0.05482764805
0.2365356892
0.2320364897
0.01136635268
0.02941852465
0.05449086322
0.05927015218
0.08931689021
)


101
(
0
-3.87587833e-05
-0.004884797301
-0.02643141671
-0.07142039924
-0.1420584014
-0.2396055495
-0.3553237144
-0.4659410769
-0.545464096
-0.5837179073
-0.6032680892
-0.6262048336
-0.6426461533
-0.6341327914
-0.611837108
-0.6032624803
-0.6166000748
-0.5993087076
-0.571589657
-0.511322808
-0.4998232922
-0.5824954143
-0.703771354
-0.8037056976
-0.8180884979
-0.7385582921
-0.6066472035
-0.454988755
-0.3142812186
-0.2154613964
-0.1700851224
-0.1460161052
-0.07789954185
0.09153197304
0.3347313753
0.5239505731
0.5131297554
0.2982430027
0.04878560339
-0.05816068623
0.04813342666
0.3695158544
0.6731129011
0.8405886963
0.7871758014
0.5200779187
0.1649552733
-0.03615069076
-0.1259165395
-0.08479132764
-0.01621482536
0.008122303643
-0.05185034124
-0.2330607314
-0.4200201778
-0.5713979385
-0.5919222556
-0.5106926627
-0.3990675583
-0.302707226
-0.2448064933
-0.2407435362
-0.3371592509
-0.4716597161
-0.5392530306
-0.5012655237
-0.4402454323
-0.4511509374
-0.5336719917
-0.5585181454
-0.3127191319
0.2466341178
0.6929527446
0.5183676902
-0.1147247806
-0.3761227226
-0.1453286214
0.1604688426
0.1681845589
-0.1564139954
0.01681902315
0.1079010908
0.1716276359
0.1860247527
0.05580129353
0.1519423593
0.1194677112
0.08299871959
0.09620448328
0.1583860887
0.1244679532
0.07388083882
0.09478038338
0.3095778901
0.2964299694
0.04168737009
0.04898971628
0.06048141257
-0.07829305252
-0.1946157861
)


101
(
0
-1.493266138e-05
-0.005114167964
-0.02811894623
-0.07626831217
-0.15172939
-0.2557740609
-0.3794429614
-0.4981933971
-0.5838590005
-0.6216164748
-0.6343669692
-0.6471967418
-0.6560420003
-0.638459872
-0.5998954766
-0.5788087046
-0.5725390143
-0.5732295049
-0.5307776177
-0.4709267143
-0.4647624185
-0.5252862289
-0.6555078548
-0.7806308343
-0.8351970214
-0.7880333692
-0.6751994198
-0.5362374807
-0.4007084225
-0.2984063675
-0.245549232
-0.2323854269
-0.2086182231
-0.1130071411
0.06867447461
0.2626670971
0.3483595105
0.2311835726
-0.01308635053
-0.1742433373
-0.1656409413
0.02477963923
0.2880541521
0.4618514648
0.4458449334
0.2590994026
-0.0298454466
-0.3375457043
-0.4908360265
-0.5047179064
-0.4396096082
-0.3856940139
-0.4280739993
-0.564254217
-0.7719184168
-0.9659268967
-1.048923182
-0.9990212375
-0.8880818754
-0.7769090967
-0.6940393962
-0.663491253
-0.7257436214
-0.8785652201
-1.031134498
-1.064389946
-0.9867456346
-0.9045153153
-0.8906307279
-0.8807718916
-0.6784707426
-0.1677933982
0.3004027501
0.2008442815
-0.3682942665
-0.6007448616
-0.3659199844
-0.1007280082
-0.08796730586
-0.3142388037
-0.1496310789
-0.1091137739
-0.001728082171
0.1690424459
0.009592720407
0.04510754532
0.1015676349
0.1098301551
0.0620497381
0.1794652746
0.1586941205
0.1230058824
0.1100989283
0.3924055444
0.365395113
0.08059382228
-0.002564897516
-0.1126970775
-0.7808565506
-1.400449312
)


101
(
0
1.323319151e-05
-0.005299480178
-0.02963548362
-0.08070788251
-0.1606216811
-0.270671982
-0.4018289736
-0.5287103846
-0.620915922
-0.6598418136
-0.666330551
-0.6720066435
-0.6724300749
-0.6428772589
-0.5980513849
-0.5577054717
-0.5390617348
-0.5303273298
-0.5092874055
-0.4463458419
-0.4131635344
-0.470012047
-0.6028035339
-0.7441747984
-0.8298270474
-0.8251554361
-0.74225344
-0.6204535409
-0.4945675947
-0.3931838412
-0.3377490727
-0.327505882
-0.3291151342
-0.2940120155
-0.1861745447
-0.03087624577
0.08307759486
0.04985786901
-0.1236265473
-0.3083480414
-0.4040251207
-0.3461166993
-0.1606089907
-0.008462183611
0.02645558206
-0.118566879
-0.3984515018
-0.6782303191
-0.8980236532
-1.01603254
-1.033594902
-0.9999116753
-1.000523811
-1.117528448
-1.303398502
-1.503718325
-1.671583459
-1.700208575
-1.615573222
-1.515898582
-1.437554358
-1.387618661
-1.406332263
-1.549554078
-1.756696766
-1.90489707
-1.90378354
-1.800867934
-1.70147195
-1.623293003
-1.436995653
-0.9957637511
-0.5447399972
-0.5837384193
-1.078063293
-1.263222884
-0.9855233025
-0.7251493733
-0.749554672
-0.8926609096
-0.6410149324
-0.6495621998
-0.569843894
-0.2895267944
-0.3113828061
-0.3598469095
-0.2765932375
-0.08423089482
-0.2135703975
-0.1054784864
-0.0007530088786
0.02269766774
0.01179922881
0.3727632369
0.3480519828
0.0577143937
-0.3796871205
-0.9601272919
-2.927390722
-5.517562803
)


101
(
0
4.55844483e-05
-0.005441937574
-0.03098257197
-0.08473812439
-0.1687225195
-0.2842716166
-0.4223673677
-0.557150725
-0.6561389809
-0.6979344334
-0.7003418635
-0.6960368587
-0.6900778946
-0.6564141922
-0.6017045829
-0.5421820558
-0.5125518409
-0.4921095388
-0.4713283658
-0.4203253832
-0.3895026069
-0.4297308218
-0.554039904
-0.7070473446
-0.8244281844
-0.8590060953
-0.8035608928
-0.7014585405
-0.5915407844
-0.5007453212
-0.446102061
-0.4353441582
-0.4555222847
-0.46333446
-0.4277365256
-0.3431482743
-0.2516149198
-0.2178427239
-0.3296855079
-0.5107348574
-0.6572302064
-0.7115740862
-0.6362349943
-0.5452358862
-0.5487507361
-0.6578851731
-0.8676983385
-1.190771603
-1.452038905
-1.626147938
-1.73807525
-1.804087566
-1.854349433
-1.950044795
-2.118441416
-2.325711586
-2.530705267
-2.656716447
-2.665774884
-2.617430103
-2.56965089
-2.54707478
-2.550379706
-2.645237894
-2.877326897
-3.128278054
-3.271399802
-3.254613821
-3.147937574
-3.022149514
-2.83530932
-2.470314043
-2.091224454
-2.12741456
-2.566162074
-2.698537609
-2.379085918
-2.097969
-2.161202853
-2.280954531
-1.885946623
-1.865239341
-1.862918375
-1.569885515
-1.355864644
-1.415034683
-1.324954228
-1.016076494
-1.060104886
-0.9259730113
-0.6913211971
-0.5997051747
-0.5463678269
-0.05893260822
-0.06532520821
-0.3045315412
-1.666769521
-3.450265351
-7.91323684
-14.86826067
)


101
(
0
8.132678172e-05
-0.005543404663
-0.03216305783
-0.08836341854
-0.1760377035
-0.2965349072
-0.4409803076
-0.5832415326
-0.6895413361
-0.7349118314
-0.7334513119
-0.7228817037
-0.70954391
-0.6734938435
-0.6055007852
-0.5375856991
-0.4842739852
-0.4677907586
-0.439909767
-0.3986399946
-0.3575535016
-0.3870710043
-0.5028882039
-0.6682620253
-0.8085904607
-0.8768718223
-0.8550685947
-0.7774412605
-0.6862889331
-0.6110825676
-0.5701737204
-0.5660892228
-0.5957829176
-0.6359019572
-0.6600288252
-0.6503653445
-0.6180167306
-0.5907804867
-0.6530182633
-0.7877814935
-0.9859898683
-1.123197845
-1.185674832
-1.18231207
-1.207634788
-1.343300758
-1.575248657
-1.838384851
-2.149632821
-2.437536045
-2.609664321
-2.786369113
-2.946315674
-3.079444817
-3.280337473
-3.524815162
-3.769042225
-3.987026548
-4.115471998
-4.17247121
-4.206034286
-4.262551144
-4.321456988
-4.409495796
-4.620821428
-4.958387121
-5.26263392
-5.427406129
-5.426180416
-5.329567518
-5.169457516
-4.880506299
-4.61101636
-4.740191783
-5.219546355
-5.349928411
-4.998255444
-4.702561158
-4.819776895
-5.011646726
-4.540944418
-4.400249222
-4.45830137
-4.244936565
-3.819493008
-3.77778958
-3.663125992
-3.287061252
-3.134343016
-2.979556328
-2.54970222
-2.398098062
-2.205349162
-1.557635877
-1.478113439
-1.635547148
-4.833173165
-9.003968326
-17.75411052
-22.465816
)


101
(
0
0.0001199653367
-0.005605809847
-0.03317876712
-0.09158327013
-0.182558686
-0.3074485031
-0.4575977611
-0.6067847955
-0.7205229528
-0.770130162
-0.7670262047
-0.7495952681
-0.7301551932
-0.6910265207
-0.6123823875
-0.5349217241
-0.4711740192
-0.4296879234
-0.412166168
-0.379158326
-0.3363587359
-0.3590851005
-0.4567654953
-0.6240501145
-0.7901421384
-0.8909547602
-0.9079331673
-0.8558630833
-0.7835330193
-0.7253410717
-0.7005057527
-0.7140859835
-0.7606722371
-0.8258425087
-0.8953070825
-0.9564372411
-0.9955243623
-1.022339841
-1.075818534
-1.20316142
-1.386778948
-1.591530975
-1.760754955
-1.890057683
-2.020196564
-2.195587468
-2.432796491
-2.749508689
-3.063496903
-3.400287651
-3.728473886
-4.005536851
-4.29019194
-4.55760314
-4.822280399
-5.133791378
-5.482999111
-5.809450903
-6.093130477
-6.298966985
-6.481468047
-6.675594247
-6.871704068
-7.056457314
-7.293073327
-7.6893002
-8.159711309
-8.552122395
-8.779459609
-8.835601012
-8.784336651
-8.604576244
-8.460069589
-8.747676373
-9.423233254
-9.719081958
-9.425829963
-9.135528209
-9.317394633
-9.683694042
-9.335131714
-9.107640724
-9.156931399
-9.113498766
-8.605659661
-8.370588818
-8.249391703
-7.835097567
-7.463172741
-7.318375038
-6.628081041
-6.372039156
-6.018675298
-5.193528575
-4.990539984
-5.007980764
-11.37224603
-19.63626191
-34.65354161
-59.49315602
)


101
(
0
0.000161275291
-0.005626719496
-0.03403042199
-0.09439388923
-0.1882655448
-0.3169281127
-0.4722235654
-0.6277768673
-0.7487269458
-0.8036430109
-0.8000283459
-0.7759790323
-0.7510302852
-0.7079984488
-0.6327975458
-0.5350751766
-0.4593655837
-0.4089059625
-0.3786475893
-0.3505246361
-0.3306657606
-0.3338046458
-0.4270141371
-0.583801874
-0.7631467617
-0.895118327
-0.9480252296
-0.9285802197
-0.8774711019
-0.8378266815
-0.8366134675
-0.8769750981
-0.950031872
-1.042244055
-1.150848641
-1.269470641
-1.393777517
-1.511188286
-1.598062787
-1.725821918
-1.899330627
-2.141086387
-2.421520574
-2.694046337
-2.933928088
-3.195521688
-3.510846738
-3.858852518
-4.251016298
-4.667589545
-5.074682696
-5.501057547
-5.939984752
-6.379624384
-6.802980944
-7.21544606
-7.688846375
-8.191060978
-8.681992635
-9.117712321
-9.518403989
-9.920900582
-10.34503091
-10.74189728
-11.14404587
-11.64565308
-12.29705564
-12.97142419
-13.51209158
-13.86475671
-14.0563952
-14.09834546
-14.13252708
-14.60144127
-15.60174735
-16.28427749
-16.30320558
-16.1335139
-16.39553755
-16.99009005
-16.98561859
-16.89257484
-16.92291335
-17.11104112
-16.77921287
-16.36486242
-16.23013887
-15.9243181
-15.41611209
-15.22524091
-14.41059837
-13.89360689
-13.4288167
-12.47928068
-12.10886094
-11.92440336
-23.23061732
-37.52926529
-60.18657202
-87.80332943
)


101
(
0
0.0002045979619
-0.005615100794
-0.03472411484
-0.09681018458
-0.1931883171
-0.3250282974
-0.4847322468
-0.6458874472
-0.7737758891
-0.834614885
-0.8313293909
-0.8028662745
-0.7727059463
-0.7257939486
-0.649556589
-0.5462968167
-0.4522116627
-0.3855635917
-0.3542587267
-0.3262315273
-0.306023492
-0.3221979326
-0.4016874177
-0.5484446244
-0.7284693985
-0.892157019
-0.987080541
-1.004366604
-0.9767348632
-0.9554781209
-0.9803958613
-1.053032783
-1.162542513
-1.290220128
-1.435340878
-1.60740677
-1.803212286
-2.004983661
-2.190303103
-2.36015663
-2.553892473
-2.815614536
-3.160828808
-3.557856844
-3.966462609
-4.352964355
-4.765870553
-5.221659974
-5.692495556
-6.208689332
-6.763023106
-7.337960604
-7.952088468
-8.585515009
-9.208638547
-9.844836139
-10.50268278
-11.20612502
-11.94880439
-12.69682348
-13.40894441
-14.11422337
-14.8604835
-15.60668935
-16.33060881
-17.09670163
-17.99470286
-19.01344214
-19.97836247
-20.77243778
-21.37376137
-21.81394497
-22.18161792
-22.9023001
-24.25697883
-25.53337113
-26.18871201
-26.44817139
-26.93234594
-27.78348014
-28.23655149
-28.6171011
-28.78137402
-29.22256833
-29.35979811
-29.03044305
-28.82853881
-28.83803451
-28.3409087
-28.08005498
-27.35088372
-26.58212834
-26.04520543
-25.09787422
-24.53868814
-24.21701881
-42.08011562
-64.18821976
-95.70664457
-122.0065764
)


101
(
0
0.0002495499936
-0.00556729041
-0.03526152676
-0.09883054841
-0.1973261311
-0.3320940641
-0.4951262461
-0.6611191932
-0.7953415098
-0.8624177306
-0.8612115664
-0.8282436556
-0.7918824249
-0.7442002441
-0.6663812174
-0.5608692996
-0.4537021047
-0.3658023812
-0.3237663489
-0.2980585219
-0.2842290098
-0.3152926012
-0.3850451443
-0.5271192646
-0.7059206857
-0.8832684953
-1.011688812
-1.072934852
-1.081056109
-1.082826516
-1.131620632
-1.240504231
-1.386395549
-1.563010192
-1.752089025
-1.971914381
-2.230558436
-2.528030741
-2.82153698
-3.079111943
-3.333464003
-3.617694747
-4.010410289
-4.530397147
-5.089874825
-5.65781143
-6.217868005
-6.796304054
-7.426427361
-8.080429588
-8.775684486
-9.542791598
-10.3662929
-11.25050983
-12.13843278
-13.01843217
-13.93237866
-14.92723066
-16.02600763
-17.1182781
-18.24889769
-19.37667586
-20.53569829
-21.74066003
-22.95104834
-24.17925627
-25.50217173
-26.96616856
-28.48300496
-29.87142031
-31.08367887
-32.14800191
-33.09146676
-34.26058146
-36.03176157
-37.97289677
-39.52138502
-40.63498539
-41.70640032
-42.94318666
-43.89106316
-45.03184068
-45.68110041
-46.39749727
-47.18044226
-47.4365713
-47.24220027
-47.70378386
-47.46796455
-47.14421109
-46.72486304
-45.95323465
-45.3310664
-44.53220691
-43.83218603
-43.35202155
-69.18298118
-100.4850913
-141.8375068
-200.0192956
)


101
(
0
0.000295762108
-0.005488725791
-0.03564504587
-0.1004570186
-0.2007104944
-0.3375818101
-0.50346269
-0.6734873568
-0.81353751
-0.887099699
-0.8886057958
-0.8529507049
-0.8120221863
-0.7608461899
-0.6843525729
-0.5791094936
-0.4638592842
-0.3705589745
-0.2981320821
-0.2639559442
-0.2749315179
-0.3137281981
-0.3872508696
-0.5121542906
-0.6836688257
-0.8702017411
-1.025803342
-1.133660222
-1.187758489
-1.216807593
-1.294622913
-1.42968452
-1.623003968
-1.852442163
-2.098404103
-2.368214815
-2.688108356
-3.060488036
-3.464678016
-3.852957467
-4.203196516
-4.561735114
-5.009000101
-5.596009374
-6.325051121
-7.080117535
-7.83769395
-8.601117034
-9.403222872
-10.24446645
-11.15967924
-12.14273318
-13.22163452
-14.37884984
-15.60135075
-16.83753176
-18.0663999
-19.40048296
-20.85450111
-22.46541863
-24.10486147
-25.77905314
-27.48554191
-29.25024229
-31.08574339
-32.96194648
-34.91535177
-37.01428935
-39.22369162
-41.38751425
-43.43846717
-45.36644666
-47.18558193
-49.11299042
-51.49405971
-54.13128182
-56.70143189
-58.9855431
-61.12808883
-63.14326023
-64.66599417
-66.71084435
-68.28532503
-69.51324337
-70.92647452
-72.24431141
-72.39051273
-73.35284015
-73.72333814
-73.46012604
-73.43494312
-72.97597594
-72.4004506
-71.85157028
-71.17580454
-70.69042086
-105.3063416
-146.6542771
-198.5472964
-260.8537731
)


101
(
0
0.0003444264477
-0.005371549572
-0.03588142624
-0.1017054074
-0.2032970018
-0.3417592561
-0.5096499338
-0.6827610547
-0.827806856
-0.9075450993
-0.913022034
-0.8751131086
-0.8299652037
-0.7771957436
-0.700825141
-0.5950801652
-0.4793340209
-0.3689514574
-0.294176809
-0.2570524073
-0.2573673574
-0.3002998176
-0.3851540763
-0.5096193904
-0.6734343901
-0.862879575
-1.041609609
-1.185288304
-1.286511773
-1.363840607
-1.457338458
-1.629207658
-1.867972633
-2.144667835
-2.461104131
-2.792776041
-3.174338798
-3.619454007
-4.129729761
-4.653428937
-5.144413547
-5.622294129
-6.144031374
-6.809342825
-7.653975401
-8.631916164
-9.631025117
-10.61335494
-11.63736125
-12.70749148
-13.87637453
-15.12592764
-16.49273105
-18.01195784
-19.61469851
-21.275859
-22.92984044
-24.68303924
-26.60941915
-28.72156151
-30.98745009
-33.32851881
-35.74553545
-38.22723004
-40.7921472
-43.47113025
-46.26911501
-49.20105324
-52.28854909
-55.41505038
-58.51303939
-61.55500138
-64.56966663
-67.64334168
-70.96739187
-74.44855344
-78.07634593
-81.66525365
-85.23796521
-88.57342287
-90.96912066
-93.96120494
-96.83836626
-99.0501748
-101.1048065
-103.7166996
-104.6857227
-106.1826243
-107.4815089
-107.5667581
-108.0378766
-107.9730728
-107.7182994
-107.5541535
-107.2128904
-107.0039324
-150.9475333
-202.9060317
-265.9533309
-335.6527009
)


101
(
0
0.0003905158443
-0.005234217018
-0.03597221005
-0.1025715368
-0.2051322609
-0.3445821927
-0.5138148269
-0.6891543066
-0.8383540464
-0.9241485695
-0.9339407125
-0.8955716069
-0.8461391682
-0.7915192811
-0.7160723207
-0.6137955761
-0.4961188678
-0.3794488687
-0.288096912
-0.2410911728
-0.239459508
-0.291176852
-0.3834516626
-0.5093094076
-0.6726256268
-0.8558971835
-1.046627743
-1.22230967
-1.370447303
-1.501631955
-1.643735572
-1.83385747
-2.106423393
-2.445723815
-2.826685044
-3.235933523
-3.684783845
-4.204815793
-4.804063748
-5.459805142
-6.122608759
-6.761766869
-7.409447675
-8.170820417
-9.123816849
-10.2841427
-11.5211661
-12.81474044
-14.09716868
-15.45088716
-16.89962833
-18.48236254
-20.19221065
-22.07014623
-24.15236127
-26.32214518
-28.54084274
-30.79766557
-33.24259991
-35.95546989
-38.91401563
-42.02255703
-45.26288041
-48.63804249
-52.10323496
-55.7159257
-59.50910889
-63.49379171
-67.64946274
-71.92318613
-76.24110448
-80.61663108
-85.10552485
-89.72207694
-94.42923907
-99.03487102
-103.8188137
-108.7762767
-113.929577
-119.0024141
-122.7387669
-126.7730187
-131.1471789
-134.9059426
-137.8906453
-141.752368
-144.0139426
-146.1465876
-148.594376
-149.3652093
-150.6231386
-150.9393743
-151.2548161
-151.6622401
-152.1056485
-152.3964288
-206.1831927
-269.287714
-344.3884158
-425.3024189
)


101
(
0
0.0004369191518
-0.005066673858
-0.0359242059
-0.1030723849
-0.2062366005
-0.3461359567
-0.5159087952
-0.6925377887
-0.8449013709
-0.9361565624
-0.9508444545
-0.9129684544
-0.8607535149
-0.8037977164