/*--------------------------------*- C++ -*----------------------------------*\
| =========                 |                                                 |
| \\      /  F ield         | OpenFOAM: The Open Source CFD Toolbox           |
|  \\    /   O peration     | Version:  2.3.1                                 |
|   \\  /    A nd           | Web:      www.OpenFOAM.org                      |
|    \\/     M anipulation  |                                                 |
\*---------------------------------------------------------------------------*/
FoamFile
{
    version     2.0;
    format      ascii;
    class       dictionary;
    location    "constant";
    object      la_i17;
}
// * * * * * * * * * * * * * * * * * * * * * * * * * * * * * * * * * * * * * //

la_i17_table
101
(

101
(
0
0
0
0
0
0
0
0
0
0
0
0
0
0
0
0
0
0
0
0
0
0
0
0
0
0
0
0
0
0
0
0
0
0
0
0
0
0
0
0
0
0
0
0
0
0
0
0
0
0
0
0
0
0
0
0
0
0
0
0
0
0
0
0
0
0
0
0
0
0
0
0
0
0
0
0
0
0
0
0
0
0
0
0
0
0
0
0
0
0
0
0
0
0
0
0
0
0
0
0
-0.1337050569
)


101
(
0
8.322289529e-05
-0.0003889017812
-0.001259154129
-0.003804657779
-0.009746115015
-0.02109438748
-0.04000593296
-0.06851230823
-0.1090625472
-0.1652798277
-0.2403978111
-0.336648513
-0.4621589508
-0.623302382
-0.8287934474
-1.092358769
-1.435644816
-1.860081377
-2.407393939
-3.074857973
-3.86810528
-4.811680033
-5.89603733
-7.0974326
-8.396169951
-9.763520991
-11.16772939
-12.57920897
-13.96598523
-15.30366978
-16.58074875
-17.79648233
-18.9447509
-20.03914294
-21.05880064
-22.03148512
-22.96022837
-23.68558482
-24.26947006
-24.78559267
-25.23778676
-25.58600208
-25.82980337
-25.98825484
-26.07277955
-26.10051561
-26.06335297
-25.96180854
-25.79398311
-25.56891585
-25.28848982
-24.95302063
-24.56237629
-24.11991592
-23.63101242
-23.09574811
-22.52700286
-21.91860947
-21.27677172
-20.60197345
-19.8995429
-19.170919
-18.4157558
-17.63670889
-16.84019691
-16.0335501
-15.22224271
-14.40553207
-13.57871441
-12.73417006
-11.88905095
-11.11217498
-10.48686893
-9.962486592
-9.198127524
-8.102258249
-7.240476163
-6.71953756
-6.10802068
-5.353714696
-4.626524215
-4.196464825
-3.961222715
-2.857106584
-2.462073774
-2.307827446
-1.80898233
-1.432726992
-1.451542277
-0.7623631806
-0.6363377188
-0.5451466422
-0.2663333825
-0.1996046525
-0.07404622061
-0.02649194758
-0.02984935361
-0.03305251342
-0.03806818647
-0.04289876947
)


101
(
0
-7.869119146e-05
-0.0006926419661
-0.001646485053
-0.004230786278
-0.01008423605
-0.02144109556
-0.04030792807
-0.06801574002
-0.1066268572
-0.1586268247
-0.226972134
-0.3128753285
-0.4225466156
-0.5614908743
-0.7376753533
-0.9623627026
-1.253158708
-1.616236718
-2.080202583
-2.651498918
-3.329911166
-4.132215591
-5.055077226
-6.078789174
-7.179338798
-8.336067307
-9.522923831
-10.71145611
-11.872052
-12.97571797
-14.00951635
-14.98656028
-15.90897353
-16.80311349
-17.64313559
-18.41207285
-19.08734429
-19.61576104
-20.02634754
-20.39564405
-20.74715276
-21.02507649
-21.19348328
-21.26136737
-21.25729067
-21.2153475
-21.13444809
-21.00983706
-20.83231425
-20.61009298
-20.34847379
-20.05044195
-19.71261391
-19.3331526
-18.91553596
-18.46339357
-17.99028745
-17.49221928
-16.97240968
-16.43076645
-15.87165749
-15.29721535
-14.70610753
-14.09730391
-13.47327941
-12.84069822
-12.20836573
-11.58131252
-10.95405906
-10.30304349
-9.611408865
-8.923474849
-8.39028966
-8.126843844
-7.833127414
-7.002555611
-5.993802458
-5.482865107
-5.199974765
-4.708768484
-4.072929612
-3.605623024
-3.506566197
-3.143941701
-2.26936855
-1.989548218
-1.859838131
-1.448538952
-1.190125523
-1.11229249
-0.6289432532
-0.5944685589
-0.4700943674
-0.2534565796
-0.1650584202
-0.08923621667
-0.09691702171
-0.1039240726
-0.1105722318
-0.1171358782
)


101
(
0
-0.0002308312306
-0.0009981746274
-0.002034392686
-0.004597043298
-0.0103690762
-0.02177848465
-0.04063243778
-0.06776900891
-0.1045845255
-0.1530506756
-0.2158569937
-0.2928444903
-0.3890897509
-0.5093412191
-0.6600569364
-0.8520080692
-1.099341628
-1.411021684
-1.806416725
-2.298489683
-2.88453433
-3.574612949
-4.36878229
-5.25217983
-6.199896471
-7.192781858
-8.210220821
-9.228165397
-10.22145344
-11.15747629
-12.01458933
-12.80221658
-13.54458553
-14.27729319
-14.98956732
-15.6529577
-16.19522139
-16.57505402
-16.83610751
-17.07332015
-17.34067101
-17.58785643
-17.74439399
-17.78553867
-17.73543775
-17.64676346
-17.54035204
-17.41219828
-17.2463407
-17.04249357
-16.80680323
-16.54678904
-16.26194931
-15.94673849
-15.60017452
-15.22391467
-14.83164612
-14.42347688
-14.00140604
-13.56477772
-13.11607223
-12.65767932
-12.18977532
-11.71099525
-11.22081338
-10.7224572
-10.22124061
-9.725783143
-9.241314896
-8.752208716
-8.223707391
-7.643644239
-7.099006499
-6.785734152
-6.70142039
-6.358844326
-5.542411886
-4.823501982
-4.544503232
-4.324893981
-3.866854397
-3.372431437
-3.066736052
-2.977420471
-2.618072062
-1.895810472
-1.780352964
-1.600767918
-1.330803336
-1.172825748
-0.9680861397
-0.6662211242
-0.5784530787
-0.3802992
-0.2863469879
-0.2183764793
-0.2218604023
-0.2220175731
-0.2157180874
-0.2010296423
)


101
(
0
-0.0003904877323
-0.001306723493
-0.002424532715
-0.004967906633
-0.01064776273
-0.02209347767
-0.04096989573
-0.06768001016
-0.1029791492
-0.1484910604
-0.2062481488
-0.2767547481
-0.3617299195
-0.4663071225
-0.5961201558
-0.7598805375
-0.9707984094
-1.238764784
-1.57811916
-2.003504549
-2.514162874
-3.114008105
-3.806000906
-4.57796943
-5.40811005
-6.274699451
-7.161806123
-8.049298297
-8.916487728
-9.730987471
-10.46451596
-11.11908937
-11.71110563
-12.31176998
-12.92699873
-13.51942933
-14.00235752
-14.30425228
-14.45582535
-14.56476512
-14.73357744
-14.94863749
-15.12326576
-15.18522807
-15.13055164
-15.01627398
-14.88736823
-14.7572762
-14.60976604
-14.43215692
-14.22495535
-13.9976706
-13.75518044
-13.49433319
-13.21001904
-12.9015332
-12.57816068
-12.24278136
-11.89765433
-11.54229732
-11.17876159
-10.80823436
-10.4309299
-10.0466608
-9.65575107
-9.26002175
-8.85992884
-8.458592199
-8.064655662
-7.678258187
-7.278299357
-6.834504464
-6.357190638
-5.963483261
-5.797300295
-5.689660344
-5.272236116
-4.590282978
-4.106467035
-3.945628643
-3.714088023
-3.315207699
-2.935287976
-2.721118113
-2.595183064
-2.216123606
-1.742542085
-1.653539582
-1.427434371
-1.20774402
-1.089512127
-0.8377511754
-0.7209052642
-0.553420087
-0.4291419576
-0.3214337349
-0.3021407395
-0.2870109769
-0.3661952098
-0.4670637621
)


101
(
0
-0.0005456291889
-0.001611042282
-0.002817287578
-0.00534319481
-0.01092065496
-0.02237526945
-0.04131242188
-0.0677211664
-0.1018232316
-0.1448693809
-0.1985272721
-0.2631409881
-0.3389299817
-0.4294630706
-0.5414011356
-0.6820007656
-0.8621402513
-1.092460625
-1.385364008
-1.756090952
-2.205058252
-2.733296286
-3.344364152
-4.028707855
-4.767346408
-5.536831796
-6.323065498
-7.112533318
-7.88533469
-8.61440521
-9.264193006
-9.818624794
-10.30470408
-10.78771821
-11.30526634
-11.84762651
-12.32148317
-12.61356169
-12.70638855
-12.70980339
-12.76411874
-12.91728837
-13.10323303
-13.2126524
-13.19174526
-13.07663
-12.93108529
-12.79428203
-12.65993185
-12.50947792
-12.33266848
-12.13460638
-11.92370669
-11.70226101
-11.46587584
-11.21192809
-10.94531535
-10.66835255
-10.38297467
-10.08928764
-9.789829786
-9.485395255
-9.175405536
-8.859102595
-8.538074581
-8.215998017
-7.892590256
-7.564789164
-7.234712913
-6.908081767
-6.581614507
-6.238548634
-5.866952234
-5.495263747
-5.225977866
-5.092646922
-4.92177766
-4.500306641
-3.944946426
-3.626469923
-3.512463205
-3.276340084
-2.934969779
-2.654951801
-2.479747622
-2.294978793
-1.947150564
-1.708520703
-1.559008114
-1.36368132
-1.173209408
-1.01408066
-0.8801772358
-0.7091809831
-0.5486998503
-0.4375256004
-0.518856116
-0.5933866031
-0.5720068007
-0.5154399527
)


101
(
0
-0.0006920011467
-0.00191805855
-0.00321143293
-0.00572187853
-0.01118248057
-0.02263166643
-0.04163654777
-0.06784539351
-0.1010213123
-0.1418987336
-0.1922138293
-0.2517307567
-0.3200962732
-0.399285094
-0.4955986845
-0.6168029935
-0.7708603242
-0.970862827
-1.223878654
-1.548465102
-1.946481689
-2.416140471
-2.961141558
-3.575124275
-4.242180949
-4.940130053
-5.651263437
-6.36355932
-7.065136387
-7.732900466
-8.335101729
-8.840531503
-9.246831354
-9.632101829
-10.05898306
-10.54584885
-11.01665104
-11.34047045
-11.44415355
-11.38694357
-11.33023537
-11.38876406
-11.551126
-11.70562183
-11.74613391
-11.66200412
-11.51306468
-11.36331654
-11.23133375
-11.10243481
-10.95520899
-10.78515273
-10.59986275
-10.40546891
-10.20201591
-9.98662731
-9.76264201
-9.530128333
-9.290331698
-9.042778027
-8.78992107
-8.533716397
-8.273310997
-8.006963791
-7.735168734
-7.463129536
-7.193784782
-6.923041662
-6.645463486
-6.362107741
-6.07695588
-5.789432452
-5.497834975
-5.19824982
-4.91489467
-4.700483129
-4.563498081
-4.367478635
-3.963940662
-3.520287266
-3.325663225
-3.220012976
-2.970721304
-2.693887183
-2.478370222
-2.325758534
-2.116655641
-1.791955012
-1.684747587
-1.516084243
-1.3464455
-1.165919789
-1.009508919
-0.8370949564
-0.74996529
-0.6406222952
-0.6735525619
-0.7090962121
-0.7754337164
-0.8606808492
)


101
(
0
-0.0008442321423
-0.00222455229
-0.003607213674
-0.006105237537
-0.01144093504
-0.02284754389
-0.04191892453
-0.06800845994
-0.1004208894
-0.1395395066
-0.1868783214
-0.2423694589
-0.3047316626
-0.3749896567
-0.458209792
-0.5625609004
-0.6953605917
-0.8675505843
-1.089812831
-1.374467503
-1.72883242
-2.151982736
-2.644323595
-3.202902306
-3.81469579
-4.458483067
-5.115747788
-5.774005105
-6.42386109
-7.048447264
-7.61694422
-8.097342482
-8.473830664
-8.79049556
-9.131881017
-9.548223479
-10.00843147
-10.38474098
-10.54533255
-10.4924982
-10.35722461
-10.30382958
-10.39864114
-10.56663307
-10.67465421
-10.65209283
-10.52450692
-10.36563884
-10.22394221
-10.10279231
-9.979087772
-9.837020063
-9.675725228
-9.502343176
-9.320630128
-9.13069344
-8.935162908
-8.734278007
-8.527537443
-8.313531553
-8.094059454
-7.871597264
-7.646800115
-7.417132116
-7.181239618
-6.943387451
-6.70955561
-6.478873894
-6.243787095
-5.998407185
-5.743814238
-5.486435497
-5.238594155
-5.000258827
-4.756571889
-4.512709653
-4.324031796
-4.196980229
-3.988822854
-3.604551139
-3.271429289
-3.161699321
-3.018988909
-2.777899207
-2.554878703
-2.381947033
-2.228996161
-1.962697565
-1.791598844
-1.627808623
-1.455027603
-1.333898484
-1.15629962
-1.031936036
-0.8963702838
-0.7038796297
-0.7774764935
-0.8565485159
-0.9752656446
-1.124344828
)


101
(
0
-0.0009923354661
-0.002527364276
-0.004003286733
-0.006490680558
-0.01169225358
-0.02302729989
-0.04215530658
-0.06819323531
-0.1000161213
-0.137729865
-0.1825788106
-0.2346003744
-0.2914400783
-0.3542673416
-0.4271537228
-0.5171162096
-0.6318862474
-0.7820824747
-0.9755520361
-1.228341892
-1.547434591
-1.931004683
-2.38073657
-2.894192843
-3.461845464
-4.065261492
-4.684163643
-5.305058717
-5.919784737
-6.516614524
-7.072126672
-7.549940632
-7.919928355
-8.207215542
-8.483757811
-8.828787741
-9.255072944
-9.664855764
-9.912791993
-9.926898682
-9.771253352
-9.623970648
-9.617930506
-9.751643616
-9.90477412
-9.958309974
-9.882431575
-9.733405816
-9.5802115
-9.452770752
-9.340389366
-9.221412781
-9.084245262
-8.930995051
-8.766795438
-8.593919465
-8.416768656
-8.236821415
-8.053029984
-7.863153891
-7.6676683
-7.468431076
-7.268100562
-7.064651291
-6.855318716
-6.641886712
-6.430688749
-6.224701596
-6.018746178
-5.804456785
-5.576699063
-5.340471679
-5.113990263
-4.909563144
-4.708880287
-4.481709782
-4.256899833
-4.0986939
-3.979423101
-3.743012187
-3.380869931
-3.170679205
-3.079273317
-2.892164724
-2.675603504
-2.482591862
-2.347865649
-2.146505826
-1.921142821
-1.801211994
-1.654552808
-1.510120064
-1.329625629
-1.205450792
-1.072958832
-0.9803696691
-1.045558818
-1.11822051
-1.231852264
-1.372131753
)


101
(
0
-0.001133269242
-0.002832204927
-0.004400682321
-0.006881483702
-0.01193720351
-0.023163835
-0.04232500433
-0.0683417973
-0.09973048527
-0.1362196328
-0.178880186
-0.2282741706
-0.28113406
-0.3379424047
-0.4020404957
-0.4799261688
-0.5796770257
-0.7114390674
-0.8818251417
-1.106592958
-1.394297086
-1.746058838
-2.161295056
-2.63835224
-3.171296132
-3.670514739
-4.339721821
-4.93758608
-5.531378182
-6.112422168
-6.661358373
-7.151077765
-7.541771129
-7.835252445
-8.079620452
-8.358545876
-8.729899782
-9.151133203
-9.480481079
-9.59765735
-9.494532754
-9.300816828
-9.191859865
-9.248910595
-9.40575975
-9.527664174
-9.52659965
-9.415283646
-9.261888474
-9.123365891
-9.010858903
-8.905996175
-8.790578996
-8.658755985
-8.511370602
-8.353498282
-8.189603757
-8.02384502
-7.855783548
-7.683053453
-7.505017792
-7.322227678
-7.138506729
-6.953320795
-6.763266829
-6.567513168
-6.370837674
-6.178240344
-5.988722783
-5.795234754
-5.589272636
-5.370043515
-5.154320954
-4.962590711
-4.787380202
-4.588647028
-4.363532576
-4.165250379
-4.034771539
-3.895741439
-3.608633431
-3.32022791
-3.198038794
-3.060179596
-2.858933722
-2.654628255
-2.519673234
-2.35718455
-2.120145765
-1.989475615
-1.844341667
-1.690601365
-1.533045899
-1.413450295
-1.276924685
-1.110883408
-1.262626019
-1.418252749
-1.572280531
-1.578549102
)


101
(
0
-0.00127767642
-0.003133186499
-0.004796630274
-0.007273027811
-0.01217246329
-0.02326127292
-0.04242995853
-0.06843622163
-0.09952534987
-0.1349688798
-0.175956495
-0.2227445806
-0.2729813209
-0.3248849319
-0.3813846759
-0.4493943279
-0.5375844213
-0.6514001835
-0.8043844472
-1.005353882
-1.266489211
-1.591174483
-1.978297729
-2.426635922
-2.931468509
-3.482668544
-4.061309197
-4.648317577
-5.233166502
-5.808646325
-6.362429817
-6.867493602
-7.294902151
-7.620577417
-7.869617885
-8.113125175
-8.429985398
-8.828353784
-9.212273468
-9.445676915
-9.450217093
-9.278311621
-9.102321911
-9.062453135
-9.175609284
-9.33510436
-9.416230883
-9.370521629
-9.241895668
-9.098837092
-8.979592415
-8.881349609
-8.782985499
-8.671351701
-8.54353601
-8.402182418
-8.251240616
-8.097000081
-7.941335336
-7.781366679
-7.61641994
-7.446069465
-7.27372351
-7.100604398
-6.924098729
-6.742386213
-6.556010316
-6.370903015
-6.188370544
-6.005093137
-5.812791598
-5.606995491
-5.398204009
-5.207364784
-5.037977452
-4.857561838
-4.647379643
-4.433983056
-4.264931944
-4.141611845
-3.939156471
-3.644967112
-3.446595512
-3.328420197
-3.157781522
-2.946765905
-2.780395668
-2.634482779
-2.406293276
-2.2378981
-2.104296791
-1.938010305
-1.782679837
-1.647028243
-1.550227853
-1.391034805
-1.526660719
-1.708116269
-2.088426119
-2.741545034
)


101
(
0
-0.001418419092
-0.003432968237
-0.005192029677
-0.00766758448
-0.01240165147
-0.02331581469
-0.04245021713
-0.06844810267
-0.09932201398
-0.1339107844
-0.1733851091
-0.2181172359
-0.265937061
-0.3142289676
-0.364842906
-0.4251952502
-0.5019146354
-0.604551722
-0.7394117503
-0.9209570945
-1.161246064
-1.461844709
-1.825581035
-2.250480686
-2.733176358
-3.266605982
-3.835678237
-4.420299103
-5.00651647
-5.585291226
-6.150394952
-6.682980005
-7.149783321
-7.528804462
-7.816964241
-8.060148635
-8.333299073
-8.693988129
-9.101701882
-9.430091836
-9.567250063
-9.489616667
-9.308964004
-9.191768194
-9.231677969
-9.385235724
-9.529873114
-9.569900232
-9.496676967
-9.369208091
-9.246521817
-9.148750792
-9.063160532
-8.970917031
-8.865379804
-8.743555904
-8.608321663
-8.466476952
-8.322835693
-8.175050782
-8.021927374
-7.862372683
-7.698597716
-7.534209897
-7.368102755
-7.197334043
-7.020384931
-6.84053155
-6.660508933
-6.480483186
-6.294614509
-6.097303249
-5.893297116
-5.698962578
-5.522621077
-5.345217523
-5.146435702
-4.931919683
-4.735294171
-4.584884729
-4.421660623
-4.167823514
-3.904444597
-3.748604035
-3.607482579
-3.39714289
-3.196805336
-3.028817332
-2.829447055
-2.602623271
-2.47545041
-2.301451597
-2.14304473
-1.983815292
-1.857318186
-1.658966449
-1.98156165
-2.353072154
-2.832674237
-3.242144654
)


101
(
0
-0.001553435177
-0.003730305324
-0.005585529094
-0.008063616601
-0.01262471124
-0.02332844862
-0.04238518418
-0.06837114418
-0.09906654392
-0.1329786397
-0.1710859055
-0.2142738744
-0.2600601586
-0.3052100662
-0.3520680093
-0.4056392657
-0.4737473065
-0.5648298789
-0.6879915181
-0.8524486418
-1.07227749
-1.354006473
-1.698267751
-2.10386511
-2.569208323
-3.088828109
-3.65137537
-4.238845298
-4.83470929
-5.427683767
-6.008996399
-6.566067858
-7.081289056
-7.52431788
-7.876577326
-8.156829537
-8.424882725
-8.752452648
-9.149546307
-9.541538379
-9.811688197
-9.874241585
-9.761467563
-9.617270538
-9.582220848
-9.694306615
-9.871712791
-9.993762658
-10.00264537
-9.921083503
-9.811444195
-9.716740853
-9.640854468
-9.568226708
-9.486677043
-9.388832002
-9.274413815
-9.149537193
-9.020268767
-8.886695571
-8.74710838
-8.599890719
-8.4457085
-8.288947568
-8.132025956
-7.971791262
-7.804922977
-7.631798488
-7.453825159
-7.274445711
-7.090827784
-6.897460875
-6.696638356
-6.499122308
-6.311821452
-6.125320098
-5.927204085
-5.713025037
-5.500933639
-5.314264604
-5.14298335
-4.928990862
-4.640351127
-4.414163839
-4.272544701
-4.066794785
-3.842018837
-3.619625972
-3.429692151
-3.18774204
-3.026949827
-2.816695889
-2.635644978
-2.466913034
-2.314326416
-2.092874885
-2.544213831
-3.084117088
-3.709348691
-4.622994702
)


101
(
0
-0.001689575815
-0.004024444945
-0.005976479782
-0.008460203032
-0.01284096296
-0.02330048391
-0.04222841149
-0.06817677811
-0.09870908936
-0.1321075428
-0.1691047896
-0.210653608
-0.2549483571
-0.2983420815
-0.3420088681
-0.3901317408
-0.4515977792
-0.533102407
-0.6448561843
-0.7962200409
-1.000522494
-1.264809686
-1.592039665
-1.981412333
-2.432116965
-2.940590334
-3.499349906
-4.093005562
-4.70329211
-5.315683143
-5.922773058
-6.51629901
-7.074937059
-7.583387537
-8.016411509
-8.368433323
-8.670045808
-8.981511956
-9.364589926
-9.7889378
-10.1624156
-10.37981591
-10.3970333
-10.29700621
-10.22538414
-10.28085301
-10.45267435
-10.64078962
-10.744335
-10.73816275
-10.66815512
-10.58971914
-10.52752892
-10.4753864
-10.42017113
-10.35266094
-10.26620277
-10.16596735
-10.05746283
-9.943443998
-9.821392019
-9.69068332
-9.550585794
-9.405023813
-9.258213532
-9.108846501
-8.954481731
-8.790681365
-8.618532525
-8.441091766
-8.259046586
-8.067274193
-7.868325994
-7.669644865
-7.472545962
-7.270864113
-7.063992284
-6.843267285
-6.61995798
-6.402320762
-6.195909802
-5.991934112
-5.706338836
-5.409593775
-5.226294921
-5.021910962
-4.768271981
-4.501646581
-4.277044774
-4.019743255
-3.816612077
-3.562476137
-3.341997669
-3.143308338
-2.957622815
-2.647848271
-3.231945714
-3.930000198
-4.553315866
-5.636967433
)


101
(
0
-0.00182230811
-0.004316207803
-0.006364587612
-0.008857914969
-0.01305332241
-0.02323109178
-0.04197828913
-0.06784374907
-0.09825206613
-0.1311920253
-0.1671225357
-0.2074838955
-0.2504616685
-0.2927395638
-0.3336204902
-0.3785015349
-0.4335342618
-0.5090923656
-0.610814218
-0.7510740624
-0.9407277744
-1.190293154
-1.503105987
-1.879187409
-2.317598232
-2.817038657
-3.37281642
-3.973390556
-4.601269277
-5.239120108
-5.874627138
-6.50338938
-7.115336526
-7.689744155
-8.209427582
-8.651595491
-9.02387424
-9.364731028
-9.743512947
-10.17654987
-10.6263464
-10.98396167
-11.16726744
-11.17914958
-11.12895909
-11.14844876
-11.29494436
-11.51561274
-11.71031747
-11.80461906
-11.80444337
-11.7663238
-11.72849389
-11.70241286
-11.67965929
-11.64942039
-11.60035307
-11.53416742
-11.45570418
-11.36965897
-11.27282471
-11.16453847
-11.04560098
-10.91833491
-10.78525562
-10.65052052
-10.51000799
-10.36108259
-10.19905832
-10.02656545
-9.847115808
-9.655661606
-9.456159475
-9.256964822
-9.053615777
-8.836658977
-8.610439115
-8.372632069
-8.133155783
-7.888759153
-7.6375546
-7.407920882
-7.126748176
-6.776363124
-6.511747383
-6.291327909
-5.99633369
-5.689882864
-5.402261898
-5.114310612
-4.837359691
-4.565141939
-4.276272237
-4.047807034
-3.791865034
-3.416014949
-4.109785341
-4.863775469
-5.148114833
-4.18040846
)


101
(
0
-0.001950889321
-0.004604290557
-0.006748927447
-0.009255285063
-0.0132610061
-0.02312251914
-0.04163304275
-0.06735947964
-0.09764286937
-0.1301653318
-0.165229836
-0.2044052142
-0.2463650957
-0.287817058
-0.3267756592
-0.369161685
-0.4204437908
-0.4886937891
-0.5842142989
-0.7151293187
-0.8925932219
-1.129265116
-1.428638371
-1.793112886
-2.221341425
-2.712751605
-3.26522446
-3.871653496
-4.517286488
-5.183719591
-5.855995626
-6.525060797
-7.18645535
-7.828061366
-8.433617118
-8.977444224
-9.444447178
-9.855356112
-10.26284554
-10.71477458
-11.2071384
-11.67807532
-12.02822308
-12.20470435
-12.25087088
-12.28112328
-12.40311638
-12.63496999
-12.89928944
-13.10213719
-13.20506012
-13.23631707
-13.24371677
-13.25466762
-13.27176176
-13.28693473
-13.28614593
-13.26578635
-13.22944532
-13.18082841
-13.1196401
-13.04267575
-12.95362008
-12.85279617
-12.74046094
-12.6236162
-12.50078891
-12.36927292
-12.22061719
-12.0554409
-11.87913026
-11.6846762
-11.47810781
-11.27158501
-11.06002772
-10.82638403
-10.57110192
-10.29964637
-10.02412816
-9.744922078
-9.444328776
-9.15534118
-8.849171326
-8.461332952
-8.089243436
-7.805988961
-7.463376962
-7.09214499
-6.722728398
-6.386760261
-5.999207414
-5.700153038
-5.353752925
-5.068520923
-4.767033159
-4.357062368
-4.885693914
-5.36434377
-5.026132609
-5.17698831
)


101
(
0
-0.002078064216
-0.004886056555
-0.007127170518
-0.009648728033
-0.01345954153
-0.02296354234
-0.04120169324
-0.06673335652
-0.09685492866
-0.1290310936
-0.1633085168
-0.2013348857
-0.2424425085
-0.2832444926
-0.3221379024
-0.3616544621
-0.410049663
-0.4741317483
-0.5627127846
-0.685775503
-0.8550595563
-1.078803137
-1.366961894
-1.720335251
-2.139636877
-2.624188397
-3.173618904
-3.784349831
-4.446239482
-5.141887135
-5.852516911
-6.566314714
-7.280263387
-7.988956586
-8.677321518
-9.322116901
-9.907384329
-10.42415314
-10.89309639
-11.38090675
-11.90916371
-12.46438206
-12.96723358
-13.32931343
-13.52789278
-13.63604375
-13.77036805
-14.00217597
-14.31561151
-14.62190578
-14.84572668
-14.97997622
-15.06057273
-15.12695704
-15.19427599
-15.26288767
-15.3203879
-15.35816114
-15.37656708
-15.37870598
-15.36453058
-15.3297639
-15.27896431
-15.20950939
-15.12692519
-15.03187705
-14.92695678
-14.81094631
-14.6726356
-14.51248718
-14.33337738
-14.12876887
-13.90074672
-13.66640314
-13.43043728
-13.16502638
-12.86786044
-12.53545017
-12.18738163
-11.84082114
-11.46923198
-11.08692239
-10.70026229
-10.25563147
-9.766276108
-9.353778321
-8.937553736
-8.475797475
-8.001394369
-7.58007064
-7.088314719
-6.708070764
-6.315245592
-5.962783721
-5.60572966
-5.092845416
-5.177750675
-4.948094186
-3.626086574
-1.143901771
)


101
(
0
-0.002202126279
-0.005165181102
-0.007500764397
-0.01004183335
-0.01365599064
-0.02276560219
-0.04067452827
-0.06593973678
-0.09586063869
-0.1277158342
-0.1612432341
-0.1983030147
-0.238637019
-0.2789669341
-0.3176635217
-0.35634569
-0.4019995921
-0.4623305869
-0.5466930559
-0.6630027575
-0.8232325177
-1.038271414
-1.315262563
-1.658365165
-2.069077323
-2.5476506
-3.093685754
-3.706628049
-4.381512721
-5.104317042
-5.853282778
-6.614086305
-7.382275432
-8.154776159
-8.926479788
-9.678284198
-10.38011081
-11.01499232
-11.59213935
-12.14833821
-12.72690295
-13.34854088
-13.97196695
-14.51265217
-14.90556815
-15.15561567
-15.35658659
-15.60971528
-15.95643345
-16.34978642
-16.70324606
-16.9665263
-17.15242122
-17.29784008
-17.43086236
-17.56512218
-17.68896735
-17.79357771
-17.87721495
-17.94220052
-17.98476486
-18.00232504
-17.995639
-17.96185099
-17.90943781
-17.83481552
-17.74253529
-17.63283101
-17.49511881
-17.32478517
-17.12332323
-16.88764465
-16.61149249
-16.31129001
-16.00727446
-15.6756916
-15.29815456
-14.86501863
-14.39025299
-13.91065896
-13.40900227
-12.88609097
-12.34474069
-11.777051
-11.1456202
-10.54014515
-9.981679323
-9.397337564
-8.783982431
-8.233320827
-7.642666068
-7.147961132
-6.701968906
-6.292703129
-5.876473241
-5.285755556
-4.526863648
-3.093244419
-0.5936497092
2.561129036
)


101
(
0
-0.002322911643
-0.005439590254
-0.00786769953
-0.01043109323
-0.01384847235
-0.0225970255
-0.04005749767
-0.06498681064
-0.09463822114
-0.1261694462
-0.1590566807
-0.1950955422
-0.2345611518
-0.2748068909
-0.3134735962
-0.3520198068
-0.3961052323
-0.4530889026
-0.5334705541
-0.6447352813
-0.7979146576
-1.005377003
-1.272071761
-1.605712466
-2.007865599
-2.480073928
-3.022682846
-3.636496262
-4.320328886
-5.065245612
-5.851255417
-6.658598875
-7.485521035
-8.322235576
-9.172962098
-10.02041204
-10.84074487
-11.61375161
-12.31806502
-12.97491688
-13.63114389
-14.3163596
-15.03885728
-15.74116768
-16.33231014
-16.77383531
-17.10517275
-17.42107546
-17.80940913
-18.27364384
-18.74665788
-19.15542014
-19.47462295
-19.72844721
-19.94885247
-20.16033766
-20.35801534
-20.53788476
-20.69545153
-20.82460667
-20.93092591
-21.00452138
-21.04142935
-21.03895102
-21.0063553
-20.94052521
-20.84462556
-20.71802846
-20.55265698
-20.33537598
-20.07281974
-19.76236393
-19.38943115
-18.96532548
-18.52009241
-18.04278802
-17.50952815
-16.90649103
-16.22915217
-15.51781267
-14.78702509
-14.03970876
-13.25310243
-12.4545251
-11.619399
-10.76455399
-9.975670647
-9.212904711
-8.424948798
-7.70888621
-7.020118604
-6.409883535
-5.900912108
-5.464167543
-5.014597378
-4.355169772
-2.486909633
0.4217339294
3.935642068
8.717603696
)


101
(
0
-0.00244051831
-0.005711141007
-0.008225728213
-0.01081326349
-0.0140370253
-0.02236019983
-0.03936411173
-0.06388707143
-0.09321167985
-0.1244089646
-0.156656683
-0.1917737804
-0.2304832877
-0.2704156959
-0.3094630866
-0.3483753134
-0.3918356613
-0.4478755047
-0.5232466779
-0.6296197067
-0.7789226806
-0.978925258
-1.23699557
-1.560268735
-1.953488352
-2.418971838
-2.957548771
-3.571044229
-4.260330136
-5.021958213
-5.839198831
-6.694362812
-7.574634131
-8.476342731
-9.400399201
-10.34653155
-11.27906128
-12.17899599
-13.02451692
-13.81581003
-14.57581401
-15.34810939
-16.1622548
-16.99239815
-17.77631255
-18.42862611
-18.94323167
-19.38059878
-19.83630498
-20.36567646
-20.94642332
-21.5007258
-21.97235975
-22.35764047
-22.68763115
-22.99227001
-23.27141592
-23.52748087
-23.75418631
-23.94934435
-24.11393553
-24.23543742
-24.3050346
-24.31825339
-24.27988065
-24.19132062
-24.05408528
-23.86552662
-23.61630637
-23.29147045
-22.89744724
-22.43010229
-21.87566378
-21.23675306
-20.54386064
-19.79998138
-18.98880465
-18.09377254
-17.10217275
-16.03990129
-14.94704397
-13.85218626
-12.70752127
-11.55952695
-10.42149286
-9.259287068
-8.172389734
-7.169638099
-6.185470554
-5.308538125
-4.527890842
-3.85080032
-3.322996873
-2.920359403
-2.515251363
-1.851517028
1.155404018
5.313200555
9.148304361
13.45817307
)


101
(
0
-0.002566302276
-0.005967285167
-0.008576685096
-0.01119172215
-0.01422416312
-0.02210426383
-0.03858552311
-0.06262128523
-0.09153649878
-0.1223431486
-0.1540096816
-0.1881651872
-0.2260755713
-0.2658470635
-0.3052103754
-0.3445449056
-0.3884245077
-0.4427767946
-0.5169437246
-0.6200956781
-0.7629431653
-0.9559993386
-1.206737503
-1.521071956
-1.904952009
-2.36275334
-2.896248134
-3.507799699
-4.199768888
-4.97149582
-5.815850919
-6.710560652
-7.642730873
-8.609978273
-9.604974485
-10.63518154
-11.67371547
-12.70200102
-13.69392871
-14.62897747
-15.51950534
-16.40428236
-17.31269372
-18.25968733
-19.20561236
-20.07292843
-20.80452666
-21.41175718
-21.97915255
-22.58500835
-23.25911699
-23.94782534
-24.57684083
-25.11276903
-25.56711642
-25.97372709
-26.33850033
-26.66696162
-26.95517502
-27.19744343
-27.39848295
-27.54287323
-27.61600883
-27.61161616
-27.51987044
-27.35041472
-27.10387321
-26.7742549
-26.35493437
-25.82561298
-25.18630072
-24.43842124
-23.57207603
-22.58238379
-21.49448149
-20.32346724
-19.06324519
-17.70378248
-16.24086585
-14.69101149
-13.09147255
-11.50722092
-9.888836504
-8.285295356
-6.756175399
-5.247950167
-3.84663573
-2.591113766
-1.435105116
-0.4777047449
0.3246762822
0.953278768
1.370228723
1.603874302
1.813996598
2.292407568
6.079530773
10.58217129
13.60792828
15.66307023
)


101
(
0
-0.00265623201
-0.006224767511
-0.008916608919
-0.01155978634
-0.0144032062
-0.02181984937
-0.0377437104
-0.0612225259
-0.08964691102
-0.1200259152
-0.1510854427
-0.1843553851
-0.2213644697
-0.2608778963
-0.3006178937
-0.340826931
-0.38512241
-0.4392289465
-0.5112666169
-0.6113645893
-0.7497056256
-0.937090845
-1.180545666
-1.486171913
-1.860957656
-2.309730819
-2.836719485
-3.444706964
-4.136793458
-4.914584233
-5.774677843
-6.704718619
-7.686182712
-8.707738889
-9.772753126
-10.87982048
-12.02309671
-13.16134578
-14.28615653
-15.372067
-16.41752941
-17.43671385
-18.45803706
-19.51682427
-20.60156303
-21.66195364
-22.61162989
-23.43416164
-24.15635721
-24.86663264
-25.62705338
-26.43330133
-27.20858032
-27.89607098
-28.4854718
-28.99600814
-29.44283662
-29.82932976
-30.15467635
-30.41524962
-30.60934798
-30.72708154
-30.74568673
-30.65853155
-30.44063618
-30.0985037
-29.63482692
-29.04577923
-28.32315104
-27.44357998
-26.40220869
-25.2035545
-23.84575312
-22.32241266
-20.65228074
-18.85627851
-16.9470548
-14.92975113
-12.81460977
-10.63190782
-8.405288452
-6.22296203
-4.056959064
-1.957845452
-0.0287623915
1.784325657
3.417805656
4.817314956
6.011045059
6.860408552
7.497810695
7.852344835
7.933481947
7.764681906
7.543954489
7.517586276
11.24447831
14.66797305
15.78250136
14.9821169
)


101
(
0
-0.002770904394
-0.006474407309
-0.009246759424
-0.01192018118
-0.01458027502
-0.02152072628
-0.03683278707
-0.05968117941
-0.08752545291
-0.117402397
-0.1478568236
-0.1802389938
-0.2163721732
-0.2554770398
-0.2955559124
-0.3368637843
-0.3815267204
-0.4363366473
-0.5067639128
-0.6038533393
-0.7384832729
-0.9207286388
-1.157916213
-1.455537828
-1.820592085
-2.259698595
-2.778203749
-3.380174511
-4.06940024
-4.848772198
-5.719729764
-6.672369413
-7.693298624
-8.767394641
-9.895411691
-11.07438958
-12.30031165
-13.54748597
-14.79764524
-16.02809
-17.22525394
-18.39100416
-19.55044772
-20.72488945
-21.93662152
-23.15387865
-24.31964323
-25.35821384
-26.27548659
-27.12356001
-27.97717106
-28.87753429
-29.77359325
-30.59982734
-31.31343595
-31.92040521
-32.42969677
-32.84996021
-33.17534146
-33.39779993
-33.51867816
-33.53146397
-33.40501508
-33.12656333
-32.66934216
-32.02401795
-31.19368405
-30.1779638
-28.97012556