/*--------------------------------*- C++ -*----------------------------------*\
| =========                 |                                                 |
| \\      /  F ield         | OpenFOAM: The Open Source CFD Toolbox           |
|  \\    /   O peration     | Version:  2.3.1                                 |
|   \\  /    A nd           | Web:      www.OpenFOAM.org                      |
|    \\/     M anipulation  |                                                 |
\*---------------------------------------------------------------------------*/
FoamFile
{
    version     2.0;
    format      ascii;
    class       dictionary;
    location    "constant";
    object      la_i1;
}
// * * * * * * * * * * * * * * * * * * * * * * * * * * * * * * * * * * * * * //

la_i1_table
101
(

101
(
0
0
0
0
0
0
0
0
0
0
0
0
0
0
0
0
0
0
0
0
0
0
0
0
0
0
0
0
0
0
0
0
0
0
0
0
0
0
0
0
0
0
0
0
0
0
0
0
0
0
0
0
0
0
0
0
0
0
0
0
0
0
0
0
0
0
0
0
0
0
0
0
0
0
0
0
0
0
0
0
0
0
0
0
0
0
0
0
0
0
0
0
0
0
0
0
0
0
0
0
1.491881788e-12
)


101
(
0
-39447.3575
-13174.11636
-61070.06927
-76850.74924
57412.5951
-36998.11504
113689.3984
146929.0258
211833.7875
216401.836
284169.3829
203175.5172
222733.9144
198659.3864
173858.1978
180063.8692
32715.84864
189303.393
41431.34918
-6988.876689
113857.5254
70899.08119
32395.53866
21731.23324
13620.86346
1965.305535
9562.642815
3616.662512
5050.918592
29.78355443
-35304.95825
55892.28988
13756.33981
5690.750977
-9375.551179
-15713.34615
8533.886984
20193.38885
28419.51031
5850.680279
11992.39184
7279.65607
-1454.166233
-110.1113187
-2761.092722
-1742.827343
-2870.092616
-1790.880656
-3507.824189
-4388.65576
-5726.487224
-6716.538581
-7045.327736
-7258.732559
-9588.448168
-8649.223098
-10289.83188
-10357.66818
-11383.16842
-11876.32456
-12299.72644
-12884.73053
-13234.57773
-13859.87905
-14108.60211
-14296.47739
-14950.84919
-14994.26766
-15300.33142
-14978.87428
-14048.87137
-13103.34941
-14620.63894
-12232.92565
-9984.721941
-9214.205858
-8232.760129
-7778.62322
-7343.92954
-7020.172711
-6304.670739
-6503.694167
-5486.17324
-3896.487131
-3152.686163
-2920.601087
-2438.184145
-2228.89537
-2080.134012
-1182.021148
-969.7178916
-865.2898656
-481.03859
-1604.06394
-5337.420473
210.8028438
338.9783122
393.3203722
476.3558503
575.4872113
)


101
(
0
-29410.97275
11749.04689
-44155.77237
-78639.1067
33344.85261
-59173.38758
49165.7435
60625.29471
87926.51321
64050.75399
87603.7111
2399.049539
-10376.11491
-44903.57968
-70140.59333
-54465.03782
-171224.2146
-37276.15007
-110113.974
-155684.3654
-38143.79841
-20826.81858
-41628.47083
-46286.44716
-44167.8402
-46890.05201
-35280.74119
-32634.68433
-28429.02081
-27946.72317
-57273.01963
18027.70489
18421.90834
-2954.46514
-22336.00729
-35077.24918
-25489.20724
-8747.870009
12907.98277
4466.738411
728.6715818
-3000.067083
-15253.04599
-17648.83896
-19766.15797
-18794.81221
-18294.81297
-16456.65754
-16187.82114
-16986.9288
-18451.8145
-20208.93078
-21389.91422
-21834.90035
-22467.24804
-22816.88545
-23277.84365
-23763.23707
-24226.82429
-24725.50804
-25239.48379
-25704.40569
-26105.20183
-26459.42547
-26622.56501
-26612.96923
-26674.6028
-26752.06722
-26796.57855
-26344.81419
-24821.19566
-22752.3579
-22884.77569
-23277.16771
-21875.3854
-19896.3332
-17169.65808
-15590.56992
-14912.60172
-13930.73352
-12445.6434
-11468.61638
-11319.4746
-10189.71742
-7368.298631
-6307.587009
-5884.369978
-4816.994783
-4074.538033
-3853.617581
-2265.965376
-2167.488427
-1813.165422
-6461.483507
-18202.45629
1277.46282
2216.076838
2479.996542
2695.092941
3058.572732
)


101
(
0
-10026.18116
39890.3418
-24981.97382
-76956.16303
11661.20369
-79467.05615
-7725.694602
-16481.59151
-21216.85226
-70277.45525
-83617.39464
-176235.271
-213589.3328
-258170.7398
-286355.8008
-267029.0062
-353038.8107
-242902.7482
-258164.346
-287364.9876
-182875.3409
-119876.46
-112151.5885
-108940.9826
-99244.48255
-93490.80472
-78121.50668
-67544.89378
-59520.30236
-54920.97086
-72709.1762
-26984.56294
9522.048393
-1997.579141
-28595.27102
-48855.12102
-47468.67139
-36950.14438
-13440.6182
-2391.309078
-6207.003267
-11030.74783
-23140.60197
-30449.47929
-33128.52647
-32796.56526
-31410.27396
-29344.34767
-27403.21392
-26815.60832
-27245.2069
-28342.90584
-29291.46315
-29518.81513
-29256.111
-29136.45275
-29124.7567
-29164.9268
-29263.98855
-29399.6086
-29626.4028
-29868.05616
-30060.49076
-30194.33586
-30245.06337
-30187.00998
-30092.18768
-30050.03403
-30087.10115
-29953.00133
-29074.54762
-27526.36219
-27083.37332
-27224.4079
-26356.1068
-25265.18983
-22855.661
-20315.86402
-19083.65254
-18098.3705
-16848.36858
-15218.97778
-14182.45801
-13897.76113
-12284.67485
-8926.23041
-8369.751969
-7632.453489
-6471.673154
-5861.135972
-4880.980905
-3567.572933
-3207.804151
-15401.9898
-40977.90545
4735.485259
7375.077698
7307.218947
7672.92083
7890.338931
)


101
(
0
19392.46718
71474.12584
-3959.561024
-73918.67384
-7883.736988
-98008.79211
-57882.68465
-85303.73863
-117559.7409
-188959.4324
-232877.5545
-335244.5177
-392540.4781
-446926.7727
-479900.524
-460358.4267
-520070.1144
-430040.647
-403090.9621
-411497.8337
-320496.0533
-225437.1298
-186963.5703
-170970.9391
-154716.2565
-141244.8401
-122282.5251
-104863.2072
-91928.19019
-83246.26393
-90626.40247
-69209.32025
-20473.1489
-12607.88142
-35853.12745
-59876.77405
-65892.17766
-60760.89196
-44960.61477
-24780.95468
-20193.01397
-23843.9044
-34743.83269
-44944.30735
-48885.44857
-49243.21493
-47510.5826
-45344.4743
-42892.7453
-41245.60944
-40345.53032
-39934.18655
-39378.11494
-38308.0609
-36769.05339
-35534.07701
-34685.39904
-33950.09365
-33362.56971
-32870.61019
-32484.84916
-32100.4384
-31677.26565
-31217.64566
-30759.72244
-30314.95395
-29875.21143
-29445.18578
-29126.06711
-29083.23641
-29260.53717
-29589.59423
-30161.6451
-29263.85693
-26576.59064
-25789.92442
-25639.40694
-23707.63171
-21165.82116
-19647.80454
-19804.88049
-18321.0666
-16628.33641
-15453.93203
-15001.38262
-12663.85334
-10105.64171
-10094.53518
-8636.895573
-7438.093915
-6800.926578
-5173.205475
-5170.680213
-31056.14285
-76376.41146
9733.018624
13722.40369
12590.68442
17780.68839
24746.285
)


101
(
0
58303.19533
107343.9255
18990.22358
-69504.11521
-25408.20173
-114911.1837
-102068.7968
-146649.4426
-202722.6225
-293988.1679
-364304.3478
-477261.405
-551479.3874
-614955.3076
-654175.6083
-638586.1115
-675438.8687
-603218.5495
-547458.7709
-532441.0585
-450780.0729
-340531.7682
-272803.3913
-238639.3617
-213772.3537
-192739.8457
-169806.1351
-146569.9757
-128184.8568
-114906.3661
-113658.4926
-105257.2765
-63068.79849
-39294.82184
-47281.21319
-71940.38745
-84672.48217
-83499.68865
-75679.25233
-59223.73455
-48872.11938
-47726.72929
-56241.21034
-67031.97509
-71714.09115
-72500.39769
-70615.98051
-68505.80517
-66107.6352
-64331.49449
-62910.56355
-61431.70192
-59251.50073
-56192.3413
-52825.1626
-49755.06899
-47632.64034
-45788.94765
-44160.56785
-42713.77666
-41393.25333
-39949.11423
-38429.74399
-36885.90788
-35233.97593
-33530.65353
-31886.5735
-30355.95231
-29104.94417
-28604.3048
-29770.27408
-32704.88042
-35209.58731
-32919.93083
-26570.78847
-24504.06158
-26661.76534
-26861.99281
-22714.21816
-19114.99146
-21624.58739
-20978.27848
-19175.54162
-17031.67337
-16310.91623
-14765.74873
-12589.45368
-12029.70405
-11162.65022
-9947.699942
-8454.876761
-7037.352208
-7734.015701
-54752.93014
-124614.9245
16233.8137
34478.65506
43316.19138
40161.62828
33683.10323
)


101
(
0
108100.1784
146804.743
43948.93259
-63685.49576
-41026.95891
-130245.7774
-141007.3206
-201246.2929
-277973.4548
-386916.2587
-480050.4556
-603997.1886
-693354.8029
-765875.9299
-812031.3049
-803153.2055
-822308.6826
-763752.4981
-689603.4098
-653366.8405
-575637.2517
-458865.0651
-367041.2755
-313028.1372
-277723.3307
-249602.1289
-222347.7136
-193801.8646
-169769.8842
-150982.841
-142691.3968
-138552.3422
-109481.84
-81793.19595
-75029.56595
-91599.37161
-106940.6659
-108851.8104
-105986.2974
-97775.10634
-89314.90755
-85993.3077
-91469.4804
-101578.8035
-106334.976
-107385.7206
-105653.4122
-104006.3488
-102323.3989
-101155.7791
-100280.5581
-99269.0571
-96813.52827
-92686.58799
-87905.15257
-83349.7325
-79962.18722
-77111.59135
-74393.66075
-71894.55735
-69487.76522
-66584.72586
-63455.4828
-60318.29684
-56872.4366
-52816.80793
-48493.72431
-44321.9123
-40879.76589
-39110.55932
-40826.13519
-46444.54747
-50676.70491
-45251.0954
-32574.75262
-27599.90961
-31200.75914
-33678.42616
-27777.91498
-19539.737
-24218.03792
-24662.45171
-23113.90265
-20188.93954
-19455.73998
-16488.14006
-15170.77519
-12713.81036
-14200.2823
-11927.87802
-10430.18465
-8806.785327
-10256.38911
-89547.51722
-188179.5556
22709.03753
41139.44716
46224.79599
39871.13831
33896.49475
)


101
(
0
165938.1304
190333.4899
71017.55255
-56422.1717
-54843.62253
-144212.114
-175400.7453
-249788.3391
-344434.9553
-469227.7047
-582096.4949
-717241.411
-820665.1903
-902392.4944
-956132.749
-955738.9455
-962733.8908
-914731.2602
-829656.9749
-775839.1772
-697564.4581
-579989.8596
-472402.5767
-398954.1211
-350504.4048
-313835.3277
-281437.9498
-247983.8927
-218513.8014
-193736.0787
-178521.0615
-173698.5183
-154638.549
-133789.3499
-118920.1287
-123519.586
-136683.4437
-139986.2664
-139462.538
-138887.2341
-137931.6343
-137591.5259
-142904.495
-152774.759
-157788.808
-159230.9077
-158300.7879
-158496.1725
-159797.5729
-161114.9642
-161882.1121
-162519.1423
-162041.3218
-158984.5414
-154518.5501
-150474.9432
-147237.6351
-144538.0466
-141361.793
-138023.2816
-134550.8707
-129818.1168
-124407.6966
-118934.8087
-113168.5328
-105901.8215
-97194.80896
-87907.6215
-79850.94959
-75196.18325
-76587.80699
-84575.96071
-89526.99837
-77854.91638
-54310.88131
-43781.17939
-47710.24909
-51088.15218
-42098.98704
-27338.39997
-33552.42604
-33229.39618
-30300.10422
-25552.77164
-23769.51944
-20206.3972
-18782.88288
-15051.33496
-16249.92453
-15147.09655
-11953.59749
-11462.20122
-11918.43712
-138962.1089
-271915.3907
46567.30033
61548.70015
38483.89746
-45935.11566
-171524.9155
)


101
(
0
233802.4387
238485.1778
100264.02
-47695.32346
-66931.11471
-156881.2037
-205785.2333
-292863.633
-403107.1354
-542135.7499
-672479.4093
-818506.4703
-935321.5778
-1026272.234
-1088244.333
-1097776.057
-1097537.645
-1058232.684
-968724.1858
-900548.0936
-819599.9872
-702773.4329
-586426.2831
-495869.4181
-433176.5933
-387084.5477
-348756.4583
-310310.3633
-275633.8272
-244749.9683
-222057.3297
-213137.4312
-198864.7858
-187714.4014
-174460.0299
-170804.4153
-177934.3958
-180987.4143
-180921.1468
-184865.6266
-193466.9964
-201547.8267
-211602.6095
-224207.9456
-231572.489
-235008.0664
-236232.0943
-239669.0812
-245824.2177
-253525.2273
-260120.1768
-263911.2846
-266123.1099
-266580.467
-264201.1632
-262873.9326
-262119.9177
-261797.423
-259977.0504
-256869.3342
-252565.1833
-245647.0352
-236865.3749
-227833.7439
-219223.6705
-208712.4065
-194802.0576
-177978.8291
-161723.0481
-151257.5806
-151258.4684
-161856.23
-166990.0105
-145949.4037
-105968.055
-85648.0244
-88952.82678
-92742.48835
-76805.84625
-50369.02377
-57627.2861
-55393.02295
-48129.56134
-39276.00032
-34647.16541
-32461.32495
-25310.70053
-23777.01993
-19227.54818
-22151.76483
-16011.92436
-14587.92099
-15001.42909
-208031.1972
-384087.636
52301.30366
10168.35606
-104969.8672
-380787.8033
-798784.2481
)


101
(
0
313482.5646
290635.1567
131772.9977
-37436.81624
-77345.06346
-168333.7769
-232566.4264
-331010.4029
-454870.09
-606628.6968
-752376.2961
-909044.2553
-1038705.319
-1139350.179
-1209988.226
-1230258.625
-1227570.866
-1196001.318
-1106053.217
-1027986.592
-942867.3109
-827587.8074
-707522.1933
-604581.4135
-528172.4618
-463912.6422
-425840.0596
-381773.6882
-341843.9868
-305037.185
-275313.3153
-260377.6712
-245249.7204
-240438.7237
-235012.2126
-231099.2181
-233929.7972
-235089.9528
-234961.1994
-241932.5302
-258109.7874
-278107.6686
-298747.5843
-318531.8918
-331341.8082
-338921.046
-344789.3249
-354177.3607
-367062.3997
-383206.8501
-399075.1117
-412119.0043
-418998.346
-422257.2668
-423955.2156
-425416.0815
-428199.0263
-432087.3037
-434442.463
-433137.3859
-429225.7462
-420975.8056
-408196.7499
-393527.9198
-380442.5923
-367771.1541
-350513.0001
-327558.1485
-302278.8545
-283462.262
-280734.7867
-294858.488
-302006.1812
-270900.9349
-209944.9366
-174899.3773
-175153.4161
-180345.3724
-158227.9078
-113542.0667
-116863.0462
-110738.7366
-98362.39952
-82043.01588
-68604.94237
-67406.12215
-50900.67761
-46793.76519
-36526.76858
-44693.08983
-31353.45683
-26357.21323
-26853.34958
-312533.8863
-555292.1637
-24026.88984
-261105.1227
-604716.6736
-1231592.563
-1776791.415
)


101
(
0
399783.6595
347405.5624
165616.958
-25648.33556
-86137.38431
-178610.3647
-256074.4949
-364717.8851
-500547.7732
-663662.987
-823266.7722
-989773.9027
-1132020.263
-1242767.703
-1322413.7
-1354090.957
-1353306.05
-1328435.046
-1242431.586
-1158394.91
-1069449.022
-955311.6761
-835054.3831
-724789.3702
-636389.5728
-568636.4476
-514506.5419
-463819.9737
-418384.3002
-376120.9569
-339356.0829
-318994.4637
-298811.8872
-295411.9066
-297684.9128
-299998.9005
-303519.2108
-304936.4746
-305598.4486
-313935.5448
-335305.2682
-368452.6642
-402800.8936
-435851.9371
-460095.9179
-475239.6901
-484983.9604
-501807.6263
-522950.5997
-549526.0048
-576292.9573
-599409.7727
-616045.7543
-623614.4467
-628628.0754
-632068.3343
-638767.2352
-648268.8065
-656486.9612
-660639.7415
-659946.2324
-653646.6064
-638965.9876
-619034.5789
-600398.6904
-586198.4128
-570868.163
-548534.9722
-519380.5154
-494029.9264
-489203.9816
-510118.6833
-524334.7037
-486231.3813
-403954.305
-353772.3456
-349784.5177
-352797.7696
-326069.1544
-265068.5341
-258858.2238
-244616.8788
-229211.267
-208430.5357
-172376.1413
-166069.2226
-144250.0859
-123886.3328
-109272.2748
-103872.7714
-89807.42156
-77336.25067
-76858.49396
-495269.7621
-849453.4343
-287065.8347
-937008.3409
-1724669.989
-2983860.876
-4736881.629
)


101
(
0
496220.2096
408836.5968
201851.0279
-12262.05163
-93327.20458
-187770.401
-276638.1965
-394409.57
-540759.9907
-713991.9208
-885935.7343
-1061840.541
-1216180.273
-1337513.714
-1426743.683
-1470401.27
-1474527.403
-1458087.586
-1377893.213
-1291699.358
-1201030.214
-1087233.42
-968288.3848
-854746.2919
-757611.1588
-679375.034
-616053.6611
-557802.7484
-506292.7236
-459258.7333
-416527.9526
-389016.8777
-363938.9249
-356866.458
-362527.0686
-373188.7432
-385215.017
-391519.7075
-393744.026
-405429.7251
-432005.9565
-474305.4195
-524397.8631
-572969.2524
-610257.3387
-637251.5893
-656950.7405
-675704.0834
-703970.5423
-739672.332
-778477.5001
-814291.6646
-840690.0563
-858077.2287
-868067.1713
-874332.4735
-884297.2216
-900545.4965
-918420.8627
-932693.8874
-941471.5523
-943041.846
-934683.8635
-915982.6209
-893673.7775
-878107.8012
-869531.3404
-858402.0653
-838292.184
-817329.7703
-816431.675
-849152.2502
-878877.4589
-842319.5464
-744419.3624
-685350.6503
-684941.2805
-686533.8284
-651405.8826
-580858.472
-568179.1271
-537733.3354
-516719.376
-503958.5315
-442323.7791
-413898.6168
-389475.2057
-357600.5967
-316119.4181
-303277.0321
-275966.0945
-249254.1611
-240358.365
-849087.2283
-1387453.102
-964583.2905
-2418661.839
-3964441.641
-5860573.272
-7525660.06
)


101
(
0
604382.2707
474839.0324
240544.8526
2755.545871
-98929.47616
-195841.8299
-294507.8461
-420503.0363
-576116.9949
-758247.2979
-941290.9819
-1126170.916
-1292066.574
-1424316.529
-1523964.169
-1579915.95
-1592107.015
-1584283.044
-1513469.556
-1428509.243
-1336451.513
-1223929.052
-1107213.05
-993243.1329
-890550.6944
-803811.5363
-731824.1422
-665565.4471
-607098.0742
-554516.4587
-507850.6131
-477232.2077
-445398.7001
-431770.2016
-435420.1863
-451677.642
-473076.5544
-489131.3226
-500495.8197
-517288.4852
-546136.1975
-593228.7585
-656705.6939
-721461.9766
-777053.625
-816632.4944
-843137.8437
-870752.8613
-904005.908
-944414.1683
-990808.9626
-1038833.643
-1080659.264
-1109794.116
-1130610.708
-1146645.274
-1161455.623
-1186821.781
-1220374.201
-1252457.794
-1278996.542
-1299213.291
-1309709.084
-1305083.599
-1290091.244
-1276636.985
-1277218.468
-1286236.454
-1291960.496
-1294933.844
-1313355.19
-1367503.445
-1423551.045
-1402372.306
-1301483.815
-1245231.696
-1265591.663
-1280202.351
-1237342.714
-1164720.163
-1167049.891
-1118732.836
-1081730.366
-1078882.641
-1018154.912
-951144.8711
-912024.4433
-891761.1979
-801109.66
-762426.6355
-734178.2783
-687143.9707
-668230.348
-1532010.455
-2357038.428
-2370039.656
-4829303.072
-7177045.347
-9552002.994
-12177492.52
)


101
(
0
718678.2467
545552.5427
281733.5181
19441.80374
-102954.1726
-202859.2528
-309922.6188
-443365.5132
-607156.1171
-796989.1541
-990175.0476
-1183352.437
-1360353.582
-1504025.622
-1614681.53
-1683487.053
-1706450.289
-1708462.618
-1648794.651
-1568533.885
-1478130.269
-1366976.265
-1252720.247
-1140426.52
-1035620.817
-943112.1586
-863187.1953
-788677.9665
-722780.1092
-665030.4791
-614236.727
-578444.9242
-544787.9132
-525283.5679
-521771.753
-536226.8667
-564127.7666
-597806.0088
-621140.5142
-645846.5494
-680043.5084
-728568.6965
-798608.7689
-875713.0348
-943712.8956
-999554.2245
-1041568.754
-1070834.406
-1109544.963
-1158175.585
-1212311.82
-1268863.883
-1323745.367
-1371772.091
-1410996.93
-1444952.451
-1476704.868
-1516873.06
-1570358.439
-1629676.966
-1685973.643
-1735796.495
-1780448.352
-1812423.007
-1822175.133
-1824617.464
-1838162.457
-1872310.408
-1918715.695
-1968258.882
-2030632.394
-2124281.797
-2218877.761
-2226261.406
-2140111.755
-2109324.295
-2172213.861
-2221925.422
-2185173.047
-2117922.425
-2168642.431
-2125327.091
-2065790.211
-2061472.841
-2038763.811
-1944140.505
-1881249.153
-1868866.194
-1753410.109
-1689144.591
-1658251.464
-1580573.558
-1551401.903
-2745794.456
-3937030.18
-4609666.514
-8020449.936
-10909517.73
-13148419.47
-15722380.51
)


101
(
0
842670.0249
621017.5894
325459.118
37845.55932
-105391.0886
-208870.7971
-323105.9175
-463278.8466
-634304.4503
-830807.9148
-1033081.285
-1234320.444
-1421859.38
-1577331.635
-1699478.292
-1782048.409
-1817328.593
-1831496.067
-1784163.542
-1711640.649
-1624676.923
-1516548.772
-1405603.263
-1296979.028
-1192848.896
-1097155.665
-1011080.153
-928965.912
-855003.7772
-790933.7546
-738154.2434
-701500.7359
-663624.0995
-640000.7214
-627440.5217
-635285.3108
-663073.6742
-707726.8985
-748723.8436
-790537.3087
-827398.1858
-877496.7041
-943544.986
-1027035.416
-1111263.005
-1180079.041
-1232210.625
-1279769.049
-1322603.234
-1372540.843
-1442501.674
-1510944.73
-1578711.838
-1650174.256
-1713219.276
-1772397.163
-1833107.51
-1899387.337
-1982493.823
-2078265.823
-2176676.016
-2269005.596
-2361086.349
-2449021.489
-2514448.097
-2554571.37
-2595055.23
-2659592.26
-2753921.057
-2869787.492
-3004626.311
-3167331.877
-3320961.599
-3366185.36
-3305084.04
-3321652.254
-3457806.298
-3572804.969
-3558896.502
-3498849.566
-3621249.145
-3631549.496
-3564140.975
-3543937.793
-3580085.674
-3499655.44
-3417103.703
-3411670.017
-3308698.674
-3210807.507
-3190095.112
-3080428.716
-3040615.822
-4643291.905
-6237512.645
-7644158.317
-11715620.65
-14514901.67
-15492376.64
-11859129.44
)


101
(
0
976985.8539
701399.3844
371735.2196
57991.44007
-106237.0859
-213911.9256
-334258.8898
-480501.8682
-657934.5408
-860284.1722
-1070644.228
-1279559.192
-1477327.777
-1644888.25
-1779186.717
-1875813.532
-1925344.699
-1951558.169
-1918981.259
-1857260.52
-1777025.915
-1674506.913
-1567489.433
-1463544.156
-1363232.397
-1267426.157
-1178228.256
-1089890.048
-1007887.378
-936116.479
-878364.8587
-841360.8353
-805160.5228
-778890.3499
-758849.9746
-755483.8082
-778218.9331
-824420.6622
-881959.3556
-937133.1368
-990777.8818
-1042776.688
-1105062.485
-1181917.381
-1267533.937
-1351850.756
-1425880.689
-1483423.472
-1544004.696
-1607343.89
-1681470.729
-1770425.95
-1858586.539
-1950865.292
-2047736.962
-2142754.804
-2236712.825
-2341550.27
-2462850.373
-2606643.144
-2758660.98
-2908631.643
-3060449.405
-3215178.655
-3362044.853
-3474660.188
-3567073.022
-3674393.386
-3818126.556
-4011272.917
-4242092.849
-4507560.052
-4754757.697
-4854961.567
-4812116.63
-4870280.984
-5105103.797
-5322343.729
-5354749.645
-5300484.866
-5480860.04
-5576835.665
-5550389.393
-5506232.737
-5585271.034
-5568254.465
-5478220.929
-5470785.719
-5407192.312
-5257830.97
-5259877.987
-5136057.331
-5082893.42
-7119054.24
-9076385.728
-11120800.38
-14693456.28
-16143239.98
-14780067.12
-13909555.59
)


101
(
0
1118021.702
786455.1924
420583.9969
79881.77193
-105507.5339
-218052.5465
-343546.4401
-495208.6682
-678338.1155
-885898.5445
-1103345.874
-1319656.545
-1527384.608
-1707195.346
-1854737.028
-1965338.533
-2030159.896
-2070508.343
-2052650.391
-2004530.134
-1935984.805
-1840782.812
-1740501.957
-1641771.328
-1546779.426
-1453880.244
-1363956.538
-1272093.133
-1182830.736
-1102008.464
-1038421.389
-1000005.572
-967174.3186
-940801.7304
-917418.4816
-905174.31
-909225.2015
-943329.1949
-1015053.139
-1089034.861
-1165314.538
-1227991.222
-1282278.37
-1344187.78
-1427917.163
-1521575.865
-1611977.257
-1697390.761
-1774211.784
-1853370.715
-1950767.658
-2058805.785
-2172522.136
-2291269.194
-2420755.922
-2566064.603
-2708489.348
-2855997.429
-3021475.047
-3216822.38
-3432709.083
-3655156.309
-3876096.309
-4105844.791
-4342909.119
-4556678.564
-4730976.834
-4897040.502
-5100244.602
-5371131.557
-5707223.738
-6095354.734
-6468822.096
-6658832.183
-6626867.511
-6694479.732
-6999988.884
-7334612.54
-7452203.033
-7409111.379
-7598347.54
-7752300.901
-7806313.635
-7736520.563
-7798855.203
-7859248.239
-7782263.698
-7720552.896
-7679815.677
-7494792.724
-7467564.749
-7369775.233
-7285889.308
-9694538.363
-11819711.84
-13702398.12
-15469762.07
-14384485.1
-10223349
-2878285.264
)


101
(
0
1267681.655
875804.483
471981.2374
103570.9559
-103166.6886
-221290.219
-351150.8959
-507514.7352
-695634.4438
-908034.0718
-1131702.402
-1355245.485
-1572560.097
-1764578.201
-1925608.938
-2051064.291
-2131904.035
-2187287.151
-2186667.273
-2154813.666
-2099593.728
-2016718.18
-1924771.901
-1832955.587
-1744075.611
-1657350.922
-1570924.405
-1479063.412
-1384568.99
-1294179.414
-1222856.667
-1181275.031
-1152565.762
-1131988.811
-1106968.409
-1080559.089
-1070219.282
-1092082.728
-1152719.183
-1242002.585
-1341061.967
-1427104.06
-1490278.764
-1541718.077
-1602667.99
-1695568.558
-1804894.562
-1914905.467
-2026653.261
-2132281.634
-2246077.188
-2380599.517
-2527708.194
-2683205.841
-2855062.421
-3042812.304
-3244033.728
-3452234.809
-3671967.704
-3916189.37
-4197067.034
-4499552.094
-4798202.843
-5102672.873
-5425778.134
-5741881.669
-6024377.331
-6270207.665
-6537052.002
-6875559.46
-7309842.249
-7815826.839
-8318467.163
-8625647.918
-8632466.298
-8661751.805
-8945422.812
-9344203.854
-9553022.207
-9535212.865
-9699268.767
-9813938.307
-9924100.289
-9828622.747
-9777262.837
-9841695.075
-9804388.567
-9599677.87
-9525175.259
-9305986.233
-9167548.755
-9078944.186
-8923577.175
-11559621.46
-13491867.7
-14316305.74
-12866614.07
-8523810.351
-1641215.539
6056960.464
)


101
(
0
1425557.754
969998.1292
525900.2099
129042.6262
-99212.23442
-223448.6819
-357215.3688
-517545.0496
-709969.7502
-927046.2575
-1156225.205
-1386745.418
-1613213.873
-1817281.363
-1991966.249
-2132802.54
-2230728.072
-2302279.544
-2320881.339
-2308055.397
-2269708.526
-2202178.733
-2121463.08
-2039338.064
-1958623.679
-1878899.144
-1798087.943
-1710339.405
-1615315.23
-1517670.268
-1436011.2
-1389062.741
-1358346.329
-1345498.898
-1324862.993
-1297415.73
-1271704.845
-1262681.149
-1307856.755
-1403285.156
-1519720.839
-1644406.703
-1733994.885
-1776875.291
-1821746.567
-1893012.644
-2008416.204
-2152032.605
-2295190.097
-2440104.995
-2589644.545
-2748923.251
-2930021.367
-3123259.15
-3340566.064
-3589990.381
-3857953.888
-4130980.971
-4397290.58
-4703835.405
-5040541.504
-5414671.08
-5799679.011
-6181129.178
-6576206.437
-6976226.234
-7355468.067
-7691422.284
-8012745.669
-8401708.674
-8907381.168
-9494363.454
-10087603.91
-10494417.23
-10558037.05
-10534479.57
-10703622.97
-11022284.46
-11226133.53
-11224873.19
-11365980.05
-11319858.92
-11368195.23
-11244171.32
-11007142.05
-10899904.89
-10881498.49
-10457204.08
-10254376.37
-9979136.126
-9642675.296
-9453441.968
-9179987.72
-11847214.08
-13105252.94
-11697180.16
-6429471.294
947219.687
9968493.358
21182309.01
)


101
(
0
1590752.502
1069167.482
582317.1623
156273.4776
-93636.80697
-224824.6509
-361835.9797
-525455.7207
-721569.3614
-943009.4009
-1177306.963
-1414523.85
-1649814.897
-1865560.919
-2054149.851
-2210880.914
-2326876.089
-2417068.334
-2455553.505
-2463571.222
-2446848.747
-2397274.485
-2332332.791
-2261288.527
-2190356.064
-2119737.84
-2046869.783
-1967160.857
-1876939.917
-1775252.73
-1685362.379
-1624631.578
-1594149.087
-1586330.446
-1578358.808
-1545872.978
-1513473.99
-1490187.855
-1509731.885
-1587686.208
-1718435.769
-1872447.745
-2000822.685
-2076724.252
-2100155.371
-2148088.115
-2249648.004
-2410435.833
-2598527.672
-2794271.604
-2977633.917
-3170786.645
-3381977.549
-3621108.148
-3880969.821
-4179508.953
-4527981.78
-4882287.673
-5232390.917
-5561533.243
-5943392.625
-6367765.838
-6825028.931
-7288440.913
-7741049.191
-8196383.281
-8638245.368
-9032019.139
-9390283.739
-9797194.135
-10314139.93
-10916847.19
-11518189.38
-11944000.4
-12033421.89
-11979826.96
-11979052.9
-12064904.6
-12074202.21
-11976040.12
-12107418.23
-11827177.44
-11637916.01
-11428551.81
-11001545.93
-10537955.02
-10436986.61
-9777290.869
-9327115.15
-8961034.979
-8385720.124
-7997574.066
-7546238.675
-10032781.27
-10128563.29
-5493612.549
3395018.573
12866638.07
23213856.05
36384738.01
)


101
(
0
1763377.956
1171723.653
641103.5951
185279.5062
-86410.99143
-225285.5582
-365140.5731
-531419.2596
-730648.987
-955950.5197
-1195376.907
-1438709.325
-1682402.171
-1909621.698
-2112267.989
-2285258.519
-2420393.224
-2529495.192
-2591538.069
-2623417.034
-2628549.561
-2600444.997
-2555453.9
-2500530.929
-2442170.97
-2382890.419
-2321048.472
-2250913.931
-2169129.24
-2073112.045
-1971979.633
-1901818.957
-1865660.758
-1853144.097
-1859469.465
-1840873.603
-1809597.253
-1769381.704
-1756093.238
-1816371.439
-1945091.816
-2118594.267
-2298526.91
-2422570.212
-2467880.28
-2477227.472
-2543257.027
-2707673.44
-2932329.002
-3189628.55
-3426068.032
-3663323.634
-3907512.997
-4164356.95
-4467736.655
-4813141.354
-5230116.296
-5670556.025
-6095177.976
-6492511.135
-6889695.675
-7334035.206
-7818029.46
-8334120.825
-8840273.442
-9321526.292
-9769899.476
-10176308.08
-10530227.53
-10902623.39
-11358450.11
-11892733.22
-12381736.7
-12679332.98
-12690343.95
-12593418.04
-12433864.77
-12223868.62
-11867454.84
-11458190.22
-11516137.12
-11020056.65
-10443972.8
-10009546.89
-9454594.497
-8551301.672
-8226705.103
-7397808.539
-6597996.016
-6106376.833
-5324205.81
-4748436.268
-4051144.286
-6186248.104
-4750228.046
3658146.283
15524468.64
26071340.09
37441605.06
49436980.94
)


101
(
0
1931969.888
1278415.346
702222.2689
215982.8913
-77577.5095
-224853.1022
-367199.4471
-535594.9299
-737418.482
-966080.7893
-1210564.383
-1459625.654
-1711257.435
-1949694.179
-2166560.928
-2356452.219
-2511209.405
-2641089.322
-2727033.572
-2784532.879
-2815022.457
-2812700.13
-2791194.2
-2756577.42
-2715545.087
-2669514.779
-2619908.57
-2561802.209
-2492108.977
-2407601.74
-2312546.097
-2227229.812
-2175294.956
-2165348.881
-2175364.013
-2177892.483
-2143466.476
-2115375.131
-2092117.63
-2125073.282
-2222735.542
-2399542.801
-2622382.003
-2807417.616
-2907920.147
-2915816.538
-2957189.085
-3064464.478
-3312376.732
-3621079.181
-3939105.237
-4224975.402
-4503629.38
-4797468.981
-5100280.341
-5474343.609
-5917035.37
-6445574.287
-6967342.795
-7426690.34
-7837205.89
-8274142.892
-8746637.835
-9246775.095
-9759482.888
-10239681.91
-10657251.07
-11003545.01
-11293052.62
-11566457.09
-11908161.23
-12286525.77
-12536115.53
-12517742.87
-12264930.31
-12050506.71
-11764722.87
-11291177.52
-10514026.45
-9597771.047
-9445781.937
-8796845.905
-7803420.71
-6983772.259
-6321036.499
-5074970.762
-4428123.254
-3566713.42
-2388324.695
-1754749.187
-815460.9079
-191602.8271
781096.2425
-909206.9427
2294208.224
14603496.66
28883136
40009157.8
53057740.54
67436538.08
)


101
(
0
2129564.433
1389215.224
765495.3845
248359.0675
-67101.37634
-223469.3
-368121.4227
-538175.1199
-742090.3116
-973600.7321
-1222804.229
-1477362.906
-1736678.755
-1986053.63
-2217191.237
-2424520.969
-2599673.996
-2751854.764
-2863057.796
-2947442.762
-3005761.234
-3032534.515
-3039763.386
-3031310.571
-3012222.619
-2984251.487
-2949022.914
-2904522.794
-2851214.744
-2783294.079
-2695994.477
-2615314.656
-2550070.032
-2526518.504
-2532262.696
-2552063.807
-2545367.228
-2522237.967
-2496809.741
-2509840.47
-2589034.078
-2758366.326
-2986121.073
-3236458.417
-3409331.072
-3479154.946
-3470155.261
-3552138.831
-3763222.926
-4100211.723
-4503565.429
-4858536.952
-5190959.342
-5500883.686
-5821537.602
-6168864.131
-6608868.11
-7157524.19
-7765238.933
-8314758.664
-8761446.272
-9138863.839
-9549962.148
-9984866.91
-10428875.16
-10843270.13
-11186121.71
-11418001.03
-11553169.37
-11665198.62
-11839345.99
-12022494.62
-11960368.3
-11462726.27
-10715407.44
-10229288.9
-9814858.122
-9127448.125
-8021773.231
-6561030.254
-6064616.514
-5299983.009
-3982166.02
-2692933.685
-1860289.092
-489363.7999
494066.1546
1243149.125
2724596.702
3488190.421
4562803.113
5088381.728
6290627.666
5108655.505
10249230.5
26365458.17
43095951.87
55339186.95
71877504.03
127016943.2
)


101
(
0
2309588.457
1503634.742
830787.6392
282319.7856
-54998.55346
-221139.8796
-367993.613
-539300.3243
-744827.3274
-978701.627
-1232168.552
-1492120.233
-1758866.876
-2018933.74
-2264313.848
-2489164.093
-2686317.128
-2861412.122
-2999893.701
-3112726.557
-3200067.312
-3258282.741
-3299045.766
-3322781.939
-3331796.832
-3325371.729
-3307602
-3279380.683
-3243545.09
-3196258.94
-3134744.445
-3059430.224
-2989857.791
-2951694.364
-2956159.48
-2978537.976
-2991494.043
-2993819.091
-2990389.475
-3009160.117
-3070460.744
-3204041.814
-3414078.118
-3692164.619