/*--------------------------------*- C++ -*----------------------------------*\
| =========                 |                                                 |
| \\      /  F ield         | OpenFOAM: The Open Source CFD Toolbox           |
|  \\    /   O peration     | Version:  2.3.1                                 |
|   \\  /    A nd           | Web:      www.OpenFOAM.org                      |
|    \\/     M anipulation  |                                                 |
\*---------------------------------------------------------------------------*/
FoamFile
{
    version     2.0;
    format      ascii;
    class       dictionary;
    location    "constant";
    object      la_r29;
}
// * * * * * * * * * * * * * * * * * * * * * * * * * * * * * * * * * * * * * //

la_r29_table
101
(

101
(
-4.966728598e-26
-1.627587957e-19
-3.683705059e-17
-8.902360728e-16
-8.231208347e-15
-4.146606679e-14
-1.429284236e-13
-4.322759791e-13
-1.132361533e-12
-2.697083716e-12
-5.966116085e-12
-1.257454666e-11
-2.514881974e-11
-4.97703628e-11
-9.576624606e-11
-1.789395837e-10
-3.264368861e-10
-5.90183641e-10
-1.007074726e-09
-1.726475366e-09
-2.818763278e-09
-4.416812619e-09
-6.814770027e-09
-1.0170171e-08
-1.4658992e-08
-2.046677693e-08
-2.772913e-08
-3.65003622e-08
-4.684599677e-08
-5.866891783e-08
-7.185728836e-08
-8.618711834e-08
-1.013207155e-07
-1.175148717e-07
-1.340821676e-07
-1.508571783e-07
-3.145812236e-07
-5.962377172e-07
-6.453398494e-07
-6.911487343e-07
-7.329872316e-07
-7.709842639e-07
-8.040964947e-07
-8.321433558e-07
-8.55378639e-07
-8.73073496e-07
-8.856092321e-07
-8.925390848e-07
-8.942812088e-07
-8.906921432e-07
-8.823443775e-07
-8.693555798e-07
-8.520837511e-07
-8.309433958e-07
-8.063475799e-07
-7.786782786e-07
-7.480366021e-07
-7.153931437e-07
-6.807595789e-07
-6.447492562e-07
-6.077570508e-07
-5.701014283e-07
-5.321833361e-07
-4.943741197e-07
-4.570041785e-07
-4.202570178e-07
-3.844405314e-07
-3.498047526e-07
-3.165837185e-07
-2.848331955e-07
-2.547857924e-07
-2.264756908e-07
-2.001147365e-07
-1.755923775e-07
-3.222822251e-07
-4.007022367e-07
-3.361519043e-07
-2.796472165e-07
-2.302300318e-07
-1.873245478e-07
-1.50330574e-07
-1.193944939e-07
-9.313450871e-08
-1.489210559e-07
-1.708475355e-07
-1.206107046e-07
-8.281365279e-08
-5.491899781e-08
-3.499438299e-08
-5.790843039e-08
-3.608124059e-08
-1.715718045e-08
-7.062982921e-09
-6.584817474e-09
-3.502166164e-09
-7.165290598e-10
2.718841556e-15
-6.010808951e-36
-4.655981624e-25
3.141399487e-25
-1.299701508e-44
)


101
(
-4.91252477e-26
-2.270889357e-24
-4.921473162e-23
-3.534212399e-22
-6.453454541e-22
-6.976901755e-21
-2.067386391e-18
-5.83333254e-18
-1.127687309e-17
-4.928659019e-17
-1.205267806e-16
-1.685181581e-16
-6.794792361e-18
-2.374838968e-17
-4.810620315e-17
-2.775203323e-16
-4.709805412e-16
-1.186154762e-15
-2.391859275e-15
-3.211041105e-15
-1.081034296e-14
-3.55795671e-14
-7.54935447e-14
-1.410704609e-13
-2.56136886e-13
-4.254518638e-13
-7.243253115e-13
-1.125706972e-12
-1.402631967e-12
-1.757599259e-12
-2.725772207e-12
-5.169017203e-12
-1.04602419e-11
-1.344775092e-11
-1.308716722e-11
-9.214422777e-12
-5.451094118e-12
-7.715953226e-12
-2.015108677e-11
-3.630906563e-11
-4.803602932e-11
-5.169982232e-11
-5.406321927e-11
-4.920150756e-11
-4.185240028e-11
-3.983552153e-11
-4.416637858e-11
-5.047057766e-11
-6.724720153e-11
-7.980903342e-11
-8.217155658e-11
-6.376542296e-11
-3.290458993e-11
-1.399237989e-11
-1.957172828e-11
-3.510904567e-11
-4.311742523e-11
-4.32801896e-11
-4.397812118e-11
-5.025189993e-11
-4.784059721e-11
-3.697799879e-11
-2.137911109e-11
-1.194973301e-11
-1.343082164e-11
-1.755138786e-11
-1.261869619e-11
-2.260513312e-12
-5.745073865e-12
-1.205162918e-11
-6.455700661e-12
-3.124694793e-11
-8.066145533e-11
-7.62976015e-11
-1.216270724e-11
-2.856777334e-11
-1.359914784e-11
-1.642844524e-11
-2.215487913e-11
-2.711390112e-12
-5.527508809e-12
-7.326016297e-12
-3.523229347e-12
-2.31891103e-12
-1.394963914e-12
-1.243936285e-12
-1.746999323e-12
-3.785280052e-13
-6.958377586e-13
-5.440858409e-13
-1.039673214e-13
-2.66711762e-13
-1.018849145e-13
-2.736350956e-14
-1.681291488e-12
-5.061925604e-12
-1.550585708e-14
-9.242919098e-13
-2.0233225e-12
-2.450059445e-12
-1.605808849e-11
)


101
(
-4.856709138e-26
-4.432839623e-24
-1.003218429e-22
-6.968626466e-22
-8.685961825e-22
-5.632296818e-21
-4.024794162e-22
-2.742216649e-20
-1.219349251e-19
-1.886592979e-18
-1.967933212e-18
-1.763640836e-18
-7.209116036e-18
-3.029033581e-17
-6.437172956e-17
-3.434779961e-16
-7.276032131e-16
-1.815731076e-15
-3.484929818e-15
-5.455011027e-15
-1.500872459e-14
-5.519338053e-14
-1.373321994e-13
-2.773260728e-13
-4.968524641e-13
-8.45822325e-13
-1.488871315e-12
-2.314626827e-12
-3.08733811e-12
-3.717501908e-12
-4.84818818e-12
-9.471980235e-12
-2.194372922e-11
-3.411153588e-11
-3.707613388e-11
-2.798292521e-11
-1.288271079e-11
-9.910743856e-12
-3.677318396e-11
-8.109715084e-11
-1.306695035e-10
-1.639158225e-10
-1.74392294e-10
-1.647043139e-10
-1.455166569e-10
-1.326543028e-10
-1.342003508e-10
-1.531877877e-10
-1.923721494e-10
-2.503402473e-10
-2.933554844e-10
-2.85745474e-10
-1.910334185e-10
-7.992978256e-11
-4.442547895e-11
-7.121190187e-11
-1.195027984e-10
-1.314421315e-10
-1.300388978e-10
-1.480256475e-10
-1.638819785e-10
-1.610751975e-10
-1.15249859e-10
-6.131802448e-11
-4.382491473e-11
-5.055303044e-11
-4.113158035e-11
-1.054512813e-11
-1.569600389e-11
-4.377529267e-11
-5.126173745e-11
-8.279112177e-12
-2.194634748e-10
-3.152957047e-10
-1.548244758e-10
-5.389682345e-11
-5.891654078e-11
-1.058158039e-11
-7.788449986e-11
-2.983942742e-11
-2.090323692e-11
-1.862345533e-11
-1.297828307e-11
-1.36668566e-11
-1.357053158e-12
-3.645638644e-12
-5.717366123e-12
-5.468370116e-12
-2.851242612e-12
-1.445048717e-12
-1.09555979e-12
-2.21616312e-13
-7.910475305e-13
-5.136018852e-13
-1.388850224e-11
-4.126849434e-11
-1.087282653e-12
-8.453854506e-12
-1.39468121e-11
-1.801370897e-11
2.587076971e-10
)


101
(
-4.799278454e-26
-6.454632563e-24
-1.569947949e-22
-1.109593186e-21
-1.280632556e-21
-3.990163829e-21
5.115355586e-21
-2.194734844e-20
-1.239248498e-19
-1.91366192e-18
-2.022917752e-18
-2.80258247e-18
-7.314050078e-18
-3.49682337e-17
-6.633378379e-17
-3.796091261e-16
-8.751412301e-16
-1.975773467e-15
-4.541928191e-15
-7.431065476e-15
-1.615640244e-14
-6.616456775e-14
-1.881393426e-13
-4.06685988e-13
-7.682325486e-13
-1.314413387e-12
-2.314912662e-12
-3.864258338e-12
-5.584812634e-12
-6.931847484e-12
-8.092149673e-12
-1.302394347e-11
-3.320008737e-11
-6.271502009e-11
-8.335363615e-11
-7.612980392e-11
-4.580470414e-11
-1.709517276e-11
-3.904202716e-11
-1.204142164e-10
-2.343273931e-10
-3.266344878e-10
-3.692464446e-10
-3.698237995e-10
-3.321249645e-10
-2.871924984e-10
-2.735841668e-10
-2.933592325e-10
-3.589654726e-10
-4.714711657e-10
-5.984231136e-10
-6.811479439e-10
-5.934283663e-10
-3.314954006e-10
-1.428616459e-10
-9.411883697e-11
-1.66543304e-10
-2.316905911e-10
-2.382713134e-10
-2.748056327e-10
-3.055844535e-10
-3.194988407e-10
-2.79421896e-10
-1.917437357e-10
-1.083305058e-10
-9.202899242e-11
-6.270754781e-11
-9.028272857e-13
-4.320469796e-11
-1.192016193e-10
-1.661785007e-10
-5.609043241e-11
-3.741721532e-10
-6.728954485e-10
-4.364646635e-10
-9.74621764e-11
-1.575932441e-10
-1.608864914e-11
-1.394767998e-10
-7.959679379e-11
-5.689474064e-11
-4.833827158e-11
-4.158921158e-11
-2.852149898e-11
-1.587337634e-11
-2.004289179e-12
-9.237441623e-12
-1.641163469e-11
-1.694879871e-11
-4.271213726e-12
-3.71417878e-12
-5.885018711e-13
-2.770893095e-12
-3.042008103e-12
-6.365053524e-11
-1.809510093e-10
-8.64650416e-12
-3.814216456e-11
-6.236545665e-11
-7.684043461e-11
-7.039651199e-09
)


101
(
-4.740229468e-26
-8.339640267e-24
-2.18468365e-22
-1.586377661e-21
-1.880460615e-21
-1.854911231e-21
1.069780756e-20
-1.369048152e-20
-1.226729451e-19
-1.896670758e-18
-1.890327563e-18
-3.445825161e-18
-9.562338539e-18
-4.240302775e-17
-6.808460453e-17
-4.17771108e-16
-1.042922514e-15
-2.306510483e-15
-5.52106149e-15
-9.667342111e-15
-1.898405551e-14
-6.555199813e-14
-2.175583058e-13
-5.174977708e-13
-1.033958001e-12
-1.779029916e-12
-3.144839086e-12
-5.400788461e-12
-8.184484846e-12
-1.074015378e-11
-1.200708563e-11
-1.636834774e-11
-3.826827598e-11
-8.702938596e-11
-1.322684892e-10
-1.398720792e-10
-9.597869104e-11
-3.409657226e-11
-3.903495482e-11
-1.345339391e-10
-3.210744666e-10
-5.280744911e-10
-6.563945351e-10
-6.781007873e-10
-6.286920814e-10
-5.471830764e-10
-4.439817301e-10
-4.078258779e-10
-4.91561835e-10
-6.288489228e-10
-8.388152233e-10
-1.089821713e-09
-1.145761331e-09
-8.503284676e-10
-4.190059048e-10
-2.027222119e-10
-1.681802807e-10
-2.644807713e-10
-2.743650417e-10
-2.9518185e-10
-4.071629657e-10
-4.582247588e-10
-4.146306791e-10
-3.233810264e-10
-2.293821821e-10
-1.424626275e-10
-7.367294393e-11
-4.440920872e-11
-1.192083345e-10
-2.559531477e-10
-3.783504655e-10
-1.660533646e-10
-6.875708561e-10
-1.268840532e-09
-8.509362735e-10
-1.651441818e-10
-2.984909366e-10
-1.816786443e-11
-2.25424381e-10
-1.059000226e-10
-1.264820683e-10
-1.269047278e-10
-8.680689844e-11
-6.000032611e-11
-2.57405885e-12
-1.842025641e-11
-1.018191783e-11
-1.273737557e-11
-4.821701069e-11
-1.587004414e-11
-7.097443731e-12
-4.338204571e-12
-1.92091808e-12
-1.443500096e-11
-2.219017661e-10
-5.725306727e-10
-3.793803898e-11
-1.210960596e-10
-1.848224287e-10
-2.228902073e-10
8.338188023e-09
)


101
(
-4.679558916e-26
-1.00224691e-23
-2.837197943e-22
-2.123210527e-21
-2.673843204e-21
9.17334176e-22
1.583939105e-20
-2.410161837e-21
-1.160594993e-19
-1.828123315e-18
-1.593085578e-18
-4.078212795e-18
-1.266707789e-17
-4.726464149e-17
-5.184338869e-17
-4.004743759e-16
-9.195855242e-16
-2.22861708e-15
-5.827141999e-15
-1.011771685e-14
-1.764277883e-14
-6.011701913e-14
-2.090252826e-13
-5.445452119e-13
-1.160768908e-12
-2.064263931e-12
-3.662243999e-12
-6.47212799e-12
-1.019667095e-11
-1.410380892e-11
-1.584385789e-11
-1.746623633e-11
-4.059201522e-11
-9.871689535e-11
-1.762425273e-10
-2.252688462e-10
-1.899066906e-10
-8.325733357e-11
-1.09565793e-11
-9.897029414e-11
-3.272766997e-10
-6.423783409e-10
-9.13814349e-10
-1.008394218e-09
-9.56011883e-10
-8.313460553e-10
-6.922336497e-10
-6.115907186e-10
-5.790930266e-10
-6.654143285e-10
-8.606692903e-10
-1.241309974e-09
-1.538241249e-09
-1.446842853e-09
-8.568740739e-10
-4.657437741e-10
-2.680720262e-10
-2.509463015e-10
-2.383664245e-10
-2.416269335e-10
-4.188474596e-10
-5.611732436e-10
-4.885793803e-10
-3.728696967e-10
-3.091218566e-10
-2.120840379e-10
-2.04656076e-11
-1.491489326e-10
-2.986736467e-10
-5.074686157e-10
-7.153453564e-10
-3.651309824e-10
-1.203908517e-09
-2.296849097e-09
-1.536987326e-09
-2.460868889e-10
-4.463272228e-10
-1.099566664e-10
-5.391124909e-10
-9.649080217e-11
-3.008735281e-10
-2.932219224e-10
-2.150952269e-10
-1.562794206e-10
-1.158197133e-11
-2.783979215e-11
-3.681140569e-12
-1.381838987e-11
-6.508120874e-11
-5.605350681e-11
-5.117660249e-11
-1.433332706e-11
-1.884098944e-12
-4.618443398e-11
-6.147423851e-10
-1.480836664e-09
-1.267155544e-10
-3.020033478e-10
-4.015985634e-10
-4.764441687e-10
-9.211212963e-09
)


101
(
-4.617263576e-26
-1.147887377e-23
-3.521175329e-22
-2.716209365e-21
-3.682504231e-21
4.416736959e-21
2.053997961e-20
1.396571949e-20
-1.049900879e-19
-1.713079211e-18
-1.124050909e-18
-4.525947764e-18
-1.553757331e-17
-5.151048395e-17
-4.413254121e-17
-3.66025869e-16
-8.253952586e-16
-1.926378508e-15
-5.776102928e-15
-1.044475871e-14
-1.635584196e-14
-5.074346878e-14
-1.886080284e-13
-5.441619974e-13
-1.246990519e-12
-2.300698308e-12
-4.021116977e-12
-7.081200238e-12
-1.172451666e-11
-1.745856118e-11
-2.125594968e-11
-2.217257789e-11
-3.343909812e-11
-9.023814366e-11
-1.955483048e-10
-2.869532246e-10
-2.780246113e-10
-1.49561435e-10
-2.873231728e-11
-5.590405131e-11
-2.90055436e-10
-7.041347279e-10
-1.089473074e-09
-1.315018017e-09
-1.265783079e-09
-1.054680971e-09
-8.429055268e-10
-7.219683995e-10
-7.130894564e-10
-8.606475765e-10
-8.722877634e-10
-9.767392256e-10
-1.396459311e-09
-1.630298882e-09
-1.286071453e-09
-6.577274882e-10
-4.607499505e-10
-2.982990477e-10
-2.958348762e-10
-2.264451171e-10
-3.523962846e-10
-6.325808304e-10
-4.878428436e-10
-3.62606572e-10
-2.904809711e-10
-2.53718449e-10
-4.220804895e-11
-3.568783279e-10
-6.258966565e-10
-9.321479605e-10
-1.171122937e-09
-6.281499256e-10
-1.837550533e-09
-3.656717631e-09
-2.371672978e-09
-5.502523979e-10
-8.257611965e-10
-1.490982357e-10
-9.74624459e-10
-2.739529625e-10
-8.339096416e-10
-2.931065492e-10
-3.391845032e-10
-3.470080561e-10
-1.190001011e-10
-2.316918765e-10
-3.197454857e-11
-2.275564002e-12
-3.627337298e-11
-1.508890341e-10
-4.962625821e-11
-2.592538124e-11
-4.613144491e-12
-8.895675119e-11
-1.443202153e-09
-3.238416385e-09
-3.417748199e-10
-7.209595777e-10
-9.44347112e-10
-1.043636976e-09
5.945811377e-08
)


101
(
-4.553340142e-26
-1.272542497e-23
-4.225784952e-22
-3.35826836e-21
-4.894530546e-21
7.507311449e-21
2.432176601e-20
2.98551081e-20
-9.039320106e-20
-1.558724462e-18
-5.079278816e-19
-4.614083357e-18
-1.822241877e-17
-3.843883889e-17
-3.984329098e-17
-3.216512945e-16
-7.008359524e-16
-1.488110948e-15
-5.097328907e-15
-9.656421981e-15
-1.404462287e-14
-3.855855493e-14
-1.484314659e-13
-4.650454515e-13
-1.151263005e-12
-2.212412922e-12
-3.919757082e-12
-6.954827135e-12
-1.162495294e-11
-1.797233354e-11
-2.306982389e-11
-2.37922923e-11
-3.230838136e-11
-7.433021705e-11
-1.782266784e-10
-3.064403366e-10
-3.623504033e-10
-2.470558094e-10
-4.139036009e-11
-3.337686409e-11
-1.573244228e-10
-5.983254391e-10
-1.139577008e-09
-1.521454075e-09
-1.585397539e-09
-1.342059609e-09
-9.131709374e-10
-5.862590866e-10
-5.210215073e-10
-8.037308683e-10
-1.080702203e-09
-1.145003042e-09
-1.011694054e-09
-1.186583592e-09
-1.186021261e-09
-5.34795914e-10
-3.853892332e-10
-3.789920734e-10
-4.605524788e-10
-3.923760465e-10
-5.141793186e-10
-8.087568379e-10
-7.212440051e-10
-4.220335671e-10
-3.449397722e-10
-3.525728831e-10
-2.777612908e-11
-5.495737477e-10
-1.069092277e-09
-1.573089706e-09
-1.787015389e-09
-8.595877637e-10
-2.695149504e-09
-5.340298563e-09
-3.399099014e-09
-1.084437535e-09
-1.501441196e-09
-4.545991034e-11
-1.196638563e-09
-5.036060658e-10
-1.283364668e-09
-4.793471161e-10
-4.668196475e-10
-4.309104925e-10
-1.047925071e-10
-1.220279287e-10
-4.933719693e-11
-8.179505417e-11
-7.983412981e-11
-1.497472072e-10
-1.356940174e-10
-3.595681531e-11
-4.958764547e-11
-1.164174903e-10
-3.012927279e-09
-5.511859954e-09
-5.780089297e-10
-1.244248452e-09
-1.68142121e-09
-1.92698575e-09
1.384916394e-07
)


101
(
-4.487785399e-26
-1.373081386e-23
-4.94114064e-22
-4.043774389e-21
-6.321816803e-21
8.999861762e-21
2.704190277e-20
4.812921366e-20
-6.859224478e-20
-1.359846832e-18
2.714210665e-19
-4.469230575e-18
-1.444383102e-17
-3.940839897e-17
-3.166635174e-17
-2.526239858e-16
-5.314098794e-16
-9.554840368e-16
-4.035788542e-15
-7.132204898e-15
-9.505083016e-15
-2.912266419e-14
-1.019492162e-13
-3.443422426e-13
-9.565619903e-13
-1.977463961e-12
-3.618649817e-12
-6.486160035e-12
-1.099563547e-11
-1.749160737e-11
-2.382279404e-11
-2.463831662e-11
-2.601941581e-11
-5.627127502e-11
-1.432582601e-10
-2.866169819e-10
-3.923861618e-10
-3.094587207e-10
-9.338900247e-11
-5.149055314e-11
-4.419136126e-11
-4.548428073e-10
-1.027915898e-09
-1.504065775e-09
-1.66198587e-09
-1.477489088e-09
-9.927541044e-10
-5.454465271e-10
-4.144110159e-10
-4.465364114e-10
-8.567490902e-10
-1.385503947e-09
-1.355150042e-09
-7.932072575e-10
-5.549056719e-10
-3.68204461e-11
-1.849723523e-10
-2.190774599e-10
-4.256338677e-10
-5.632249898e-10
-7.873247198e-10
-1.091675692e-09
-1.121512521e-09
-5.046874578e-10
-2.854396324e-10
-5.226417789e-10
-2.571045471e-10
-5.125626142e-10
-1.364181181e-09
-2.322700048e-09
-2.738444374e-09
-1.288776886e-09
-3.545493416e-09
-7.182057462e-09
-4.692500456e-09
-1.710512276e-09
-2.347451096e-09
-2.815453587e-12
-2.046780471e-09
-6.790457661e-10
-2.216409217e-09
-5.609402621e-10
-7.626557752e-10
-4.216735354e-10
-3.181231105e-11
-2.020548334e-11
-3.364906983e-10
-5.507666318e-11
-1.811714088e-10
-2.978825223e-11
-3.070132314e-10
-5.761393404e-11
-8.546476739e-11
-1.627201358e-10
-5.591951695e-09
-9.468711731e-09
-1.116810495e-09
-2.181445975e-09
-2.831903052e-09
-3.082205679e-09
4.620263952e-08
)


101
(
-4.420596008e-26
-1.449367141e-23
-5.658893154e-22
-4.762960602e-21
-7.938397494e-21
1.059228796e-20
2.833227368e-20
6.730738728e-20
-4.172701135e-20
-1.131030816e-18
1.163268491e-18
-2.162710456e-18
-1.400305531e-17
-4.831847595e-17
-2.739303089e-17
-1.803521026e-16
-3.68186614e-16
-4.380123355e-16
-2.55409204e-15
-4.418170722e-15
-5.408637351e-15
-1.76757474e-14
-5.301535908e-14
-2.095476915e-13
-6.795236999e-13
-1.528173676e-12
-2.954234741e-12
-5.415987974e-12
-9.139111111e-12
-1.477691375e-11
-2.130328016e-11
-2.265460017e-11
-2.276740728e-11
-3.821457385e-11
-9.64130822e-11
-2.154085139e-10
-3.51989905e-10
-3.55821098e-10
-1.476806315e-10
-9.016665052e-11
-1.091885332e-10
-2.13250329e-10
-8.358253948e-10
-1.465844686e-09
-1.724936422e-09
-1.541750202e-09
-9.012867341e-10
-2.765928269e-10
-1.886447351e-10
-3.855266586e-10
-7.491605746e-10
-1.008187392e-09
-1.557444435e-09
-1.239530473e-09
-1.11464179e-10
-5.242829459e-10
-1.025338658e-09
-5.626814707e-10
-8.435278092e-11
-5.568416143e-10
-8.182298435e-10
-1.222252648e-09
-1.513282722e-09
-6.487212577e-10
-9.572312113e-11
-1.021098312e-10
-3.756543564e-10
-2.107708501e-10
-1.255604434e-09
-2.683544003e-09
-3.643920822e-09
-1.840768991e-09
-4.320968836e-09
-9.235644059e-09
-6.461262595e-09
-2.09876534e-09
-3.445332132e-09
-4.779917192e-10
-3.121165422e-09
-2.394832803e-09
-2.68719643e-09
-7.039317743e-10
-8.578214544e-10
-5.399807619e-10
-6.598974805e-11
-1.336484157e-13
-8.673655995e-10
-1.608594881e-10
-3.515990571e-10
-1.111444714e-10
-1.107681387e-09
-1.975299928e-10
-2.291629087e-10
-3.246885206e-10
-9.510148571e-09
-1.535826249e-08
-2.03760652e-09
-3.539906845e-09
-4.297351817e-09
-5.511750377e-09
-1.979760191e-07
)


101
(
-4.351768799e-26
-1.503675266e-23
-6.367265266e-22
-5.50926732e-21
-9.752486165e-21
1.205879406e-20
2.832908867e-20
8.843689618e-20
-6.661026262e-21
-7.559844434e-19
1.860603806e-18
-7.294417724e-19
-1.220124987e-17
-5.146301843e-17
-2.585169434e-17
-1.087270299e-16
-2.270615361e-16
9.092826652e-17
-9.474675035e-16
-9.250433933e-16
-3.770776449e-16
-9.996541085e-15
-1.819982166e-14
-8.752111178e-14
-3.522306875e-13
-9.172442536e-13
-2.022232067e-12
-4.061223323e-12
-6.806857394e-12
-1.113601148e-11
-1.756070568e-11
-1.899986446e-11
-1.85223609e-11
-2.591691949e-11
-6.075770819e-11
-1.495696062e-10
-2.780252112e-10
-3.181525439e-10
-1.700782237e-10
-5.951142897e-11
-1.477278708e-10
-3.724120023e-11
-6.001448756e-10
-1.183925877e-09
-1.537607483e-09
-1.538046393e-09
-1.104314954e-09
-3.196995849e-10
-5.068598202e-10
-3.110657156e-10
-4.794117183e-10
-1.180835688e-09
-1.414585001e-09
-1.44124015e-09
-4.874383138e-10
-7.780869095e-10
-1.572836393e-09
-1.607900412e-09
-9.343596673e-10
-7.226020849e-11
-5.370291844e-10
-9.300275092e-10
-1.387612669e-09
-5.789630942e-10
-6.409268677e-10
-1.349082539e-09
-1.081188744e-09
-7.141613973e-10
-1.124383729e-09
-2.669600059e-09
-3.974134008e-09
-2.490055964e-09
-4.935628096e-09
-1.113232664e-08
-8.295940538e-09
-2.084853057e-09
-4.100276368e-09
-9.088137589e-10
-2.880643934e-09
-3.240782028e-09
-2.588211837e-09
-6.707340938e-10
-1.006878338e-09
-1.24556684e-09
-1.357169514e-09
-2.601761823e-10
-1.042173786e-09
-4.772195394e-10
-1.474303721e-10
-3.249261237e-10
-4.845200042e-10
-3.235063784e-10
-2.50021411e-10
-6.223332626e-10
-1.479273713e-08
-2.221394321e-08
-2.926288771e-09
-4.559959792e-09
-5.655294178e-09
-7.087388951e-09
3.663235189e-07
)


101
(
-4.281319411e-26
-1.535822519e-23
-7.057760586e-22
-6.271584921e-21
-1.173204461e-20
1.341181716e-20
2.663382347e-20
1.10109279e-19
3.434876729e-20
-4.75501618e-19
2.365490266e-18
1.087706309e-18
-9.007502395e-18
-5.118176843e-17
-3.10170289e-17
-4.471950074e-17
-1.238590244e-16
5.029153091e-16
6.400526154e-16
2.505106355e-15
4.844183528e-15
-3.499853326e-15
4.673089794e-15
5.464489568e-15
-6.355015364e-14
-2.856927219e-13
-9.57594517e-13
-2.498547051e-12
-4.166654908e-12
-7.13917969e-12
-1.273036866e-11
-1.481554409e-11
-1.253491441e-11
-1.590372412e-11
-3.098163535e-11
-7.909440446e-11
-1.668347054e-10
-2.390076255e-10
-1.949613765e-10
-3.497176858e-11
-1.938854501e-10
-1.6317742e-10
-3.212864201e-10
-9.668947119e-10
-1.391299454e-09
-1.328470534e-09
-9.16130287e-10
-4.133853726e-10
-3.388120575e-10
-5.420587243e-10
-3.558101791e-10
-5.12426032e-10
-1.300421208e-09
-1.452097569e-09
-7.584352294e-10
-5.515615604e-10
-1.523866597e-09
-2.493931406e-09
-2.102737711e-09
-6.211641019e-10
-2.061611496e-10
-6.649628752e-10
-8.711284526e-10
-4.433137079e-10
-1.172655701e-09
-2.79527713e-09
-3.200912354e-09
-2.534854216e-09
-2.019848107e-09
-2.766791968e-09
-3.841388842e-09
-2.603370427e-09
-4.918139357e-09
-1.226810437e-08
-9.662112804e-09
-1.97119094e-09
-4.395049111e-09
-9.52025139e-11
-3.447858365e-09
-2.764404923e-09
-2.765467388e-09
-2.646860121e-10
-8.815586024e-11
-4.784923508e-10
-3.723081301e-09
-2.287750326e-10
-6.014628507e-10
-1.185672059e-09
-4.727325015e-10
-1.631883194e-10
-1.700713424e-09
-7.049503176e-10
-2.613114475e-10
-7.936955768e-10
-2.121967918e-08
-2.944281247e-08
-3.748116849e-09
-5.721769864e-09
-5.63398031e-09
-8.740825945e-09
4.529487518e-07
)


101
(
-4.209273355e-26
-1.547178391e-23
-7.71981162e-22
-7.039361847e-21
-1.384637918e-20
1.458854953e-20
2.31670586e-20
1.320315227e-19
8.437830187e-20
-1.622021574e-19
2.892788837e-18
3.210518838e-18
-4.103669873e-18
-4.08901734e-17
-4.437229689e-17
7.897765492e-18
-8.317158082e-17
8.07873065e-16
1.881215964e-15
5.717773438e-15
1.050833931e-14
2.271857851e-18
1.567531873e-14
7.098841704e-14
1.661625143e-13
2.46695341e-13
1.060284822e-13
-8.704770096e-13
-1.649095463e-12
-3.188547286e-12
-7.305252587e-12
-8.957917496e-12
-9.374699287e-12
-1.148878756e-11
-1.527342408e-11
-3.51539228e-11
-8.777386225e-11
-1.278254142e-10
-1.216716635e-10
-1.422640198e-11
-1.412248106e-10
-1.819139362e-10
-1.079857075e-10
-5.988232025e-10
-1.010830067e-09
-1.190288742e-09
-9.61575451e-10
-3.096808064e-10
-4.66859993e-10
-6.553565433e-10
-4.27303533e-10
-1.309150071e-10
-4.310373485e-10
-1.002786245e-09
-6.280923404e-10
-3.343538085e-10
-1.299167637e-09
-1.831004266e-09
-2.313277773e-09
-1.578440034e-09
-1.777674121e-10
-2.899638141e-10
-6.930249898e-10
-8.662364362e-10
-5.580126649e-10
-2.989706827e-09
-4.826112213e-09
-4.526457206e-09
-3.770913482e-09
-3.476573688e-09
-3.589811814e-09
-2.279940227e-09
-4.799293305e-09
-1.286021898e-08
-1.097485635e-08
-1.347728277e-09
-4.72993101e-09
-1.304741147e-09
-5.32897098e-09
-2.619697268e-09
-2.86834727e-09
-1.816362827e-09
-4.94370442e-10
-6.320938194e-11
-3.592095565e-09
-1.177994655e-09
-2.031303749e-10
-3.044267844e-10
-3.204906501e-09
-3.202097014e-10
-1.755797053e-10
-7.524473721e-10
-5.980951195e-10
-1.612224093e-09
-2.771496317e-08
-3.706538389e-08
-4.840701466e-09
-8.425207327e-09
-6.967472158e-09
-9.94446678e-09
8.285798896e-07
)


101
(
-4.135579701e-26
-1.540722666e-23
-8.344192734e-22
-7.801277705e-21
-1.605938485e-20
1.553934456e-20
1.765505922e-20
1.531681231e-19
2.409913346e-19
1.656984126e-19
3.459915148e-18
5.625788953e-18
2.038434926e-18
-3.160181148e-17
-5.46116637e-17
3.844744502e-17
-9.509593246e-17
8.807383319e-16
2.873660407e-15
7.412384142e-15
1.407738423e-14
4.521610243e-15
1.947484605e-14
1.062239271e-13
3.206210602e-13
6.760470924e-13
1.046298685e-12
6.295637003e-13
5.925369059e-13
1.593722385e-13
-2.684942073e-12
-3.828764355e-12
-3.828790936e-12
-5.507768977e-12
-5.24280454e-12
-1.104481312e-11
-2.630058438e-11
-2.672695852e-11
-6.244226243e-11
-3.0065082e-11
-6.855340516e-11
-1.9886522e-10
-6.143143805e-11
-3.199616244e-10
-7.631883583e-10
-9.161608987e-10
-6.956603237e-10
-3.900785473e-10
-8.985026373e-11
-5.978504937e-10
-7.660876671e-10
-8.629039785e-11
-3.20404039e-10
-4.010442222e-10
-1.384848244e-10
-4.606927141e-10
-1.401136202e-09
-1.70998221e-09
-2.011683388e-09
-1.444038733e-09
-4.061170252e-11
-6.997677781e-10
-6.836938002e-10
-8.263940631e-10
-8.309829873e-10
-1.170542498e-09
-4.493644877e-09
-5.764310514e-09
-5.256619035e-09
-4.596260256e-09
-3.398256675e-09
-1.679400401e-09
-4.317645717e-09
-1.131196366e-08
-1.029625788e-08
-1.191855582e-09
-4.377929305e-09
-1.605939373e-09
-6.156090792e-09
-3.215755429e-09
-3.105110619e-09
-4.719250441e-09
-1.415381479e-09
-1.170940066e-10
-2.132050045e-09
-3.563040233e-09
-2.402507542e-10
-1.104861345e-09
-2.705057556e-09
-5.024674164e-10
-1.941797377e-10
-7.232536504e-10
-8.908472768e-10
-2.180054158e-09
-3.286845931e-08
-4.132603347e-08
-6.052767143e-09
-1.204213539e-08
-8.689620279e-09
-1.054796011e-08
7.8278806e-07
)


101
(
-4.060235109e-26
-1.518083167e-23
-8.922781339e-22
-8.544641115e-21
-1.831510998e-20
1.630997398e-20
9.825353768e-21
1.726926669e-19
3.15385752e-19
5.052653237e-19
4.033169987e-18
8.130027035e-18
9.460000462e-18
-1.831752777e-17
-4.117517424e-17
2.853814749e-17
-1.735110482e-16
8.50161357e-16
3.382972228e-15
8.595025845e-15
1.743193672e-14
3.897230535e-15
8.47999502e-15
1.026858633e-13
3.880286232e-13
9.696997893e-13
1.754365736e-12
1.876236903e-12
2.37962346e-12
2.492405593e-12
6.327410156e-13
4.621081453e-13
-5.528012651e-13
-3.708613394e-12
-1.718393487e-12
-1.9120839e-12
-1.020927116e-11
-1.846632158e-11
-4.208618228e-11
-2.480733554e-11
-3.569472793e-11
-6.465440822e-11
-4.448336986e-11
-9.953574497e-11
-3.051162558e-10
-6.417944089e-10
-6.617042592e-10
-2.183756729e-10
-1.841807221e-10
-1.936176183e-10
-3.702942832e-10
-7.726450505e-10
-1.381301161e-10
-6.655488874e-10
-8.468653115e-10
-6.520584141e-10
-1.338761526e-09
-2.159537579e-09
-2.180180767e-09
-1.782493931e-09
-1.225103372e-10
-1.020520429e-09
-1.201582181e-09
-1.227949072e-09
-1.845101444e-09
-1.401831245e-09
-1.598907034e-09
-4.389383199e-09
-5.017475332e-09
-5.577779938e-09
-3.71132418e-09
-9.236116813e-10
-4.233705763e-09
-9.722696331e-09
-7.711781902e-09
-2.566240526e-09
-4.247391357e-09
-2.316356123e-09
-6.234150995e-09
-3.257891179e-09
-3.832055786e-09
-5.27344295e-09
-4.133336387e-09
-2.517508195e-11
-4.177256211e-10
-4.288577115e-09
-4.444273822e-10
-5.724244144e-10
-1.473293627e-09
-7.593177939e-10
-2.590612449e-10
-1.523077994e-09
-7.039081409e-10
-2.453477785e-09
-3.422188089e-08
-4.159984502e-08
-6.226649715e-09
-1.163941377e-08
-5.221722618e-09
-6.441575666e-09
3.503387185e-07
)


101
(
-3.983236351e-26
-1.481556104e-23
-9.446496542e-22
-9.258364852e-21
-2.057352955e-20
1.681792878e-20
-2.495811896e-22
1.889855333e-19
3.917996908e-19
8.567995933e-19
4.587805247e-18
1.067444347e-17
1.804310954e-17
-6.965805942e-19
-1.634126277e-17
-1.61334942e-17
-3.178388654e-16
6.497257848e-16
3.234276765e-15
8.24263298e-15
1.738058793e-14
6.299014744e-15
-1.355840451e-15
7.25356231e-14
3.627552218e-13
1.098416112e-12
2.2289369e-12
3.007237609e-12
3.930081626e-12
4.156176541e-12
2.302735699e-12
2.420165227e-12
1.735454427e-12
-1.356461048e-12
-2.088335214e-13
-3.340832796e-12
-1.20596529e-11
-3.950942571e-11
-8.08212288e-11
-5.864829704e-11
-1.364437944e-11
-2.835540903e-11
-4.214415942e-11
-8.409138618e-11
-1.411928815e-10
-2.868181975e-10
-3.256241475e-10
-2.321572697e-10
-5.835248779e-11
-3.286424446e-10
-1.733217056e-10
-2.569537986e-10
-4.569503654e-10
-5.044202e-10
-1.202323516e-09
-1.326006064e-09
-1.232416303e-09
-1.549114696e-09
-2.041134709e-09
-1.795976457e-09
-7.800741827e-10
-5.123252022e-10
-1.022832467e-09
-1.250663848e-09
-1.965352625e-09
-2.806902499e-09
-1.606267789e-09
-1.671848253e-09
-3.715690228e-09
-4.718319581e-09
-3.567418848e-09
-2.339874848e-10
-4.69381545e-09
-9.83055295e-09
-7.423339026e-09
-3.976176968e-09
-5.409894535e-09
-2.263203953e-09
-6.191417523e-09
-3.038057681e-09
-4.624002221e-09
-2.769261121e-09
-4.1155187e-09
-8.242484466e-10
-8.553838533e-10
-3.200970796e-09
-1.726233591e-09
3.063038443e-12
-1.58295441e-09
-3.209540311e-09
-8.571808359e-11
-3.632121232e-09
-1.06114382e-09
-1.942960415e-09
-3.016352769e-08
-3.303528372e-08
-3.531698274e-09
-8.651517232e-09
-2.502933825e-09
1.0709339e-10
2.312090588e-07
)


101
(
-3.904580256e-26
-1.434030191e-23
-9.908909694e-22
-9.93179333e-21
-2.280004255e-20
1.693786767e-20
-1.194347171e-20
2.044700679e-19
4.763788829e-19
1.223856679e-18
5.16538734e-18
1.331424942e-17
2.710681553e-17
2.036175381e-17
2.125082055e-17
3.139890505e-17
-4.811017214e-16
1.690910075e-16
2.725228542e-15
6.111900953e-15
1.422453037e-14
5.260844205e-15
-1.081845497e-14
4.32082146e-14
3.020027104e-13
1.075287906e-12
2.398407168e-12
3.608083516e-12
5.025592133e-12
5.05872337e-12
2.273624045e-12
1.429372079e-12
1.291372894e-12
7.170644112e-13
2.17963691e-12
-2.683069031e-12
-1.974918813e-12
-1.638567211e-11
-5.300419063e-11
-8.908256749e-11
-2.867241541e-11
-2.683846976e-11
-7.406907901e-11
-8.944039988e-11
-1.277096648e-11
-6.604230991e-11
-1.585035755e-10
-1.21481413e-10
-1.422238436e-10
-1.282975571e-10
-1.242646848e-10
-3.476925981e-10
-1.762039208e-10
-3.927023945e-10
-6.806412757e-10
-1.304004827e-09
-1.886923055e-09
-1.443457121e-09
-1.532103416e-09
-1.309090549e-09
-6.866424455e-10
-1.571063779e-11
-5.995523102e-10
-7.25523853e-10
-1.348038434e-09
-2.414913565e-09
-2.954719122e-09
-1.254654734e-09
-1.295020786e-09
-3.208890224e-09
-2.433808326e-09
-4.893422618e-10
-4.388057774e-09
-9.313734317e-09
-8.642437365e-09
-1.654933737e-09
-5.434180808e-09
-1.011731493e-09
-5.256988493e-09
-3.417019785e-09
-3.372408724e-09
-5.771023601e-10
-1.780885788e-09
-1.306539038e-09
-1.574098252e-09
-8.561418887e-10
-2.008617593e-09
-2.479026488e-10
-6.701588094e-10
-1.701113113e-09
-1.713175798e-10
-1.678395433e-09
-1.187788142e-09
-9.68150195e-10
-1.842275058e-08
-1.88228149e-08
-2.052383804e-09
-3.257525289e-09
1.383902501e-09
4.792631072e-09
-2.442378608e-07
)


101
(
-3.824263301e-26
-1.378203105e-23
-1.030364165e-21
-1.054954326e-20
-2.488452262e-20
1.701956325e-20
-1.389961774e-20
2.142207426e-19
5.638993959e-19
1.583003612e-18