/*--------------------------------*- C++ -*----------------------------------*\
| =========                 |                                                 |
| \\      /  F ield         | OpenFOAM: The Open Source CFD Toolbox           |
|  \\    /   O peration     | Version:  2.3.1                                 |
|   \\  /    A nd           | Web:      www.OpenFOAM.org                      |
|    \\/     M anipulation  |                                                 |
\*---------------------------------------------------------------------------*/
FoamFile
{
    version     2.0;
    format      ascii;
    class       dictionary;
    location    "constant";
    object      la_r23;
}
// * * * * * * * * * * * * * * * * * * * * * * * * * * * * * * * * * * * * * //

la_r23_table
101
(

101
(
-2.983839292e-16
-2.283026795e-08
-1.243505197e-06
-1.479054816e-05
-8.236042786e-05
-0.000245833475
-0.0005097205831
-0.0010140648
-0.001770075576
-0.002822348649
-0.004170306138
-0.005803602713
-0.007672941033
-0.009694602884
-0.01175246139
-0.01375676819
-0.01555398436
-0.01679869246
-0.01803681456
-0.01819666504
-0.01813511732
-0.01785595098
-0.01682121598
-0.01547486066
-0.01400115927
-0.01246112338
-0.01092582961
-0.009452540424
-0.008073016799
-0.006822775161
-0.005715572897
-0.004739231406
-0.003828923833
-0.003166375154
-0.00258723717
-0.002103804819
-0.002335831681
-0.003266049238
-0.002578040346
-0.002055167802
-0.001649083192
-0.00129240924
-0.001018910765
-0.000800962988
-0.0006165242263
-0.00047574878
-0.0003607777947
-0.0002745518679
-0.0002060610332
-0.0001552133534
-0.0001151407689
-8.485698212e-05
-6.203680787e-05
-4.478811176e-05
-3.174458482e-05
-2.188202902e-05
-1.570902355e-05
-1.053933939e-05
-7.252187509e-06
-4.792590712e-06
-3.208882696e-06
-2.08225625e-06
-1.311440357e-06
-8.145324194e-07
-4.979177318e-07
-2.988634044e-07
-1.720288892e-07
-9.495264111e-08
-5.37745331e-08
-2.836348105e-08
-1.486898465e-08
-7.672142864e-09
-4.542688085e-09
-2.434808852e-09
-1.420637322e-09
-1.077892401e-09
-4.335903642e-10
-1.853344585e-10
-7.764138247e-11
-2.841195813e-11
-7.849180214e-12
-3.401215539e-12
-1.091432748e-12
-6.486286453e-13
-4.00421382e-13
-1.210262496e-13
-3.63990039e-14
-1.048431254e-14
-3.063038788e-15
-2.513087376e-15
-7.019352827e-16
-1.369907901e-16
-2.676573543e-17
-1.142719509e-17
-3.405956337e-18
-1.356987277e-18
6.510605979e-24
3.105731496e-41
-8.967382571e-34
6.450453076e-34
-1.89088768e-44
)


101
(
-3.312746474e-16
3.120452798e-09
-4.497954747e-07
-5.356830724e-06
-2.725680126e-05
-7.281362531e-05
-0.0001334731341
-0.0002353783545
-0.0003659557412
-0.0005216134361
-0.0006916392452
-0.0008674514679
-0.001037725112
-0.001190422222
-0.001317264356
-0.001412876827
-0.001469988527
-0.001466829563
-0.001461863662
-0.001377527489
-0.001284130851
-0.001187541101
-0.001059287801
-0.0009257382352
-0.000798526133
-0.0006798948055
-0.0005723477709
-0.0004771094851
-0.0003940335916
-0.0003231005532
-0.000263613467
-0.0002144517373
-0.0001710393227
-0.0001376624358
-0.0001106715643
-8.693097063e-05
-7.477383207e-05
-8.555718189e-05
-7.597368842e-05
-6.006729142e-05
-4.739243631e-05
-3.697937457e-05
-2.884410978e-05
-2.258051177e-05
-1.752542795e-05
-1.359534815e-05
-1.048314632e-05
-8.070494227e-06
-6.187180125e-06
-4.735241133e-06
-3.606108784e-06
-2.728609606e-06
-2.054553953e-06
-1.531209734e-06
-1.131586963e-06
-8.278949826e-07
-6.067794268e-07
-4.396991136e-07
-3.160879407e-07
-2.250905623e-07
-1.586560706e-07
-1.104900056e-07
-7.567894795e-08
-5.104220946e-08
-3.379721093e-08
-2.215272044e-08
-1.4190444e-08
-8.88140789e-09
-5.428202728e-09
-3.22385355e-09
-1.85919605e-09
-1.048719414e-09
-5.871731864e-10
-3.062293148e-10
-1.434676718e-10
-6.716136131e-11
-2.908690858e-11
-1.203065055e-11
-4.47200087e-12
-1.193685371e-12
-1.719488378e-13
8.893643228e-14
9.878432421e-14
6.817563327e-14
3.5167488e-14
1.354336619e-14
3.566318536e-15
8.516914852e-16
3.867683245e-16
1.166304736e-16
2.839261428e-17
6.870053246e-18
1.997462953e-19
1.971406808e-20
-4.312025047e-19
-5.910584461e-19
-7.434909887e-21
-5.202243382e-20
-2.236365955e-19
1.171549824e-17
-1.944284065e-16
)


101
(
-3.61525195e-16
1.406339982e-08
-1.314767902e-07
-1.90624396e-06
-9.076331182e-06
-2.20045875e-05
-3.643387431e-05
-5.817660843e-05
-8.278325068e-05
-0.0001090965596
-0.0001352763733
-0.0001605701036
-0.0001842239456
-0.0002050736864
-0.0002233314255
-0.0002386202908
-0.0002502867718
-0.0002561935325
-0.0002618988081
-0.0002600557316
-0.0002559085397
-0.0002493880014
-0.0002389199526
-0.0002257897634
-0.0002108974213
-0.0001947192432
-0.0001778579316
-0.0001607863084
-0.000144080562
-0.0001280704635
-0.0001131281062
-9.950718285e-05
-8.69784913e-05
-7.567885989e-05
-6.492684237e-05
-5.629463718e-05
-4.979440698e-05
-4.202848464e-05
-3.714141428e-05
-3.288871535e-05
-2.830899613e-05
-2.384869776e-05
-2.000271858e-05
-1.673798976e-05
-1.396105826e-05
-1.16325515e-05
-9.675289846e-06
-8.013874957e-06
-6.614669605e-06
-5.435175511e-06
-4.441086815e-06
-3.602003246e-06
-2.899461206e-06
-2.320494915e-06
-1.847141627e-06
-1.463574369e-06
-1.148498041e-06
-8.950285024e-07
-6.920443622e-07
-5.305961952e-07
-4.038304771e-07
-3.040167661e-07
-2.252977664e-07
-1.651657594e-07
-1.199203541e-07
-8.608315433e-08
-6.059573018e-08
-4.185421983e-08
-2.860246554e-08
-1.905508138e-08
-1.242122957e-08
-7.824322014e-09
-5.011500925e-09
-3.082451624e-09
-1.757426022e-09
-9.580638821e-10
-5.123881888e-10
-2.629393116e-10
-1.358266187e-10
-6.424768627e-11
-2.885661165e-11
-1.189346174e-11
-4.582589771e-12
-1.499851081e-12
-3.333162492e-13
-1.405850489e-14
2.335860859e-14
-2.309571292e-15
3.34678315e-17
1.674648007e-15
4.638726483e-16
-8.164062999e-17
-1.411517499e-16
-6.693642057e-17
-4.846743741e-17
-3.869173395e-17
-1.496879223e-18
-1.428413414e-17
-6.945135944e-17
-4.666589129e-16
1.173237371e-11
)


101
(
-3.892472162e-16
1.82782553e-08
-5.113336162e-09
-6.482049686e-07
-3.096815011e-06
-7.10698653e-06
-1.135373907e-05
-1.766969536e-05
-2.522501796e-05
-3.42728612e-05
-4.490269619e-05
-5.736282411e-05
-7.186644393e-05
-8.794946106e-05
-0.000105545963
-0.0001240571125
-0.0001426057931
-0.0001599492315
-0.000176176397
-0.0001894019685
-0.0001995553243
-0.0002060572795
-0.0002087785957
-0.0002076969673
-0.0002030379429
-0.0001953489296
-0.0001852486919
-0.0001733312913
-0.0001603239279
-0.0001467468842
-0.0001331787586
-0.0001202674336
-0.0001081220268
-9.688471554e-05
-8.571515226e-05
-7.348280205e-05
-6.728904363e-05
-5.83195519e-05
-5.092095747e-05
-4.572448174e-05
-4.065868358e-05
-3.548249311e-05
-3.068915119e-05
-2.636517284e-05
-2.255329673e-05
-1.93034298e-05
-1.651314039e-05
-1.411195683e-05
-1.201615985e-05
-1.020813393e-05
-8.625958697e-06
-7.248730604e-06
-6.048725478e-06
-5.007900544e-06
-4.129374658e-06
-3.410886788e-06
-2.786385433e-06
-2.266518872e-06
-1.830969135e-06
-1.466842611e-06
-1.168626019e-06
-9.242385803e-07
-7.230325259e-07
-5.603121414e-07
-4.302386436e-07
-3.26458776e-07
-2.448367903e-07
-1.80003081e-07
-1.318960454e-07
-9.524610247e-08
-6.748219931e-08
-4.655931256e-08
-3.221007365e-08
-2.186321205e-08
-1.413670334e-08
-8.788120733e-09
-5.387060732e-09
-3.197572265e-09
-1.872735141e-09
-1.056487872e-09
-5.807603986e-10
-3.037350185e-10
-1.529923302e-10
-7.330173452e-11
-3.265295158e-11
-1.328602247e-11
-4.906533484e-12
-2.072738596e-12
-9.108179774e-13
-3.224395695e-13
-9.496147017e-14
-3.639580016e-14
-1.459664902e-14
-6.447085077e-15
-3.612180964e-15
-2.048728107e-15
-1.432223297e-16
-2.364445362e-15
-1.19676917e-14
-8.880697626e-14
-2.402820413e-11
)


101
(
-4.14492529e-16
1.9468775e-08
4.368975247e-08
-1.919702702e-07
-1.13484609e-06
-2.73427674e-06
-4.819730329e-06
-8.279453353e-06
-1.326658725e-05
-2.027299578e-05
-2.961523701e-05
-4.15355989e-05
-5.624586324e-05
-7.332576171e-05
-9.253295687e-05
-0.0001132697388
-0.0001346408701
-0.0001555131777
-0.0001753658673
-0.0001928608295
-0.0002073693535
-0.0002182351444
-0.0002252899364
-0.0002283118539
-0.0002273238337
-0.0002227090252
-0.0002150428662
-0.0002049229652
-0.0001930351673
-0.0001799383718
-0.0001660533422
-0.000152692438
-0.0001397520703
-0.000127963425
-0.0001156934998
-0.0001048632852
-9.390016597e-05
-8.321491188e-05
-7.411677798e-05
-6.672152469e-05
-6.031149944e-05
-5.406342867e-05
-4.805849498e-05
-4.234073585e-05
-3.710053932e-05
-3.250200724e-05
-2.842909349e-05
-2.485230286e-05
-2.167396178e-05
-1.889831846e-05
-1.641975952e-05
-1.420963721e-05
-1.221914224e-05
-1.044095623e-05
-8.873732603e-06
-7.517563784e-06
-6.358340985e-06
-5.352614082e-06
-4.484904057e-06
-3.718318146e-06
-3.071268591e-06
-2.524939914e-06
-2.057130399e-06
-1.666541505e-06
-1.342270552e-06
-1.064938541e-06
-8.372684063e-07
-6.517193177e-07
-5.032779236e-07
-3.863358899e-07
-2.902230848e-07
-2.146059557e-07
-1.580329887e-07
-1.152176069e-07
-8.115334452e-08
-5.5620384e-08
-3.751189844e-08
-2.477068506e-08
-1.606742256e-08
-1.011288862e-08
-6.283883719e-09
-3.78600971e-09
-2.18996917e-09
-1.237928507e-09
-6.689562052e-10
-3.44369462e-10
-1.653381842e-10
-7.850999867e-11
-3.817731564e-11
-1.774809254e-11
-7.163206484e-12
-2.946217725e-12
-1.215534269e-12
-4.844143166e-13
-2.496393011e-13
-1.203977588e-13
-1.37670626e-14
-1.950100352e-13
-9.604526585e-13
-8.101369986e-12
-5.69923655e-10
)


101
(
-4.372865837e-16
1.93091282e-08
6.119601532e-08
-2.803075409e-08
-4.89884856e-07
-1.43532955e-06
-3.062803507e-06
-5.982586078e-06
-1.056610252e-05
-1.731876649e-05
-2.657935329e-05
-3.85879778e-05
-5.356481129e-05
-7.120314193e-05
-9.126064579e-05
-0.0001132386662
-0.0001363144814
-0.0001594679779
-0.0001820350743
-0.0002027897267
-0.0002209273245
-0.0002357382749
-0.0002468805617
-0.000253967436
-0.0002568478558
-0.0002556946224
-0.0002509108998
-0.0002431202288
-0.0002329316961
-0.0002208549246
-0.0002075235518
-0.0001936218712
-0.0001801216202
-0.0001679012817
-0.0001550820416
-0.0001428608362
-0.0001303420029
-0.000117687018
-0.000106296207
-9.686912498e-05
-8.867709073e-05
-8.109330081e-05
-7.375952034e-05
-6.653072994e-05
-5.961019238e-05
-5.326743177e-05
-4.751393026e-05
-4.239669277e-05
-3.778869211e-05
-3.368199253e-05
-2.992166586e-05
-2.650052582e-05
-2.334899077e-05
-2.047569616e-05
-1.787071374e-05
-1.554609256e-05
-1.347851686e-05
-1.164577233e-05
-1.007277823e-05
-8.619636262e-06
-7.308699702e-06
-6.21337559e-06
-5.222778808e-06
-4.37808867e-06
-3.662064935e-06
-3.028571127e-06
-2.482684094e-06
-2.020235678e-06
-1.621424222e-06
-1.308680235e-06
-1.035308198e-06
-8.088165483e-07
-6.272460598e-07
-4.831583909e-07
-3.621056595e-07
-2.65874735e-07
-1.944323476e-07
-1.395632941e-07
-9.787733237e-08
-6.688472716e-08
-4.520863529e-08
-3.03696541e-08
-1.954789442e-08
-1.236356284e-08
-7.583302849e-09
-4.514339702e-09
-2.542676142e-09
-1.398671593e-09
-7.605185483e-10
-4.080246287e-10
-2.03192442e-10
-9.539156965e-11
-4.621818776e-11
-2.113694049e-11
-1.104800942e-11
-5.178245075e-12
-8.727090458e-13
-1.150775983e-11
-5.03222254e-11
-3.590166337e-10
-1.362784608e-08
)


101
(
-4.576430112e-16
1.856224608e-08
6.613045419e-08
2.980483152e-08
-2.744274875e-07
-1.030469276e-06
-2.535779711e-06
-5.30548032e-06
-9.758187002e-06
-1.639742259e-05
-2.558725835e-05
-3.760594266e-05
-5.271071311e-05
-7.073011247e-05
-9.14652703e-05
-0.0001145319267
-0.0001392122982
-0.0001645626828
-0.0001898799668
-0.0002139800398
-0.0002359540672
-0.000255022305
-0.0002707829246
-0.0002826031678
-0.0002901238555
-0.0002933097895
-0.0002922787982
-0.000287620468
-0.0002799868851
-0.000269795485
-0.0002576010257
-0.0002440670015
-0.0002300950928
-0.0002175826254
-0.0002047944196
-0.0001917074908
-0.0001778422998
-0.0001634407233
-0.0001499745124
-0.0001384461165
-0.000128409808
-0.0001192502668
-0.0001103194129
-0.0001015044151
-9.270514484e-05
-8.426080654e-05
-7.641577357e-05
-6.94534991e-05
-6.318541477e-05
-5.74034409e-05
-5.205112051e-05
-4.69628069e-05
-4.221460549e-05
-3.78058954e-05
-3.385259853e-05
-3.01224482e-05
-2.668192372e-05
-2.360762778e-05
-2.086421532e-05
-1.831244346e-05
-1.599518409e-05
-1.398020327e-05
-1.211413899e-05
-1.042808926e-05
-8.972516883e-06
-7.675111016e-06
-6.510709679e-06
-5.490468085e-06
-4.580827199e-06
-3.808252127e-06
-3.14070948e-06
-2.568951361e-06
-2.089583355e-06
-1.686571912e-06
-1.329654628e-06
-1.031564767e-06
-8.013199327e-07
-6.11627535e-07
-4.596769355e-07
-3.372772588e-07
-2.443669727e-07
-1.761965809e-07
-1.240057322e-07
-8.541349609e-08
-5.780531354e-08
-3.818495023e-08
-2.428256183e-08
-1.493917143e-08
-9.099198798e-09
-5.472348004e-09
-3.138367617e-09
-1.696498955e-09
-9.286969995e-10
-4.90543907e-10
-2.769354845e-10
-1.447156926e-10
-3.409088269e-11
-3.637688098e-10
-1.421859505e-09
-8.253319435e-09
4.161259756e-08
)


101
(
-4.755700954e-16
1.757743919e-08
6.606962213e-08
4.932509e-08
-1.983789727e-07
-8.852426347e-07
-2.327014176e-06
-5.002163326e-06
-9.346785908e-06
-1.586727272e-05
-2.496303043e-05
-3.695978281e-05
-5.216422489e-05
-7.052851779e-05
-9.193018664e-05
-0.0001160805663
-0.0001423864894
-0.0001699825564
-0.0001981680225
-0.0002257753471
-0.0002518366621
-0.0002755032441
-0.000296389849
-0.0003135403848
-0.0003263629943
-0.0003346873868
-0.0003383544764
-0.0003378060593
-0.000333658957
-0.0003263314264
-0.0003162522076
-0.0003040643871
-0.0002907349986
-0.0002781068316
-0.0002656417042
-0.0002528735007
-0.0002387705841
-0.0002231019869
-0.000207757615
-0.0001944273199
-0.0001822944762
-0.0001711629004
-0.0001607773652
-0.0001504673971
-0.0001399064927
-0.0001293567657
-0.0001190630064
-0.0001096464987
-0.0001012563245
-9.356106358e-05
-8.653927012e-05
-7.935545291e-05
-7.252634805e-05
-6.626124205e-05
-6.044376539e-05
-5.483434752e-05
-4.970638247e-05
-4.491202383e-05
-4.050864382e-05
-3.629393258e-05
-3.235777328e-05
-2.889148274e-05
-2.565031739e-05
-2.266913567e-05
-1.997740777e-05
-1.75413681e-05
-1.527055317e-05
-1.329264944e-05
-1.146737121e-05
-9.854228447e-06
-8.423458662e-06
-7.128037452e-06
-6.011894244e-06
-5.036350523e-06
-4.149070517e-06
-3.367725032e-06
-2.737266946e-06
-2.196145217e-06
-1.749986275e-06
-1.366491093e-06
-1.050657807e-06
-7.989385846e-07
-6.033323671e-07
-4.44760693e-07
-3.242633007e-07
-2.321881317e-07
-1.62048613e-07
-1.09654972e-07
-7.344219541e-08
-4.830650529e-08
-3.084996313e-08
-1.876683403e-08
-1.153724391e-08
-6.881844333e-09
-4.281562669e-09
-2.475537009e-09
-7.894004e-10
-6.290323779e-09
-2.184854161e-08
-1.057870411e-07
1.005990893e-06
)


101
(
-4.910736055e-16
1.651555854e-08
6.40687911e-08
5.506769625e-08
-1.67423172e-07
-8.156689825e-07
-2.202595307e-06
-4.789670475e-06
-9.026864862e-06
-1.542593962e-05
-2.442539832e-05
-3.639858593e-05
-5.170403893e-05
-7.041559849e-05
-9.24829924e-05
-0.0001177212282
-0.0001456677051
-0.0001755400697
-0.0002066705025
-0.0002379082757
-0.0002682649317
-0.0002968389814
-0.0003232424154
-0.0003462449132
-0.0003649243985
-0.0003790409345
-0.0003883738065
-0.0003931837723
-0.0003939186264
-0.0003908765732
-0.0003843805402
-0.0003749969325
-0.0003635504462
-0.0003518968295
-0.0003406199363
-0.0003289363078
-0.000314923793
-0.0002982658252
-0.0002818802958
-0.0002671458602
-0.0002533548159
-0.0002412292548
-0.0002293326366
-0.0002172767944
-0.0002047921745
-0.0001921741762
-0.0001795276571
-0.0001675205332
-0.0001571157298
-0.0001472675748
-0.0001378427963
-0.0001283797022
-0.0001194019543
-0.0001102970762
-0.0001021942807
-9.467517742e-05
-8.72704237e-05
-8.028509237e-05
-7.37275926e-05
-6.737401869e-05
-6.131291096e-05
-5.583770561e-05
-5.045858108e-05
-4.552215732e-05
-4.097786701e-05
-3.687087165e-05
-3.300850128e-05
-2.946005061e-05
-2.61352495e-05
-2.296720022e-05
-2.015620781e-05
-1.751222718e-05
-1.529680631e-05
-1.328281368e-05
-1.132815391e-05
-9.561547442e-06
-8.069035963e-06
-6.733153783e-06
-5.601184938e-06
-4.575475819e-06
-3.714756339e-06
-2.962666292e-06
-2.363623723e-06
-1.844513681e-06
-1.428951133e-06
-1.084585339e-06
-8.174265229e-07
-5.974591098e-07
-4.323489239e-07
-3.075467116e-07
-2.138729251e-07
-1.444582114e-07
-9.709264129e-08
-6.40199622e-08
-4.324949706e-08
-2.73146704e-08
-1.142194735e-08
-6.808446509e-08
-2.081186758e-07
-8.185474187e-07
-1.927409851e-05
)


101
(
-5.041581314e-16
1.544984075e-08
6.135135253e-08
5.588019626e-08
-1.511262175e-07
-7.68626176e-07
-2.102395474e-06
-4.603657318e-06
-8.733759902e-06
-1.501061037e-05
-2.391736638e-05
-3.587104643e-05
-5.128590391e-05
-7.033998021e-05
-9.307176315e-05
-0.0001193950962
-0.0001489904565
-0.0001811589231
-0.0002152924494
-0.0002502809205
-0.0002851201132
-0.0003187878618
-0.0003507188142
-0.0003800843415
-0.0004051431252
-0.0004257851463
-0.0004418197204
-0.0004532457571
-0.0004602228835
-0.0004628482776
-0.0004613604301
-0.0004564756893
-0.0004490667738
-0.0004396196067
-0.0004299666889
-0.0004197451865
-0.0004070122218
-0.0003911897639
-0.0003754641211
-0.0003605994144
-0.000346099494
-0.000332000314
-0.0003189419815
-0.0003054605556
-0.0002912349613
-0.0002766935742
-0.0002619267685
-0.0002480912738
-0.0002358575536
-0.0002236683456
-0.000211790647
-0.0002000669664
-0.0001888525437
-0.0001773408946
-0.0001667766989
-0.0001564052174
-0.0001466278209
-0.0001364510458
-0.0001271801379
-0.0001183743599
-0.0001095046739
-0.0001015743261
-9.347903108e-05
-8.595091283e-05
-7.888861867e-05
-7.225677269e-05
-6.603253786e-05
-6.004389009e-05
-5.437402368e-05
-4.903700723e-05
-4.412415235e-05
-3.944322332e-05
-3.517021023e-05
-3.12973422e-05
-2.752597018e-05
-2.404526067e-05
-2.091976833e-05
-1.802630638e-05
-1.556929328e-05
-1.323359489e-05
-1.112315774e-05
-9.296224853e-06
-7.712152193e-06
-6.350829261e-06
-5.145810128e-06
-4.112943568e-06
-3.286483325e-06
-2.55992341e-06
-1.973185802e-06
-1.494631606e-06
-1.115176991e-06
-8.14250478e-07
-5.900449206e-07
-4.231749292e-07
-3.091482052e-07
-2.107776303e-07
-1.067757286e-07
-5.011868395e-07
-1.351688495e-06
-4.285185566e-06
-0.0002479384601
)


101
(
-5.148276034e-16
1.441225475e-08
5.841816902e-08
5.49839317e-08
-1.396962328e-07
-7.289340767e-07
-2.010922826e-06
-4.428761107e-06
-8.453732978e-06
-1.460898911e-05
-2.342657669e-05
-3.536064438e-05
-5.088318541e-05
-7.026604574e-05
-9.364269444e-05
-0.0001210249237
-0.0001522486601
-0.000186703166
-0.0002238285489
-0.0002625797302
-0.00030201159
-0.0003410094774
-0.0003787288562
-0.000414882593
-0.0004468768895
-0.0004749510348
-0.0004989502159
-0.0005183560169
-0.000532824716
-0.0005425194301
-0.0005474982359
-0.0005482367507
-0.0005460209002
-0.0005405670451
-0.0005339340296
-0.0005263556045
-0.0005164477438
-0.0005035448369
-0.0004901181969
-0.0004757335521
-0.0004617827426
-0.0004463657942
-0.0004329623246
-0.0004183927582
-0.0004031965455
-0.0003880700121
-0.0003724471239
-0.0003570671211
-0.0003429324785
-0.0003284486962
-0.0003145389719
-0.0003012433316
-0.0002879577015
-0.000274805361
-0.0002606438465
-0.0002472374526
-0.0002353566609
-0.0002223961179
-0.0002102906701
-0.0001984398053
-0.0001863895075
-0.000175134333
-0.0001641226576
-0.0001533989981
-0.0001429318254
-0.0001326864502
-0.0001235724811
-0.0001142959905
-0.0001056813177
-9.721309261e-05
-8.917469991e-05
-8.130245766e-05
-7.415411609e-05
-6.752520615e-05
-6.094059029e-05
-5.449641475e-05
-4.865386215e-05
-4.318155867e-05
-3.828902424e-05
-3.360779036e-05
-2.9177482e-05
-2.528245191e-05
-2.169982031e-05
-1.857112501e-05
-1.570877882e-05
-1.306941861e-05
-1.088187685e-05
-8.902489274e-06
-7.206989126e-06
-5.790641615e-06
-4.546956659e-06
-3.546539847e-06
-2.738466678e-06
-2.094454431e-06
-1.633045349e-06
-1.199195845e-06
-7.091336112e-07
-2.621109209e-06
-6.29985145e-06
-1.668107608e-05
3.222600066e-06
)


101
(
-5.231364317e-16
1.341716219e-08
5.545412333e-08
5.35130751e-08
-1.300192194e-07
-6.92254639e-07
-1.92422414e-06
-4.261315713e-06
-8.181866073e-06
-1.421652468e-05
-2.294825562e-05
-3.485689765e-05
-5.047748282e-05
-7.016983754e-05
-9.416141673e-05
-0.0001225635242
-0.0001553449122
-0.0001920218086
-0.0002320755262
-0.0002745896707
-0.0003187997068
-0.0003634899781
-0.0004077361175
-0.0004513460933
-0.000491699828
-0.0005285694593
-0.0005612739693
-0.0005892517668
-0.0006119734168
-0.0006298336172
-0.0006424924001
-0.0006499152171
-0.000653337384
-0.0006538789856
-0.0006522932055
-0.0006490108489
-0.0006435967724
-0.0006360037144
-0.0006271602918
-0.0006140478397
-0.0006023829969
-0.0005882679097
-0.0005748381468
-0.0005615038437
-0.0005473076211
-0.0005327023126
-0.0005167040984
-0.0005004612245
-0.0004849272657
-0.0004695654511
-0.0004541231179
-0.0004390909294
-0.0004248645087
-0.0004099341345
-0.0003925089142
-0.0003785990742
-0.0003637795752
-0.0003489478888
-0.0003331187212
-0.0003186818108
-0.0003034584303
-0.0002888822249
-0.0002743058655
-0.0002596865894
-0.0002458247857
-0.0002317008282
-0.000218187716
-0.0002051784991
-0.0001926095868
-0.0001801948097
-0.0001681806114
-0.0001561737201
-0.0001450457104
-0.0001344801821
-0.0001237217069
-0.0001128485975
-0.0001030634117
-9.380989424e-05
-8.484649007e-05
-7.632650234e-05
-6.826435127e-05
-6.070888392e-05
-5.369277974e-05
-4.734790946e-05
-4.138283781e-05
-3.558508462e-05
-3.062253273e-05
-2.613329054e-05
-2.205318154e-05
-1.844875101e-05
-1.517326489e-05
-1.244519344e-05
-1.00881285e-05
-8.148549471e-06
-6.678579852e-06
-5.197470297e-06
-3.471811967e-06
-1.045119369e-05
-2.250861055e-05
-5.111653387e-05
-2.71223019e-05
)


101
(
-5.291651879e-16
1.246962808e-08
5.254429966e-08
5.187999817e-08
-1.211116916e-07
-6.57311623e-07
-1.841191421e-06
-4.100489858e-06
-7.915191534e-06
-1.38273788e-05
-2.247919077e-05
-3.435387621e-05
-5.0060234e-05
-7.005128453e-05
-9.463057021e-05
-0.0001239999463
-0.0001582166684
-0.0001969359262
-0.0002397950197
-0.0002861031337
-0.0003353350723
-0.0003861886107
-0.0004376250581
-0.0004888414609
-0.0005376184018
-0.0005836305058
-0.0006258654833
-0.0006635181152
-0.0006958240692
-0.0007233138399
-0.0007451961298
-0.0007609814158
-0.0007722566032
-0.000780657402
-0.0007865608854
-0.000790110819
-0.0007913682935
-0.0007898884322
-0.0007863216046
-0.0007778170091
-0.0007701363398
-0.0007599484157
-0.000748533092
-0.0007380815007
-0.0007267248961
-0.0007147813434
-0.0007006259797
-0.000685055952
-0.0006697352327
-0.0006547531446
-0.0006395623625
-0.0006239793913
-0.0006090389014
-0.0005937229688
-0.0005762654665
-0.0005610972126
-0.0005445536551
-0.0005272841946
-0.0005090433103
-0.0004923081275
-0.0004742853039
-0.0004568098982
-0.0004394313762
-0.0004211110176
-0.0004021306906
-0.0003851028883
-0.0003674553107
-0.0003498194975
-0.0003332434429
-0.0003155363698
-0.0002987367396
-0.0002819303092
-0.0002655395109
-0.0002498682359
-0.0002336257248
-0.0002171623026
-0.0002018950022
-0.0001868030845
-0.0001727609991
-0.0001583946146
-0.0001445296911
-0.0001314240674
-0.0001190398089
-0.000107162399
-9.616762823e-05
-8.530834186e-05
-7.522583228e-05
-6.609650187e-05
-5.76002935e-05
-4.969132243e-05
-4.247477572e-05
-3.623026045e-05
-3.05352053e-05
-2.561703079e-05
-2.18922229e-05
-1.788854021e-05
-1.310263781e-05
-3.320237132e-05
-6.449265319e-05
-0.0001279483901
0.001700664645
)


101
(
-5.327894943e-16
1.156965654e-08
4.97212078e-08
5.022547253e-08
-1.126610282e-07
-6.23708762e-07
-1.761110467e-06
-3.945172893e-06
-7.654490552e-06
-1.344255863e-05
-2.201159548e-05
-3.38431226e-05
-4.961423324e-05
-6.986893556e-05
-9.498266095e-05
-0.0001252528063
-0.0001608196609
-0.0002014753641
-0.0002470454988
-0.000297095857
-0.000351299078
-0.0004083691829
-0.0004671161336
-0.0005261125376
-0.0005835476031
-0.0006389529111
-0.0006914899943
-0.0007402597854
-0.0007842111472
-0.0008231265424
-0.0008556983402
-0.0008818260371
-0.0009035107553
-0.0009226488664
-0.0009385204242
-0.000950963245
-0.0009600376402
-0.0009658763636
-0.0009698842968
-0.0009694660538
-0.0009678470153
-0.0009643160054
-0.0009576098427
-0.0009522871814
-0.0009464522228
-0.0009386816878
-0.0009286320431
-0.0009172254985
-0.0009042044328
-0.0008941541358
-0.0008810242458
-0.0008653151003
-0.0008525095644
-0.0008383476043
-0.0008218065384
-0.0008051473356
-0.000790464168
-0.000771941713
-0.0007543364221
-0.0007357248422
-0.0007171417492
-0.0006976199365
-0.0006777540819
-0.0006559866877
-0.0006346354637
-0.0006137835878
-0.0005916763013
-0.0005708773053
-0.0005478080365
-0.0005257954645
-0.0005036622704
-0.0004819114616
-0.0004594279058
-0.0004374368227
-0.0004144399294
-0.0003903574146
-0.0003679402439
-0.0003465013047
-0.0003246727906
-0.000302729262
-0.000280873447
-0.0002603055164
-0.0002395580059
-0.0002193779162
-0.000200753184
-0.0001824200678
-0.0001639778394
-0.0001473344416
-0.0001313449783
-0.0001163229763
-0.0001023020828
-8.971185874e-05
-7.789432129e-05
-6.748496703e-05
-5.929263456e-05
-5.027645301e-05
-3.9260186e-05
-8.626113257e-05
-0.0001535862277
-0.0002734651652
0.002427161273
)


101
(
-5.340124641e-16
1.071806865e-08
4.698088366e-08
4.859829936e-08
-1.045693793e-07
-5.913360937e-07
-1.683680217e-06
-3.794805908e-06
-7.399603463e-06
-1.306187596e-05
-2.153314333e-05
-3.332732024e-05
-4.913404829e-05
-6.959515036e-05
-9.516584617e-05
-0.0001262455435
-0.0001631396269
-0.0002057679256
-0.0002541157593
-0.0003084770571
-0.0003674900559
-0.0004303397632
-0.0004956570904
-0.0005622986472
-0.0006286732324
-0.0006937471177
-0.0007573542383
-0.0008183511393
-0.0008752361381
-0.0009269786077
-0.0009716978104
-0.001009987306
-0.001045018678
-0.001077250035
-0.00110540593
-0.001129195922
-0.00114936163
-0.001165867366
-0.001179369397
-0.001189158954
-0.001196801461
-0.001202906594
-0.001206320026
-0.00120843339
-0.001209320085
-0.00120977201
-0.001207784972
-0.001202002957
-0.001196481525
-0.001192914611
-0.001183684374
-0.001172574959
-0.001165229684
-0.001155056609
-0.001142605988
-0.001129294418
-0.001117551506
-0.001103082402
-0.00108587193
-0.001068432636
-0.001052354439
-0.001033655417
-0.001011250716
-0.0009877436239
-0.0009666940426
-0.0009420081599
-0.0009182757137
-0.0008915627155
-0.0008656925478
-0.0008397533233
-0.0008116080276
-0.0007843520828
-0.0007561887441
-0.0007273900457
-0.00069648355
-0.0006636399393
-0.0006338063805
-0.0006029945318
-0.0005716375026
-0.0005406364678
-0.0005075927771
-0.0004760317494
-0.0004450475819
-0.0004130891451
-0.0003818423732
-0.0003527398834
-0.0003234907339
-0.0002945856553
-0.0002676960477
-0.0002420588047
-0.0002169531575
-0.0001946046196
-0.000172175079
-0.0001524996966
-0.0001369718362
-0.0001193045798
-9.706572826e-05
-0.0001888216698
-0.000311106899
-0.0005144230772
-0.003637439194
)


101
(
-5.328370798e-16
9.91474997e-09
4.428160849e-08
4.702018987e-08
-9.681317385e-08
-5.600950864e-07
-1.608657401e-06
-3.648907617e-06
-7.150581025e-06
-1.268550855e-05
-2.10441111e-05
-3.279999271e-05
-4.861413666e-05
-6.921900492e-05
-9.517465484e-05
-0.0001269735814
-0.0001651431007
-0.0002097791385
-0.0002609485837
-0.0003197056076
-0.0003831051462
-0.000451349362
-0.0005230521714
-0.0005972968522
-0.0006727353071
-0.0007479271752
-0.000823470532
-0.000897338324
-0.0009675934152
-0.001032959161
-0.001092448444
-0.001146274663
-0.001195926428
-0.001244224521
-0.001286712431
-0.001324159542
-0.001358246279
-0.001389026208
-0.001416432589
-0.001438321793
-0.001459942539
-0.001479749756
-0.001495616368
-0.001510212219
-0.001523331553
-0.001534613589
-0.001542166568
-0.001548013924
-0.001553381668
-0.001559326461
-0.001558892666
-0.001556659716
-0.001558827778
-0.001556513785
-0.001554404214
-0.001550066577
-0.001543887001
-0.001537296882
-0.00152593663
-0.001514509824
-0.001499961494
-0.001485622796
-0.00146376971
-0.001444510558
-0.00142649332
-0.001400048583
-0.001374536484
-0.001346273252
-0.0013207647
-0.001291091384
-0.00125730629
-0.00122583962
-0.00119122573
-0.001157275471
-0.001118937036
-0.001075239335
-0.001035935155
-0.0009917627416
-0.0009522580155
-0.0009074171626
-0.0008603793859
-0.0008155160779
-0.0007696464403
-0.0007226260909
-0.0006767720661
-0.0006301033497
-0.0005852193239
-0.0005395467658
-0.0004960812376
-0.0004551209459
-0.0004125139234
-0.0003754364414
-0.0003377168914
-0.0003035634164
-0.0002770452888
-0.0002451267029
-0.000205151787
-0.000365014417
-0.0005694117512
-0.0008915499426
0.01059609186
)


101
(
-5.292662105e-16
9.158831617e-09
4.150570602e-08
4.54918923e-08
-8.93824432e-08
-5.299385923e-07
-1.535867945e-06
-3.50700758e-06
-6.910091808e-06
-1.231827697e-05
-2.054507384e-05
-3.224855149e-05
-4.80434003e-05
-6.874933455e-05
-9.504358748e-05
-0.0001275003778
-0.0001668427629
-0.0002133106918
-0.0002671199283
-0.0003298534903
-0.0003972228807
-0.000470502808
-0.0005490571343
-0.0006310096607
-0.0007160287858
-0.000802304376
-0.0008900717825
-0.0009765511768
-0.001060082577
-0.001139920583
-0.001215956104
-0.001287745758
-0.001354320542
-0.001420745474
-0.001479913063
-0.001533598393
-0.001584678982
-0.00163282015
-0.001679069856
-0.001721307499
-0.001758547293
-0.001794932805
-0.001830645572
-0.001862144344
-0.001889654331
-0.00191588952
-0.001939913219
-0.00196407895
-0.001982996417
-0.002001880298
-0.002018201394
-0.002032347381
-0.00204605197
-0.002059871846
-0.002071806331
-0.002078201028
-0.002086725176
-0.002095402445
-0.00209392797
-0.002091174977
-0.002087017548
-0.002081137142
-0.002067338474
-0.002059443549
-0.002040761436
-0.002024691303
-0.002004837503
-0.001975945935
-0.001949335205
-0.001915585676
-0.001882334684
-0.001847409667
-0.001809274201
-0.001771767856
-0.00172776591
-0.001672160972
-0.001615855568
-0.001563377364
-0.001509610403
-0.001448360828
-0.001386378194
-0.001324765324
-0.001255860648
-0.00119060008
-0.001123617148
-0.001055253026
-0.0009882786664
-0.0009201573134
-0.0008520741915
-0.000787797838
-0.0007217035874
-0.0006613193825
-0.0006030352063
-0.0005468107793
-0.0005042511121
-0.00045226344
-0.000387337886
-0.0006432379579
-0.0009646218836
-0.001476132435
0.01049241732
)


101
(
-5.233025484e-16
8.445142902e-09
3.94047991e-08
4.400388524e-08
-8.228023348e-08
-5.008356705e-07
-1.465165655e-06
-3.368539752e-06
-6.679380844e-06
-1.196841882e-05
-2.003634673e-05
-3.166112783e-05
-4.740470688e-05
-6.819668499e-05
-9.485234153e-05
-0.0001280291825
-0.000168515556
-0.0002166790096