/*--------------------------------*- C++ -*----------------------------------*\
| =========                 |                                                 |
| \\      /  F ield         | OpenFOAM: The Open Source CFD Toolbox           |
|  \\    /   O peration     | Version:  2.3.1                                 |
|   \\  /    A nd           | Web:      www.OpenFOAM.org                      |
|    \\/     M anipulation  |                                                 |
\*---------------------------------------------------------------------------*/
FoamFile
{
    version     2.0;
    format      ascii;
    class       dictionary;
    location    "constant";
    object      la_r9;
}
// * * * * * * * * * * * * * * * * * * * * * * * * * * * * * * * * * * * * * //

la_r9_table
101
(

101
(
-0.008667574488
-2.512540296
-14.12843967
-36.2426876
-66.9143743
-103.5423564
-143.4685749
-183.9730601
-222.9108814
-258.4917208
-289.0406262
-313.3986727
-330.8695639
-340.6465811
-342.9834566
-338.3234695
-327.365176
-311.1971614
-291.2638542
-268.7898238
-245.0105547
-220.8524482
-197.4974162
-175.4395231
-155.0257422
-136.483212
-119.8649337
-105.103933
-92.16161359
-80.82075359
-70.9213986
-62.23850813
-54.47556527
-48.01395235
-42.27122484
-37.23709347
-33.6179387
-31.10786043
-27.40233935
-24.19094113
-21.38219032
-18.84567764
-16.62378435
-14.65397885
-12.88577851
-11.32840373
-9.937789295
-8.713782916
-7.623237641
-6.661056542
-5.805460777
-5.0482269
-4.378419535
-3.786905005
-3.263934539
-2.801417978
-2.401191215
-2.045309297
-1.737539534
-1.46746615
-1.233608837
-1.031432969
-0.8563148395
-0.7068405582
-0.5798719997
-0.4714399035
-0.3800726839
-0.3037654288
-0.240678403
-0.1885747762
-0.146268658
-0.1120024188
-0.08476270866
-0.06326449491
-0.04989646238
-0.03836006155
-0.02725320449
-0.01907491079
-0.01307458367
-0.008715955894
-0.005649365687
-0.003602890853
-0.002211138145
-0.001502709421
-0.0009496215492
-0.0005295526206
-0.0002829475666
-0.0001446228529
-7.043272293e-05
-4.079300744e-05
-1.803102186e-05
-7.080291873e-06
-2.759789144e-06
-9.826326462e-07
-2.89780701e-07
-8.69567198e-08
2.698746573e-14
-2.407583944e-32
-1.536397488e-24
3.054511115e-24
-3.554063275e-31
)


101
(
-0.008626721967
-2.451067704
-13.74879108
-35.23370442
-64.9716963
-100.3825909
-138.8670639
-177.7886486
-215.095576
-249.0893061
-278.2295033
-301.4379677
-318.0996696
-327.5195481
-329.9155464
-325.7254143
-315.6088512
-300.5567905
-281.8953008
-260.7461366
-238.2983773
-215.4221006
-193.1255925
-171.9959217
-152.3708094
-134.4651743
-118.3542211
-103.9979672
-91.34506907
-80.23961648
-70.52215873
-62.00095543
-54.42682843
-47.92202711
-42.23490754
-37.23507844
-33.2717351
-30.35341351
-27.2600903
-24.1971747
-21.41663903
-18.91461062
-16.69569912
-14.73474299
-12.98925836
-11.44200927
-10.0660586
-8.846036216
-7.762196599
-6.801241207
-5.94841422
-5.191853958
-4.521224526
-3.926571602
-3.400034914
-2.934491564
-2.526625713
-2.16770304
-1.853433001
-1.578338567
-1.338200049
-1.12937825
-0.947940391
-0.7910808698
-0.6563890278
-0.5413128728
-0.443178801
-0.360024562
-0.2900497671
-0.2316764031
-0.183396879
-0.1437187416
-0.1113610391
-0.08506202023
-0.06505192751
-0.04979183291
-0.037301103
-0.02729551126
-0.0195575139
-0.0137053497
-0.009388969853
-0.006285108949
-0.004096157859
-0.002639160618
-0.001683484984
-0.001044496221
-0.0006257192595
-0.0003568161933
-0.0001955347106
-0.0001050050436
-5.391158154e-05
-2.708540245e-05
-1.297965601e-05
-5.795851854e-06
-2.662061168e-06
-1.157566112e-06
-2.027024472e-07
-2.200947363e-07
-2.53934918e-07
-5.556824277e-07
-8.763429211e-07
)


101
(
-0.008585942849
-2.390528132
-13.37642415
-34.24656723
-63.0777481
-97.31524754
-134.4201311
-171.8397629
-207.6133847
-240.1310993
-267.9757139
-290.1463351
-306.0984016
-315.2330417
-317.7425435
-314.0493159
-304.7747998
-290.8231012
-273.4103908
-253.5617065
-232.4120997
-210.7819536
-189.5495719
-169.3338923
-150.4828964
-133.2070508
-117.5960272
-103.6335252
-91.26920055
-80.38376997
-70.834096
-62.45281637
-55.02692942
-48.54940291
-42.87806084
-37.88777732
-33.74205306
-30.49666082
-27.5526219
-24.68477003
-21.98283184
-19.50603555
-17.28286986
-15.3072732
-13.55133318
-11.99276943
-10.60639532
-9.372180622
-8.27261156
-7.293428517
-6.421607787
-5.645542182
-4.955192172
-4.340818986
-3.793861264
-3.30738704
-2.87654833
-2.495571175
-2.159457561
-1.863024057
-1.60213138
-1.372819174
-1.171462523
-0.9953326838
-0.8419451429
-0.7088697582
-0.5935090132
-0.4939140302
-0.4083959761
-0.3352403876
-0.2732154838
-0.2208311212
-0.1770741292
-0.1404431952
-0.110321829
-0.08605344398
-0.06650645658
-0.05078737037
-0.0382511264
-0.02834418785
-0.02065667982
-0.01477513789
-0.0103595309
-0.007105915105
-0.004770141013
-0.003130976506
-0.002038835075
-0.001300438229
-0.0007983927433
-0.0004779906751
-0.0002761827263
-0.0001526274634
-8.65121435e-05
-4.600691472e-05
-2.471318309e-05
-1.295568164e-05
-3.575745643e-06
-5.479529785e-06
-8.463484899e-06
-1.756706914e-05
-2.75709984e-05
)


101
(
-0.008545237109
-2.330910846
-13.01119639
-33.28072489
-61.23084961
-94.33617813
-130.119327
-166.1112232
-200.4396947
-231.5800282
-258.2279707
-279.4559797
-294.7810413
-303.6873345
-306.3486567
-303.1667015
-294.7250119
-281.8498385
-265.6560093
-247.0786372
-227.19345
-206.7760175
-186.6045398
-167.295848
-149.2102849
-132.560951
-117.4485147
-103.8764237
-91.80259745
-81.13211961
-71.74164434
-63.48614942
-56.18168212
-49.76221567
-44.11009393
-39.10377922
-34.85605873
-31.37139669
-28.37620454
-25.60655842
-22.98992126
-20.54952133
-18.32335665
-16.32192175
-14.53443685
-12.94461971
-11.52803124
-10.26357812
-9.131734614
-8.118608885
-7.211054109
-6.398802556
-5.672259535
-5.022042778
-4.439626776
-3.918158918
-3.451289697
-3.03418478
-2.662688602
-2.331585362
-2.037165743
-1.775433518
-1.542797219
-1.336423905
-1.153745195
-0.9923550526
-0.8500297308
-0.7246449029
-0.6149216567
-0.5189430023
-0.4353535262
-0.3627995119
-0.3004262994
-0.2468228025
-0.2009811964
-0.1622156231
-0.1297558826
-0.1028035007
-0.08063595749
-0.06256373019
-0.0479738817
-0.03624681445
-0.02695763443
-0.01968897463
-0.01409682538
-0.009879444289
-0.00679259155
-0.004642400734
-0.003103030307
-0.002001761163
-0.001256466963
-0.0007719434514
-0.00047696911
-0.0002830674312
-0.0001669694093
-9.337375007e-05
-2.683561857e-05
-6.097987617e-05
-0.0001121153925
-0.0002551220946
-0.0004387424209
)


101
(
-0.008504604725
-2.272208638
-12.65300289
-32.3357427
-59.42967202
-91.44214398
-125.9580904
-160.5912555
-193.5553736
-223.4072184
-248.9461313
-269.3136277
-284.0807446
-292.8030995
-295.6414902
-292.9742581
-285.3473825
-273.5171074
-258.5056508
-241.164489
-222.5073883
-203.2685936
-184.1476537
-165.7406687
-148.4161393
-132.3930911
-117.7821024
-104.6034778
-92.8264286
-82.37417483
-73.14153707
-65.00492139
-57.80472392
-51.45480798
-45.83789058
-40.85038692
-36.51275953
-32.85253331
-29.74029051
-26.96762621
-24.39887969
-21.99405025
-19.77100813
-17.74404736
-15.91530496
-14.27941179
-12.81660126
-11.50707025
-10.3296743
-9.270038375
-8.314242142
-7.452689077
-6.676639235
-5.977639007
-5.34709339
-4.777686311
-4.263926535
-3.799597958
-3.381540591
-3.004398191
-2.665213298
-2.360292926
-2.086038702
-1.839666752
-1.618372191
-1.419362797
-1.240810625
-1.080899033
-0.938267486
-0.8111758728
-0.6977877629
-0.5970645502
-0.5081490846
-0.4299556995
-0.3612896986
-0.3012842835
-0.249127938
-0.2043599161
-0.1661726967
-0.1338947224
-0.1069243365
-0.08441981753
-0.0658336665
-0.05061058745
-0.03826320936
-0.02841812618
-0.02069189064
-0.01486621836
-0.01060468347
-0.007380203113
-0.004982011046
-0.00327562067
-0.002120094493
-0.001369202106
-0.0008750330433
-0.0005235010572
-0.0001955652615
-0.0004998486284
-0.0009240665124
-0.001944719725
-0.003133156461
)


101
(
-0.008464045663
-2.214414346
-12.30174068
-31.41119841
-57.67293927
-88.63006714
-121.9302483
-155.2689185
-186.9428365
-215.5864349
-240.0940873
-259.671963
-273.9386418
-282.5111942
-285.5413774
-283.3833726
-276.5464029
-265.7233151
-251.852145
-235.7071148
-218.2392551
-200.1438367
-182.0573327
-164.546078
-147.980413
-132.585984
-118.4826313
-105.7052289
-94.23530277
-84.01095479
-74.94365317
-66.92594337
-59.82193669
-53.54448175
-47.97163323
-43.00821064
-38.62668332
-34.84116457
-31.59951025
-28.76423355
-26.19459861
-23.8078741
-21.58929835
-19.54183546
-17.6711875
-15.98179194
-14.46186235
-13.09635391
-11.86397492
-10.7488787
-9.735938207
-8.815568237
-7.979842247
-7.221611941
-6.532978843
-5.906110684
-5.335624743
-4.814788954
-4.341137182
-3.908914768
-3.515355154
-3.157816002
-2.832486588
-2.536953688
-2.268441785
-2.023707473
-1.800613567
-1.597536148
-1.413252581
-1.246826277
-1.0957469
-0.9588083539
-0.8350891408
-0.7239051746
-0.6241989701
-0.5350531139
-0.455615465
-0.3852624504
-0.3231933918
-0.2690587455
-0.2222857805
-0.1822233822
-0.147801273
-0.1186081745
-0.09390553267
-0.07332444436
-0.05622364792
-0.04247754752
-0.03175319272
-0.02349936051
-0.01691328438
-0.01193815987
-0.008284124649
-0.005630638934
-0.003852742452
-0.002471799048
-0.001128396988
-0.002545676273
-0.004668815663
-0.01101874963
-0.01856672491
)


101
(
-0.008423559924
-2.157520952
-11.95730895
-30.50668241
-55.95942672
-85.8970242
-118.029996
-150.1340276
-180.5858712
-208.0937209
-231.6391424
-250.4885379
-264.3023405
-272.7504938
-275.9785002
-274.31675
-268.2390137
-258.3804159
-245.602735
-230.609288
-214.289111
-197.3000791
-180.2270867
-163.6033462
-147.7949266
-133.0329178
-119.4457202
-107.0807465
-95.93172347
-85.94969939
-77.06045887
-69.17093243
-62.16438523
-55.9625563
-50.44260883
-45.51290657
-41.11979343
-37.25539923
-33.90119581
-30.97788608
-28.3686647
-25.97476567
-23.75445543
-21.69091059
-19.78343057
-18.04091626
-16.45925493
-15.03076051
-13.7365323
-12.56005615
-11.48485268
-10.50019853
-9.5984443
-8.773624333
-8.019371091
-7.32782708
-6.693479438
-6.108931435
-5.571988512
-5.077249353
-4.622137159
-4.204099972
-3.819812618
-3.466809024
-3.142857105
-2.844722832
-2.56956809
-2.315574929
-2.081615698
-1.867065255
-1.67023183
-1.489344731
-1.323057744
-1.170598757
-1.031264934
-0.9043721909
-0.7892261789
-0.6847806472
-0.5902238829
-0.5053915482
-0.4299239488
-0.3635808339
-0.3049184301
-0.2535472183
-0.2087873831
-0.1699746918
-0.1364008109
-0.1079133755
-0.08445920096
-0.06567476219
-0.0500004126
-0.03728993557
-0.02758639336
-0.02000687593
-0.01454455343
-0.009738254541
-0.005053782556
-0.01233010696
-0.02235372427
-0.04718476338
-0.07530365599
)


101
(
-0.008383147454
-2.101521471
-11.61960833
-29.62179546
-54.28795825
-83.24024667
-114.2519065
-145.1771665
-174.4695619
-200.9072278
-223.5517558
-241.7253439
-255.1253563
-263.4671099
-266.8918825
-265.7072513
-260.3531739
-251.4122143
-239.6772054
-225.7867119
-210.5697446
-194.6479
-178.5628344
-162.8148504
-147.7608969
-133.635183
-120.5737155
-108.6347095
-97.82322382
-88.10185166
-79.40865401
-71.66309406
-64.76400112
-58.6453495
-53.18835658
-48.30477375
-43.92638014
-40.02419953
-36.5885144
-33.57806935
-30.90825065
-28.4847217
-26.25219908
-24.17435245
-22.23765779
-20.44883602
-18.80782159
-17.31428818
-15.9544355
-14.71333901
-13.57336052
-12.52225986
-11.55194734
-10.65690348
-9.83195605
-9.070619262
-8.367787974
-7.714799212
-7.109514536
-6.546553101
-6.023708993
-5.538631136
-5.088590911
-4.671322352
-4.2847682
-3.926144354
-3.592156027
-3.280567071
-2.989917278
-2.719685883
-2.469092915
-2.236318525
-2.019756328
-1.818142291
-1.630897084
-1.457556189
-1.29791014
-1.150783207
-1.015063011
-0.890344
-0.7764772892
-0.6738280284
-0.5812832693
-0.4978514619
-0.4233822258
-0.3569487787
-0.2976517739
-0.2451285533
-0.1999914101
-0.1619706423
-0.1297538812
-0.1016746024
-0.07912285496
-0.06083434184
-0.04636746337
-0.03342567292
-0.01967572841
-0.0455083541
-0.07916730092
-0.1541925865
-0.2359947812
)


101
(
-0.008342808258
-2.046409059
-11.28854179
-28.75615081
-52.65740602
-80.65710932
-110.5908976
-140.3896239
-168.580187
-194.0070356
-215.8052089
-233.3483782
-246.3664377
-254.6135923
-258.2282323
-257.4965461
-252.8265114
-244.7528469
-234.0061944
-221.1662654
-207.0049706
-192.1085857
-176.9814929
-162.0933899
-147.7888777
-134.3023962
-121.7761643
-110.2777136
-99.82226019
-90.3826997
-81.9076124
-74.32715258
-67.55289436
-61.53110656
-56.15020526
-51.32712809
-46.98680998
-43.08340748
-39.603241
-36.52494669
-33.79241894
-31.32717156
-29.0728676
-26.98038499
-25.0222166
-23.19769249
-21.50600708
-19.95197677
-18.52763833
-17.22186012
-16.01715237
-14.90053088
-13.86240271
-12.89670471
-11.999383
-11.16559654
-10.3912257
-9.666967647
-8.990537122
-8.356208059
-7.761865499
-7.205080526
-6.683807741
-6.196335721
-5.741014843
-5.315639994
-4.916927772
-4.541854991
-4.188409735
-3.855627253
-3.543666185
-3.251305743
-2.977173514
-2.719260052
-2.476420871
-2.248413626
-2.035554566
-1.83706097
-1.651453885
-1.477827899
-1.316099697
-1.167054696
-1.030502725
-0.9046841312
-0.7899519426
-0.6848946952
-0.589617225
-0.5019839817
-0.4242089496
-0.3559540802
-0.2962389693
-0.2422136053
-0.1972861406
-0.1593615556
-0.1274024119
-0.09831953176
-0.06375552354
-0.1345738265
-0.2215465619
-0.3961481644
-0.5766257649
)


101
(
-0.008302542268
-1.992176867
-10.96401348
-27.90937197
-51.06668403
-78.14510583
-107.0421579
-135.7632446
-162.9050571
-187.374895
-208.3752134
-225.3269925
-237.9887033
-246.147815
-249.9406507
-249.6336491
-245.6047724
-238.3452248
-228.5296493
-216.6844846
-203.5281641
-189.6127263
-175.4095853
-161.3609968
-147.7976832
-134.9515073
-122.9689169
-111.9253187
-101.8449643
-92.70996766
-84.4778702
-77.08771731
-70.46145032
-64.55633233
-59.26923263
-54.52416334
-50.24500265
-46.37414194
-42.88848662
-39.77350955
-36.99254222
-34.48601939
-32.20634781
-30.09986469
-28.12804775
-26.28063363
-24.55173442
-22.94782663
-21.46555203
-20.09910611
-18.83306461
-17.65461549
-16.55260519
-15.51973147
-14.55180141
-13.64556526
-12.79878329
-12.00212071
-11.25335793
-10.54629789
-9.878705788
-9.247643646
-8.651685848
-8.089475974
-7.560025461
-7.061931475
-6.592537327
-6.148531554
-5.727071514
-5.326284124
-4.946472871
-4.587283289
-4.247957977
-3.926484859
-3.621026212
-3.330806468
-3.056403628
-2.797993401
-2.554129537
-2.323241008
-2.104563835
-1.899590634
-1.70900968
-1.531114165
-1.365482223
-1.2109056
-1.068838995
-0.9351913689
-0.8129355714
-0.7028303918
-0.603314166
-0.5119624689
-0.432271397
-0.3629848877
-0.3017524903
-0.2438545929
-0.1744270687
-0.3305912291
-0.5097462338
-0.8279680342
-1.128852324
)


101
(
-0.008262349521
-1.938818296
-10.64593032
-27.08109625
-49.51475715
-75.70186262
-103.6011508
-131.2903892
-157.4324961
-180.9942242
-201.2398068
-217.6336209
-229.9591891
-238.0323626
-241.9878192
-242.0739535
-238.6407208
-232.1398255
-223.1955535
-212.2862634
-200.0810182
-187.0990085
-173.7820589
-160.5478239
-147.7131941
-135.5052679
-124.0725911
-113.496913
-103.8103885
-95.00341217
-87.04117265
-79.86985006
-73.41954974
-67.65654783
-62.48647353
-57.84106212
-53.64714576
-49.84073167
-46.38873422
-43.2752972
-40.47347365
-37.93969452
-35.64017705
-33.524261
-31.54765918
-29.69148611
-27.94215768
-26.30400282
-24.77609106
-23.35792549
-22.03752463
-20.80349751
-19.64405573
-18.55047192
-17.51757548
-16.54242397
-15.62496649
-14.75673717
-13.9360189
-13.15622791
-12.41524289
-11.70917486
-11.03671544
-10.39685937
-9.789153267
-9.213132655
-8.666923824
-8.148181903
-7.65327858
-7.179282958
-6.725773469
-6.292895707
-5.880693182
-5.487891267
-5.112397413
-4.752620289
-4.408661534
-4.081574808
-3.77057819
-3.474005618
-3.190056974
-2.919909426
-2.665753756
-2.426382384
-2.200265656
-1.985577426
-1.785746441
-1.596706924
-1.41909568
-1.256420891
-1.105435426
-0.9649990067
-0.8387283008
-0.726359762
-0.624456327
-0.522620278
-0.3979005841
-0.6894179714
-0.9959908356
-1.46306144
-1.885574033
)


101
(
-0.008222230019
-1.886326687
-10.33420013
-26.27096872
-48.00062458
-73.32510972
-100.2635797
-126.9638969
-152.1516744
-174.8498201
-194.3790045
-210.2434135
-222.248416
-230.234027
-234.3334045
-234.7785586
-231.8934343
-226.0939539
-217.959213
-207.9242396
-196.6130073
-184.5135449
-172.0409326
-159.5909691
-147.4673174
-135.8912039
-125.0116036
-114.9149232
-105.639875
-97.18421411
-89.51978317
-82.59844265
-76.35626958
-70.76582387
-65.74141622
-61.22220031
-57.14020552
-53.42979793
-50.05017944
-46.98020966
-44.19472771
-41.66027703
-39.35693544
-37.2423863
-35.27227688
-33.42250703
-31.6719502
-30.01981607
-28.46412022
-27.00836547
-25.64479118
-24.36482305
-23.15699712
-22.01187858
-20.92296792
-19.88549208
-18.9025433
-17.96583457
-17.07561598
-16.22436393
-15.41084977
-14.63032221
-13.88107983
-13.16228982
-12.473256
-11.81454568
-11.18575164
-10.58528353
-10.01035501
-9.456976208
-8.923358243
-8.409402936
-7.915794999
-7.442466129
-6.987912186
-6.550066439
-6.127737753
-5.722159007
-5.334083048
-4.961798932
-4.603108336
-4.258276805
-3.930251739
-3.619595596
-3.323911546
-3.039488851
-2.770983832
-2.517462924
-2.27655443
-2.050252085
-1.838543277
-1.639801515
-1.456923422
-1.290742754
-1.139360462
-0.9832892761
-0.7903189797
-1.236618999
-1.668645069
-2.267262898
-2.77410349
)


101
(
-0.008182183824
-1.834695519
-10.02873286
-25.47864491
-46.52332368
-71.01268141
-97.02537427
-122.7770512
-147.0525817
-168.9277446
-187.7746074
-203.1339636
-214.8300466
-222.7233646
-226.945488
-227.7135961
-225.3276379
-220.1710801
-212.7825509
-203.5580009
-193.0806958
-181.8094084
-170.1350103
-158.434457
-146.998868
-136.0433068
-125.7159085
-116.1062061
-107.2579918
-99.17555818
-91.83662498
-85.19754087
-79.198433
-73.81513699
-68.97010068
-64.60880784
-60.66931017
-57.08785863
-53.81943766
-50.83638639
-48.11045232
-45.61193021
-43.33159647
-41.23754292
-39.2901928
-37.46434533
-35.7332611
-34.09031578
-32.52980113
-31.05622473
-29.66581055
-28.35347706
-27.1094392
-25.92458689
-24.79083922
-23.70199874
-22.661854
-21.66319153
-20.70773408
-19.7880905
-18.90399086
-18.05048756
-17.22493059
-16.42666349
-15.65492921
-14.90910903
-14.19138822
-13.50144536
-12.83760554
-12.19666286
-11.57466774
-10.97050184
-10.38556608
-9.820133251
-9.274152493
-8.74587864
-8.233742889
-7.738380625
-7.259961269
-6.798878621
-6.353138975
-5.921720838
-5.507167918
-5.113102582
-4.736651476
-4.372196139
-4.0237029
-3.69449729
-3.382705262
-3.084273573
-2.801318159
-2.537468702
-2.292044521
-2.064615382
-1.855999359
-1.638833741
-1.370625304
-1.967494508
-2.493235046
-3.178401243
-3.748081505
)


101
(
-0.008142210771
-1.783918378
-9.729440089
-24.70378942
-45.08192715
-68.76251045
-93.88266984
-118.72353
-142.1259751
-163.2152731
-181.4100224
-196.2850389
-207.6805191
-215.4742127
-219.7959802
-220.8495928
-218.9130041
-214.3401406
-207.6333295
-199.1533271
-189.4472622
-178.9466762
-168.0205488
-157.0298928
-146.2540636
-135.9024177
-126.1213887
-117.0023865
-108.5927719
-100.9027979
-93.91549334
-87.59053129
-81.8703414
-76.73155123
-72.10405169
-67.93781579
-64.17640886
-60.75975282
-57.64183891
-54.78930199
-52.16926421
-49.75091491
-47.53067688
-45.48564016
-43.58412298
-41.80388627
-40.11542438
-38.50747959
-36.96880302
-35.50205223
-34.10712382
-32.78165782
-31.51726461
-30.30751159
-29.1436344
-28.01802352
-26.93205387
-25.88110079
-24.8670832
-23.8842937
-22.93248145
-22.00850994
-21.10844993
-20.23080476
-19.37419517
-18.53852573
-17.7263257
-16.93802651
-16.17589157
-15.43553489
-14.71406997
-14.0078756
-13.31922899
-12.64760102
-11.99418438
-11.35906048
-10.74078398
-10.13913368
-9.555191627
-8.987761998
-8.43731643
-7.902263756
-7.385086204
-6.890650152
-6.417588221
-5.959327225
-5.517036827
-5.097685339
-4.702114234
-4.322962041
-3.957967393
-3.620113284
-3.304215259
-3.010305022
-2.738259699
-2.455474712
-2.111461155
-2.823395967
-3.399977946
-4.175604895
-4.813125342
)


101
(
-0.008102310809
-1.733988891
-9.436234775
-23.94607513
-43.67553952
-66.57262189
-90.83181132
-114.7973991
-137.3632394
-157.7006964
-175.270162
-189.678381
-200.7788
-208.4634778
-212.8603731
-214.1611115
-212.6235568
-208.5747058
-202.4843137
-194.6812981
-185.6817294
-175.8918376
-165.6607746
-155.3361006
-145.1861615
-135.4157366
-126.1695012
-117.5401638
-109.5770919
-102.2953998
-95.68277408
-89.70190009
-84.29651923
-79.44108873
-75.07234882
-71.14260281
-67.59951981
-64.38686114
-61.45965918
-58.78173409
-56.31550996
-54.02600902
-51.9108552
-49.95313902
-48.1292368
-46.42248104
-44.80365204
-43.25946717
-41.77319412
-40.34374011
-38.97222653
-37.65827531
-36.39470574
-35.17908188
-34.00279798
-32.85701704
-31.7413339
-30.65054907
-29.58971361
-28.55198
-27.53790236
-26.54678804
-25.57571702
-24.61984143
-23.67744611
-22.75045414
-21.83810074
-20.94515791
-20.0723074
-19.21977222
-18.38591972
-17.56431466
-16.75740374
-15.96353456
-15.18418794
-14.42154358
-13.6745859
-12.94744456
-12.23792342
-11.54327484
-10.86633382
-10.20569919
-9.563536978
-8.946048342
-8.35560426
-7.784351873
-7.227995947
-6.699733266
-6.20006869
-5.725431083
-5.26423046
-4.83932985
-4.438635936
-4.069183046
-3.724085992
-3.369808657
-2.94183242
-3.744516759
-4.377389651
-5.358658225
-6.232287639
)


101
(
-0.008062483943
-1.684900859
-9.149031856
-23.20518462
-42.30329875
-64.44112925
-87.86934466
-110.9930912
-132.7563573
-152.3732374
-169.3414001
-183.2974832
-194.1061052
-201.6708357
-206.1173919
-207.6263515
-206.4372468
-202.8525678
-197.31299
-190.1186654
-181.7594924
-172.6181012
-163.0253537
-153.3184315
-143.7551217
-134.5366753
-125.8072305
-117.6611276
-110.1482208
-103.2867358
-97.06753278
-91.45667187
-86.40028861
-81.86705856
-77.79998922
-74.15126002
-70.87087062
-67.90552376
-65.21172149
-62.75329387
-60.48879586
-58.37995712
-56.4215935
-54.59826453
-52.89211031
-51.29398177
-49.77813278
-48.33027095
-46.93087947
-45.57468388
-44.25990509
-42.98787224
-41.75332452
-40.55618398
-39.38952309
-38.24503995
-37.12025069
-36.00747565
-34.91519236
-33.83522502
-32.77041549
-31.71897734
-30.68181387
-29.65047671
-28.624657
-27.60656673
-26.59338216
-25.58969019
-24.59726406
-23.62147336
-22.66215095
-21.71146069
-20.77296873
-19.84152556
-18.91861129
-18.00816497
-17.1097899
-16.23396708
-15.37514549
-14.53326493
-13.70553275
-12.8920126
-12.10000043
-11.33261671
-10.59439555
-9.885116362
-9.191363867
-8.527053153
-7.89690926
-7.303852396
-6.724575941
-6.192295843
-5.684675609
-5.219458101
-4.785094611
-4.343640284
-3.813712946
-4.762668316
-5.56473034
-6.992296253
-8.335626903
)


101
(
-0.008022730211
-1.636648213
-8.867748289
-22.48080896
-40.96437503
-62.36623428
-84.99200404
-107.3053786
-128.2978477
-147.22295
-163.6113537
-177.1274629
-187.6456574
-195.0783826
-199.5485487
-201.2266456
-200.3355542
-197.1555473
-192.1014614
-185.4479587
-177.6621475
-169.1052103
-160.0903806
-150.9487825
-141.927808
-133.2254962
-124.9881309
-117.3127203
-110.2480053
-103.8136525
-98.00263527
-92.78394206
-88.10700792
-83.93291653
-80.21002179
-76.88765143
-73.91659045
-71.24552219
-68.83139261
-66.63885962
-64.62627784
-62.75177006
-61.00517541
-59.37066537
-57.83275263
-56.38765749
-55.01418489
-53.69994489
-52.42704804
-51.18466977
-49.96579028
-48.77275371
-47.60281843
-46.45506324
-45.32732036
-44.21317949
-43.10568023
-41.9953594
-40.89402812
-39.79219622
-38.69236702
-37.59416679
-36.50008175
-35.40168238
-34.30305843
-33.196683
-32.08629558
-30.97437848
-29.86246353
-28.75901183
-27.66459326
-26.57622153
-25.49547065
-24.41727844
-23.34044034
-22.26647253
-21.19972252
-20.1492604
-19.12126361
-18.11184291
-17.11088328
-16.11942115
-15.15005926
-14.20480493
-13.28878913
-12.40681135
-11.54603442
-10.71388248
-9.917666681
-9.174314506
-8.446120029
-7.77350181
-7.130839698
-6.538564964
-5.988378506
-5.435298056
-4.780387433
-6.043866568
-7.247135296
-9.492682893
-11.80531531
)


101
(
-0.007983049472
-1.589224731
-8.59230573
-21.77264382
-39.65796171
-60.34621161
-82.19668677
-103.7293355
-123.9806474
-142.2405458
-158.0687099
-171.1549241
-181.3824804
-188.6702947
-193.1377259
-194.9459884
-194.3029975
-191.4689434
-186.8356626
-180.6564706
-173.3763903
-165.3383752
-156.8382336
-148.2057881
-139.6790915
-131.4519429
-123.6750437
-116.4502058
-109.8241728
-103.8170293
-98.4241616
-93.61625485
-89.34475991
-85.56309903
-82.22463581
-79.27276425
-76.65787567
-74.33059536
-72.24735534
-70.37218672
-68.66371569
-67.07798173
-65.60191189
-64.2165366
-62.90518487
-61.66655459
-60.48392273
-59.34896462
-58.2463602
-57.16289913
-56.08644423
-55.01719517
-53.95457476
-52.89671724
-51.84422287
-50.79618246
-49.74125028
-48.6689287
-47.58975495
-46.49530658
-45.38728605
-44.26654911
-43.13474098
-41.98858821
-40.83371485
-39.65607673
-38.46517676
-37.25756659
-36.03730128
-34.80977559
-33.58382646
-32.35955089
-31.13596487
-29.91147505
-28.68309327
-27.44353327
-26.19426991
-24.9565438
-23.74002755
-22.54460083
-21.35484302
-20.16724822
-18.98999565
-17.83814311
-16.71310891
-15.62234422
-14.55601512
-13.52009456
-12.51338621
-11.57672728
-10.66235124
-9.803582544
-8.988577913
-8.230208981
-7.527934629
-6.832417848
-6.019243608
-7.885416778
-9.836010131
-13.43899615
-17.41899865
)


101
(
-0.007943441762
-1.542624505
-8.322618382
-21.08039588
-38.38328709
-58.37942279
-79.48046874
-100.2603567
-119.7981158
-137.4173003
-152.7031477
-165.3678759
-175.3033035
-182.4326817
-186.87104
-188.7710221
-188.3272598
-185.7817538
-181.5055355
-175.7341343
-168.8917471
-161.3060428
-153.2569446
-145.0743842
-136.9905961
-129.1933144
-121.8388492
-115.0369166
-108.8322566
-103.2452773
-98.27468518
-93.89154203
-90.04644732
-86.68580503
-83.76859187
-81.22970575
-79.01737839
-77.0843508
-75.38566467
-73.88245063
-72.53388309
-71.2953511
-70.15079796
-69.07828773
-68.05833675
-67.08901289
-66.15640421
-65.25571803
-64.37333455
-63.49939964
-62.61851846
-61.72737811
-60.82506419
-59.90860186
-58.97945606
-58.03975319
-57.08202246
-56.09462157
-55.08168856
-54.03527663
-52.96380896
-51.85745639
-50.7246053
-49.56630138
-48.38769615
-47.17408582
-45.93301851
-44.65986701
-43.35823126
-42.03214847
-40.69883755
-39.35315728
-37.99872409
-36.63940689
-35.27083969
-33.87810594
-32.45708379
-31.02737868
-29.60699928
-28.20878763
-26.81829707
-25.41754922
-24.00669434
-22.6132206
-21.24438001
-19.90486599
-18.58401073
-17.29940123
-16.03101742
-14.84638865
-13.70190045
-12.6034584
-11.56787511
-10.6000248
-9.705788908
-8.834640472
-7.829733806
-10.70645694
-13.90806335
-19.72222372
-26.38400215
)


101
(
-0.00790390712
-1.496841723
-8.058607634
-20.40377907
-37.13960696
-56.46430273
-76.84058138
-96.89411876
-115.7440844
-132.7451573
-147.5051531
-159.7554984
-169.3962793
-176.3533576
-180.7366614
-182.690812
-182.3987738
-180.0861102
-176.1047472
-170.6745276
-164.2015609
-157.0001082
-149.3393953
-141.5452533
-133.8504889
-126.4352786
-119.460282
-113.0462639
-107.2383725
-102.0574789
-97.50586491
-93.5552606
-90.153487
-87.23697403
-84.77164274
-82.68404154
-80.91828494
-79.42901324
-78.17020316
-77.0982518
-76.17010825
-75.34039343
-74.59077864
-73.89731138
-73.23798812
-72.60856728
-71.99479154
-71.3932139
-70.79171602
-70.18698972
-69.56354114
-68.91321666
-68.23450782
-67.52502329
-66.78334317
-66.01068051
-65.20733514
-64.3618479
-63.47661363
-62.54084078
-61.56451871
-60.53126593
-59.45533478
-58.34090735
-57.19052983
-55.99649305
-54.75798043
-53.47096568
-52.138887
-50.76456506
-49.3640502
-47.93333916
-46.48059983
-45.01102329
-43.52212227
-41.99831324
-40.42314205
-38.80810979
-37.17740333
-35.55817695
-33.94605099
-32.31213406
-30.64113671
-28.96446447
-27.30368751
-25.67101363
-24.04207576
-22.45172538
-20.86526721
-19.3710662
-17.94478246
-16.55124831
-15.24951299
-14.02706694
-12.9102602
-11.83325545
-10.61550277
-15.11381771
-20.39385412
-29.8031073
-41.05724281
)


101
(
-0.007864445405
-1.45187046
-7.800195496
-19.74251166
-35.926198
-54.59934756
-74.27439176
-93.62652659
-111.8127629
-128.2166309
-142.4657625
-154.3080444
-163.6507971
-170.4216081
-174.7245658
-176.6965757
-176.5103981
-174.3769766
-170.630532
-165.4762555
-159.3050875
-152.4198739
-145.0834444
-137.6152856
-130.2533509
-123.1710352
-116.5293439
-110.4608931
-105.0172287
-100.221407
-96.07772295
-92.55940757
-89.61318067
-87.15962488
-85.17115048
-83.56916233
-82.29136226
-81.29336154
-80.52958818
-79.94954407
-79.50550446
-79.14994968
-78.86200769
-78.61634487
-78.39032071
-78.17675686
-77.95851109
-77.73151932
-77.48670793
-77.22389888
-76.92911602
-76.59382356
-76.21121089
-75.78714933
-75.3138035
-74.78959831
-74.21830435
-73.59279772
-72.91546809
-72.17389899
-71.37239226
-70.49803728
-69.56145676
-68.57185286
-67.52562473
-66.42907834
-65.27117351
-64.04699824
-62.75777061
-61.40087726
-59.99330095
-58.53492703
-57.03004583
-55.48374979
-53.90033947
-52.26751062
-50.55833484
-48.77075176
-46.92442335
-45.06073116
-43.19756992
-41.30205488
-39.33993657
-37.33367044
-35.32575654
-33.35074563
-31.36801006
-29.41658007
-27.4614843
-25.60332328
-23.85218729
-22.12756125
-20.5299342
-19.02349664
-17.67178428
-16.38073063
-14.96217437
-22.08919193
-30.81615088
-45.88371114
-64.18089381
)


101
(
-0.007825056713
-1.407705269
-7.547316234
-19.09632338
-34.74236966
-52.78313106
-71.77942016
-90.45376282
-107.9988018
-123.8248485
-137.5767977
-149.0166578
-158.0574958
-164.6282179
-168.8264873
-170.7815347
-170.6571982
-168.6518548
-165.0831873
-160.142165
-154.2063233
-147.5700639
-140.492114
-133.2866065
-126.1991617
-119.3989037
-113.0428705
-107.2741276
-102.157069
-97.71803204
-93.96138169
-90.86280891
-88.37354163
-86.39867528
-84.91141154
-83.82783133
-83.07640973
-82.61355018
-82.39765849
-82.3692602
-82.4745161
-82.66226037
-82.90692237
-83.18266265
-83.46639445
-83.74844029
-84.01006419
-84.24714984
-84.44872708
-84.61486115
-84.73498826
-84.80147913
-84.80445477
-84.75796989
-84.64938331
-84.4736512
-84.23534061
-83.93182322
-83.56559042
-83.12179002
-82.60323046
-81.99852653
-81.30912426
-80.55101601
-79.71542426
-78.816563
-77.83945688
-76.77507182
-75.61958606
-74.36587847
-73.02978891
-71.60921277
-70.10509579
-68.52193117
-66.86926205