/*--------------------------------*- C++ -*----------------------------------*\
| =========                 |                                                 |
| \\      /  F ield         | OpenFOAM: The Open Source CFD Toolbox           |
|  \\    /   O peration     | Version:  2.3.1                                 |
|   \\  /    A nd           | Web:      www.OpenFOAM.org                      |
|    \\/     M anipulation  |                                                 |
\*---------------------------------------------------------------------------*/
FoamFile
{
    version     2.0;
    format      ascii;
    class       dictionary;
    location    "constant";
    object      la_r17;
}
// * * * * * * * * * * * * * * * * * * * * * * * * * * * * * * * * * * * * * //

la_r17_table
101
(

101
(
2.677324663e-10
4.616118544e-06
0.0001297144449
0.0009163246794
0.003493981267
0.009441495236
0.02060094887
0.03964966481
0.06909085926
0.1122536199
0.172618826
0.2547639162
0.3629240081
0.5065779899
0.6928206677
0.9330186636
1.243073252
1.646771245
2.146036381
2.7937575
3.580569725
4.516966133
5.639989039
6.929101114
8.362324976
9.915203586
11.55525711
13.24517465
14.95575623
16.65223033
18.3101612
19.90756004
21.42651099
22.8850065
24.259098
25.56100794
26.89441328
28.21670996
29.14369042
29.96546676
30.68206987
31.30111487
31.81845832
32.23744664
32.56550607
32.79890795
32.94521003
33.00094993
32.97264389
32.85852067
32.66562531
32.39429765
32.04727822
31.62784532
31.14039916
30.58766292
29.96424261
29.28687813
28.54766604
27.75677596
26.9131108
26.02607005
25.09736033
24.13093965
23.13321546
22.10883454
21.06240788
19.99870282
18.92290811
17.84266622
16.76231016
15.68903983
14.6290121
13.59692994
12.6736811
11.69494085
10.63948773
9.618687709
8.637709791
7.700071121
6.813077933
5.981065725
5.214076147
4.547032231
3.850810125
3.191687794
2.598666668
2.072283061
1.616707785
1.253791304
0.8970235586
0.6059923988
0.3871348411
0.2150567055
0.09906754156
0.02429961505
1.444146998e-16
-7.539251679e-32
-2.676049449e-26
1.507179053e-26
-7.405916525e-25
)


101
(
2.462442171e-10
4.289177911e-06
0.0001228379817
0.0008687521428
0.003308439076
0.008920206519
0.01940630854
0.03720867479
0.06458512411
0.1044638984
0.1598655893
0.2346570142
0.3323488175
0.4607371585
0.6258236387
0.836817582
1.106676317
1.454705971
1.88469507
2.434102466
3.103462967
3.897089362
4.838475391
5.919782796
7.121030682
8.419122894
9.786265797
11.1909548
12.60490732
14.00099642
15.35618264
16.65286757
17.87888603
19.02227203
20.09637482
21.09612392
22.07576975
23.04259249
23.8150709
24.42535027
24.92763534
25.34770694
25.67894642
25.9306226
26.11109796
26.2145255
26.25015435
26.21421977
26.11437464
25.94904107
25.72547472
25.44409117
25.10777739
24.71931662
24.28260504
23.80071603
23.27043952
22.70386384
22.09606836
21.45428334
20.77837693
20.07378718
19.34340309
18.58942145
17.81589913
17.02694323
16.2258289
15.41557804
14.59897575
13.78139986
12.96585509
12.15604476
11.3555174
10.57134918
9.831734934
9.113901045
8.380439662
7.64030019
6.912012856
6.209302237
5.540636314
4.908641601
4.317253833
3.78086249
3.278477042
2.79099524
2.329979924
1.910872666
1.538026488
1.217979323
0.9407910211
0.6913939343
0.4826437041
0.3188157021
0.1898913829
0.09415260349
0.02922449592
0.02892654241
0.02878522997
0.02904521411
0.02933511731
)


101
(
2.25890834e-10
3.944388103e-06
0.0001157481649
0.0008204226638
0.003121626105
0.008399090641
0.01822191361
0.03480365239
0.06018442397
0.0969304427
0.1476757141
0.2156984412
0.3039712382
0.4188854625
0.5657018885
0.7519283027
0.9882034171
1.290371291
1.663396995
2.133983269
2.708091381
3.387414648
4.186366171
5.103370978
6.122296767
7.222099328
8.37849671
9.564542918
10.75410425
11.92444713
13.05504495
14.13096143
15.14312217
16.06996811
16.93059769
17.7209355
18.47298842
19.20129238
19.82451645
20.31285288
20.69202355
20.992599
21.21548715
21.37154711
21.46997151
21.50692006
21.49009284
21.41685174
21.29371279
21.12007432
20.9020523
20.64057433
20.33838658
19.99806544
19.62241834
19.2139591
18.7709665
18.30232447
17.80500658
17.28417068
16.74011324
16.17627187
15.59494306
14.99814123
14.38857676
13.76876665
13.14115604
12.5080422
11.87137338
11.23427298
10.59925056
9.968428427
9.344293372
8.729762311
8.135807213
7.565445922
7.006074799
6.447750241
5.889928886
5.341047407
4.812189972
4.308763486
3.83264846
3.388697338
2.978572366
2.593328137
2.223105431
1.87355577
1.555547933
1.272530084
1.023314734
0.8048452618
0.6086529844
0.4439306081
0.310997953
0.1968272613
0.1027996525
0.1055204321
0.1082789176
0.1127401721
0.1169380901
)


101
(
2.066437155e-10
3.618222043e-06
0.000109001257
0.0007744885601
0.002944757037
0.007908474839
0.01711444578
0.03257363302
0.05613782002
0.09006924323
0.1366829346
0.1987827987
0.2789138057
0.3823554236
0.5137483737
0.6793065023
0.8878428297
1.152485886
1.478826618
1.886258251
2.383289071
2.970924937
3.657605871
4.444549244
5.319440326
6.263758702
7.256065567
8.272928532
9.290638902
10.28928102
11.25066101
12.16183508
13.01538236
13.7884278
14.49686085
15.13595245
15.73449294
16.29985597
16.79908557
17.20055815
17.50540035
17.73503434
17.89388848
17.99402029
18.04566337
18.04772843
18.00666255
17.9208842
17.79535975
17.6302095
17.4303015
17.19694007
16.9326088
16.63959735
16.32018928
15.97645213
15.60710116
15.21889371
14.80994283
14.38401244
13.94156195
13.48500903
13.01599083
12.53601968
12.04702278
11.55070177
11.04892253
10.54316316
10.03511742
9.526760813
9.019763138
8.51576369
8.016486581
7.523460876
7.040757941
6.573134906
6.119965641
5.675930958
5.234857356
4.795637531
4.364860506
3.949931732
3.554577912
3.180357392
2.829621699
2.502569931
2.193503629
1.895685442
1.615836674
1.360990674
1.131713316
0.928064021
0.7456067695
0.5825200511
0.4457542767
0.320037079
0.2038016816
0.2139877403
0.2237900156
0.2364201891
0.2484382946
)


101
(
1.884740654e-10
3.309980521e-06
0.0001025834457
0.0007308412577
0.002777308807
0.007446478732
0.0160784029
0.03050417568
0.05241243727
0.08381016555
0.1267495852
0.1836527471
0.2567263494
0.3503688977
0.4687033974
0.6169588587
0.8025098411
1.036345929
1.324337044
1.680888874
2.115452488
2.629232572
3.226937947
3.910757476
4.671586109
5.493537418
6.357640522
7.243237472
8.128878558
8.996586028
9.829898283
10.61743849
11.352591
12.01449502
12.61464118
13.15035334
13.63724159
14.08874175
14.49200936
14.82444523
15.07878565
15.2651322
15.38639385
15.45401851
15.47868683
15.46196774
15.40998619
15.32211208
15.20217737
15.0506036
14.87120385
14.66534435
14.43532487
14.18327874
13.91101844
13.62010712
13.31005636
12.98568263
12.64583215
12.29320411
11.9284191
11.55333837
11.16909326
10.77683334
10.3778829
9.973300936
9.564601934
9.152930939
8.739388835
8.325445231
7.911999335
7.500541708
7.092334956
6.688626974
6.290881244
5.901735507
5.523123693
5.155062839
4.793741409
4.434441822
4.077325334
3.727720211
3.391373428
3.070245113
2.765332968
2.477908407
2.207621093
1.949120339
1.700225586
1.467651004
1.254650231
1.061537053
0.8874676453
0.7282531608
0.5894585169
0.4570452192
0.3260559942
0.3462024235
0.3655867456
0.3884666913
0.4102912353
)


101
(
1.713527833e-10
3.018983963e-06
9.648133127e-05
0.0006893758588
0.002618780907
0.0070113261
0.01510866048
0.02858205575
0.04897860522
0.07809092855
0.1177551175
0.1700864647
0.2370253083
0.3222730508
0.4295207716
0.5632477622
0.7296988276
0.9381706574
1.194596445
1.509975653
1.893844978
2.347961778
2.874865935
3.476864281
4.147337192
4.872941238
5.636921773
6.420869011
7.205309568
7.973672346
8.710846354
9.406031129
10.05329774
10.63465427
11.15755389
11.61985861
12.03042543
12.40198471
12.7328275
13.01041175
13.22675076
13.38474899
13.48395457
13.5333541
13.54287077
13.51601054
13.45928096
13.37332658
13.26126939
13.12343628
12.96276416
12.78050641
12.57883851
12.35988091
12.12524137
11.87596875
11.61192097
11.33685871
11.05012617
10.75351229
10.44755141
10.13404889
9.813602711
9.487238645
9.155924332
8.820244489
8.481251143
8.139844987
7.796779528
7.453462269
7.110086239
6.767773778
6.427493182
6.090453629
5.757410095
5.429535659
5.108279989
4.795131858
4.489517043
4.188181491
3.887852435
3.589702784
3.298726235
3.018592973
2.750271354
2.494529785
2.252119429
2.021320315
1.798146684
1.584521462
1.385255881
1.201946451
1.03423587
0.8793094626
0.7403278565
0.6040788271
0.4629757114
0.4938172396
0.5242935658
0.5628630042
0.600389361
)


101
(
1.552505741e-10
2.744567848e-06
9.068199173e-05
0.0006499921548
0.002468700534
0.006601359257
0.0142004933
0.02679523509
0.04580963795
0.07285624179
0.1095937386
0.1578916641
0.2194816335
0.2975147132
0.3953217163
0.5168110632
0.6673447516
0.8548744208
1.085266949
1.36719805
1.709865829
2.115675258
2.586068189
3.123148968
3.722144677
4.372054965
5.058171644
5.763957132
6.471627618
7.165671309
7.831909292
8.459824012
9.043477727
9.56774658
10.03712395
10.4491749
10.80877629
11.12614578
11.40478782
11.64012269
11.82696177
11.96497136
12.05116287
12.09127979
12.09334699
12.06172865
12.00335759
11.92048373
11.81607883
11.69031881
11.54550064
11.3824222
11.20312945
11.00979352
10.80418978
10.58686312
10.35774391
10.11996911
9.873128945
9.618607512
9.356912057
9.089536755
8.816868216
8.539635463
8.258801652
7.974708686
7.687915172
7.399098578
7.108763421
6.818097768
6.527375805
6.237208761
5.948191299
5.661326277
5.377263272
5.096649999
4.820279617
4.549218805
4.284317512
4.024676406
3.767244409
3.510153348
3.25558653
3.007742866
2.768650173
2.538812418
2.318869477
2.10873949
1.906051994
1.70913838
1.521872399
1.34724481
1.185662357
1.035199853
0.8973439017
0.7585367611
0.6106830376
0.6562003226
0.7016516232
0.75866544
0.8147378508
)


101
(
1.401380085e-10
2.486088922e-06
8.517296779e-05
0.0006125944233
0.002326621552
0.006215035866
0.01334956608
0.02513281508
0.04288157504
0.06805705417
0.10217272
0.1469016885
0.2038133213
0.2756250219
0.3653680551
0.4765151995
0.6137415837
0.7839295588
0.9928052489
1.247465492
1.556590828
1.923207618
2.34836798
2.833946286
3.37652456
3.967200851
4.593209715
5.239655606
5.890195421
6.530143367
7.145952693
7.727166597
8.267367025
8.753698439
9.188644487
9.569342808
9.897867111
10.18158507
10.42589339
10.63129716
10.79636634
10.92028449
10.99929705
11.03619266
11.03655381
11.004598
10.94711858
10.86782251
10.77025363
10.65475148
10.52309326
10.37548729
10.21389445
10.04039009
9.856851328
9.663812793
9.46128046
9.251530056
9.034524782
8.81119475
8.582135207
8.348808622
8.111423438
7.87060212
7.627053003
7.381136301
7.132969821
6.883197859
6.631917486
6.380173557
6.128380152
5.876779246
5.625807928
5.376125975
5.128376586
4.88296674
4.640542367
4.401592109
4.167003508
3.937054679
3.710264843
3.484239549
3.258580851
3.035951841
2.819501667
2.610081479
2.408025248
2.213717271
2.026382347
1.843568355
1.666813089
1.499636309
1.343300709
1.197038415
1.060749604
0.9212493338
0.7694575637
0.832819135
0.8975207249
0.981878288
1.067105959
)


101
(
1.259854225e-10
2.242922624e-06
7.994224752e-05
0.0005770913003
0.002192122714
0.005850918279
0.01255189457
0.0235849225
0.0401728938
0.06364983754
0.09541067554
0.1369721385
0.1897784551
0.2562064053
0.3390384235
0.4414145003
0.5674772807
0.7232590505
0.9143074495
1.146653017
1.428418622
1.763175936
2.152027944
2.596752629
3.094944419
3.639539951
4.219649616
4.821918595
5.431269579
6.033683759
6.616047477
7.167839364
7.681895163
8.146803767
8.563559586
8.928957766
9.242988852
9.510367387
9.736626218
9.924761636
10.07670523
10.19285041
10.26971792
10.30824507
10.31183665
10.28396993
10.2307092
10.15670341
10.06640521
9.960509886
9.840327504
9.706102714
9.559440657
9.401769446
9.235661228
9.061787536
8.87975743
8.691421794
8.497135581
8.297310115
8.092512464
7.884241739
7.672341757
7.457884138
7.241358055
7.023267825
6.803420419
6.581922088
6.358744779
6.13442528
5.910047083
5.685570204
5.461806677
5.238679709
5.016427721
4.795622024
4.576900673
4.360563911
4.147209214
3.937205043
3.730520394
3.525355615
3.320532532
3.116175068
2.915675346
2.720334101
2.531016831
2.34751428
2.170297781
1.997458592
1.828353815
1.666356411
1.513763191
1.370340986
1.235217679
1.095017132
0.9390585934
1.027245974
1.120656554
1.252512966
1.393258282
)


101
(
1.127629921e-10
2.014458395e-06
7.497825178e-05
0.0005433955848
0.002064806044
0.005507662008
0.01180379184
0.02214253916
0.0376641861
0.05959580866
0.0892358485
0.1279770963
0.1771681591
0.238919388
0.3158066013
0.4107150837
0.5273762786
0.6711471966
0.8473822452
1.061400062
1.320795483
1.629598756
1.989213841
2.401528167
2.864946952
3.374005132
3.91959465
4.489868375
5.070941319
5.649383263
6.212377039
6.749292633
7.252188567
7.710335933
8.123223521
8.487576066
8.801991145
9.068783629
9.292604717
9.476963028
9.625877882
9.741521187
9.822105178
9.8676477
9.879952624
9.861542545
9.817262661
9.752265816
9.671380832
9.576102507
9.467923931
9.347266335
9.215001157
9.072108237
8.921210902
8.763060667
8.598081021
8.426648313
8.250330811
8.068959425
7.882505537
7.692973451
7.499713011
7.304060065
7.106490732
6.907590554
6.70747345
6.505509182
6.301619101
6.096080719
5.889936174
5.683290905
5.476675771
5.270433765
5.064472838
4.859089419
4.654588629
4.451700349
4.251122018
4.052421328
3.856118657
3.662083425
3.468877962
3.275487555
3.083415432
2.894940505
2.711905704
2.533119284
2.359837188
2.191078921
2.024983093
1.864261889
1.711884545
1.568220388
1.431927839
1.289003516
1.127892968
1.255017089
1.396420827
1.612119591
1.85815641
)


101
(
1.004408437e-10
1.800105438e-06
7.026982884e-05
0.0005114241428
0.001944296575
0.005184013459
0.01110184856
0.02079740672
0.0353379987
0.05586061023
0.08358518005
0.1198067772
0.1658017284
0.2234731572
0.2952252032
0.3837474874
0.4924546032
0.6261681809
0.7900478663
0.9889448016
1.22998933
1.517597023
1.853611065
2.240187633
2.676489606
3.158443932
3.678598781
4.226604115
4.789774378
5.355302322
5.910587896
6.444813979
6.949362179
7.413867122
7.836058309
8.212551563
8.541171008
8.822223529
9.058660303
9.253388324
9.411296507
9.535930805
9.628048269
9.687592231
9.715515197
9.713547947
9.684787117
9.634225992
9.566839992
9.48538128
9.391732284
9.286704955
9.170599293
9.043744732
8.907626992
8.764580292
8.615406044
8.459347031
8.298567827
8.132884323
7.961450224
7.786286539
7.607333055
7.425294108
7.240655385
7.054122096
6.867240505
6.678371231
6.487540879
6.293993819
6.098768655
5.902116095
5.705111593
5.507963581
5.310486863
5.112300855
4.913889951
4.716329263
4.520135024
4.324821266
4.130535693
3.938428007
3.747394437
3.556584093
3.365184796
3.175123204
2.990232618
2.808749918
2.631767957
2.459828158
2.289645064
2.12390271
1.96594122
1.816630178
1.674516137
1.523760537
1.351669861
1.547579105
1.773551645
2.122520043
2.494202607
)


101
(
8.898893364e-11
1.599289671e-06
6.580621889e-05
0.0004810974648
0.00183023935
0.004878799254
0.01044290856
0.01954196934
0.03317855516
0.05241362003
0.07840301825
0.1123653089
0.1555227244
0.2096183558
0.276913729
0.359947113
0.4618884279
0.5871355222
0.7406622022
0.9270180158
1.152941285
1.42317519
1.740076652
2.106159696
2.521391349
2.98292144
3.484799419
4.018179733
4.571658035
5.133157205
5.6903215
6.232111085
6.749295904
7.231851146
7.675585964
8.076702138
8.432520045
8.741831632
9.005687901
9.225659249
9.406453733
9.552139367
9.665906202
9.748622572
9.800973632
9.824132063
9.819250164
9.790617789
9.743270181
9.681144782
9.606551061
9.520904054
9.424529585
9.316794735
9.198191467
9.072926114
8.940158176
8.800040036
8.654176357
8.503851563
8.346996276
8.184982775
8.018165885
7.847002911
7.672609746
7.495103836
7.31627953
7.136185237
6.953971418
6.768219016
6.579583043
6.387960803
6.19480551
6.000612922
5.805371899
5.60826155
5.409807928
5.211195686
5.011928331
4.812824462
4.613563533
4.415114564
4.217652291
4.020740265
3.821786692
3.621357714
3.425265472
3.23273657
3.043470156
2.858557058
2.675135625
2.495907499
2.323708994
2.160578831
2.005173262
1.838597716
1.646238745
1.954869369
2.313662698
2.845261524
3.384396024
)


101
(
7.83771213e-11
1.411450867e-06
6.157705835e-05
0.0004523396168
0.001722298647
0.004590921042
0.009824046028
0.01836930577
0.03117161271
0.04922749503
0.0736401493
0.1055688527
0.1461956651
0.1971410323
0.2605481142
0.3388369163
0.4349878467
0.5530624529
0.6978634306
0.8737524078
1.087134445
1.343033775
1.644347251
1.993990217
2.392765667
2.83897423
3.328092661
3.852761271
4.40294055
4.967419617
5.534217115
6.092184056
6.631575106
7.142544467
7.619085678
8.056656323
8.452021201
8.802819242
9.10845123
9.369168732
9.588219656
9.769233128
9.917056425
10.03403282
10.12115604
10.1795874
10.20902932
10.21251719
10.19437575
10.15965862
10.11101158
10.05082195
9.979857398
9.896828355
9.801614736
9.698013278
9.585709146
9.464161932
9.335878449
9.202629769
9.062422591
8.915350305
8.762055415
8.602480528
8.437772676
8.26952726
8.097887553
7.924331449
7.748890656
7.568838598
7.385090557
7.196754627
7.004296003
6.80923142
6.612012323
6.412273416
6.209596609
6.004785375
5.79798617
5.589138929
5.378196117
5.166569769
4.954904982
4.742902387
4.528798967
4.310126668
4.092469368
3.878770822
3.667406972
3.459039974
3.251546789
3.048593812
2.851784808
2.66385737
2.485290283
2.291707811
2.06597979
2.542330585
3.073522275
3.777071347
4.385424141
)


101
(
6.857524625e-11
1.236046338e-06
5.757235224e-05
0.0004250780188
0.001620156816
0.004319350694
0.009242544819
0.01727305876
0.029304336
0.04627792765
0.06925298
0.09934396505
0.1377029055
0.1858567142
0.2458508266
0.320011729
0.4111739654
0.5231311853
0.6605277347
0.8276128199
1.030496053
1.274440657
1.562877461
1.899172766
2.284972575
2.719669562
3.200132152
3.720488466
4.272156971
4.844933076
5.427395287
6.008516862
6.578246123
7.126732279
7.646228145
8.131208343
8.577728284
8.98257054
9.343906208
9.660815623
9.934373934
10.1667169
10.36323637
10.5275683
10.66148415
10.76677921
10.84249229
10.89033449
10.91335838
10.91722837
10.90393324
10.87744785
10.84024407
10.79000899
10.7259395
10.65072921
10.56636114
10.46968587
10.36496101
10.25351125
10.13511208
10.00754396
9.87174525
9.727883731
9.577269494
9.420606569
9.258158783
9.092587497
8.923407041
8.750044859
8.571680751
8.387550307
8.195894829
7.998719839
7.796891812
7.590849012
7.381013891
7.167655484
6.948663029
6.725483683
6.496966684
6.265851796
6.032062162
5.795991993
5.557762796
5.312692022
5.063249915
4.816837159
4.572146151
4.329647826
4.085922147
3.847461913
3.613779411
3.390092641
3.176827829
2.943815811
2.669808434
3.340879866
4.02058388
4.766589205
5.220583127
)


101
(
5.95531205e-11
1.07254901e-06
5.378246257e-05
0.0003992432894
0.001523513062
0.004063125735
0.00869589131
0.01624740278
0.0275650667
0.04354316824
0.06520296642
0.09362632164
0.1299424583
0.1756070055
0.232585228
0.3031282522
0.3899592928
0.4966578547
0.6277193611
0.7873342029
0.9813298934
1.215167484
1.492781949
1.818033686
2.19341877
2.619369704
3.094095607
3.613191615
4.169616772
4.7543934
5.356929392
5.966532107
6.57302758
7.166564793
7.737831377
8.280154479
8.78867084
9.259416161
9.689736921
10.07763666
10.42200725
10.72279643
10.98466032
11.21149403
11.40602241
11.57138378
11.70664871
11.81248925
11.89066735
11.94628796
11.98067066
11.99928317
12.00667243
11.99975122
11.97767002
11.94202246
11.89537625
11.83388836
11.76065646
11.67882208
11.58979437
11.48974354
11.37805756
11.25689052
11.12724773
10.98741342
10.83987144
10.68493884
10.52591284
10.36094284
10.18902484
10.01017001
9.820856011
9.6222117
9.414329928
9.198008103
8.976895069
8.749450383
8.513644081
8.270153592
8.015807859
7.755424743
7.489981575
7.218902759
6.942569125
6.658892374
6.366960255
6.07295146
5.781025572
5.491662639
5.197699457
4.91148387
4.626531839
4.355391065
4.097166618
3.812626914
3.472110838
4.280287696
4.955278566
5.457393402
5.376262065
)


101
(
5.128055554e-11
9.204452599e-07
5.019810256e-05
0.0003747691409
0.001432082662
0.003821344238
0.008181758969
0.0152869983
0.02594321677
0.04100372913
0.06145626529
0.08835939066
0.1228257408
0.1662561582
0.2205503573
0.2878971623
0.3709326404
0.4730649404
0.5986459064
0.7518291882
0.9381958
1.163357987
1.431717562
1.747609302
2.114386493
2.533506982
3.004438503
3.524192725
4.087325885
4.686323472
5.311790259
5.953612449
6.601550525
7.245955405
7.8761701
8.484392572
9.064618585
9.612075746
10.12357
10.59616504
11.02706607
11.41338232
11.75809793
12.06445244
12.33563197
12.57600501
12.78531294
12.96435914
13.1130696
13.23551454
13.33302006
13.41112701
13.47579683
13.52519047
13.55828054
13.57546269
13.57933286
13.56586442
13.53606939
13.49423182
13.44268177
13.37982399
13.3020613
13.21318135
13.11245884
12.99691515
12.8695512
12.73097524
12.58554358
12.4301382
12.264697
12.09007625
11.90113367
11.69938755
11.48218292
11.24816384
11.00441599
10.75060991
10.48710219
10.20951956
9.915222683
9.609087727
9.29222798
8.967553008
8.634044173
8.289508052
7.934643873
7.573346276
7.212175862
6.856647654
6.49503906
6.144311284
5.795314672
5.46397672
5.152583728
4.804615162
4.380263173
5.134967045
5.488831151
5.325449378
4.167527338
)


101
(
4.372740372e-11
7.792362525e-07
4.68104646e-05
0.0003515921919
0.00134559616
0.003593162228
0.007697994002
0.01438694922
0.0244291541
0.03864211519
0.05798302136
0.08349356855
0.1162756835
0.1576876655
0.209575141
0.2740743251
0.353748255
0.451865705
0.5726407828
0.720183171
0.8998934155
1.117476685
1.377765718
1.685496207
2.044864681
2.458369213
2.926638093
3.4480428
4.018784865
4.632972609
5.282655502
5.958653982
6.650926196
7.350108267
8.044604189
8.725646128
9.3859174
10.01952812
10.62283126
11.19235895
11.72366682
12.21155925
12.65690866
13.06074844
13.42573279
13.75743928
14.05698449
14.32587122
14.56159735
14.7678082
14.94584591
15.10034927
15.23724035
15.35790686
15.46042895
15.5439773
15.61313287
15.66246654
15.69006243
15.70007146
15.69712945
15.68099673
15.64786641
15.60063133
15.53468172
15.45199422
15.34983784
15.22952578
15.09653998
14.94765226
14.78451105
14.60577554
14.40791585
14.19137774
13.95184989
13.68502331
13.39534156
13.09120906
12.77066353
12.43090691
12.06859227
11.68429273
11.27998189
10.86576593
10.43863464
9.997838522
9.544031881
9.083035514
8.619594517
8.167760481
7.716064138
7.277687244
6.850127982
6.446605765
6.076006647
5.657778024
5.137979369
5.491873482
5.077250719
3.809468942
1.324923407
)


101
(
3.686354374e-11
6.484371837e-07
4.361081253e-05
0.0003296517671
0.001263798092
0.003377788978
0.0072426007
0.01354276332
0.02301404113
0.03644247919
0.05475681412
0.07898548326
0.1102252979
0.149801057
0.1995129005
0.261451851
0.3381152572
0.4326556191
0.5491566333
0.6916521728
0.8654489386
1.076280141
1.329361677
1.629746756
1.982403838
2.390893586
2.856965664
3.380290591
3.958720728
4.588056245
5.261859626
5.972216983
6.709816797
7.465653762
8.227641873
8.986389768
9.73323634
10.46077836
11.16452909
11.84076045
12.48421236
13.08795915
13.65019125
14.16921651
14.64601443
15.08645511
15.4930471
15.86847091
16.20907363
16.51744149
16.79421389
17.04322604
17.26952468
17.47704392
17.66464647
17.82958318
17.97835299
18.10405485
18.20391569
18.27892267
18.33479696
18.37296004
18.39214817
18.39184636
18.36534174
18.31677631
18.23783792
18.13184061
18.0026649
17.8502311
17.67279946
17.46829925
17.23614932
16.97513789
16.67994372
16.34571061
15.97367811
15.56947376
15.13923113
14.68304258
14.19760936
13.67677255
13.1270824
12.56109888
11.98043164
11.38486663
10.7751118
10.16350916
9.551674694
8.96198046
8.390981244
7.839258969
7.317294591
6.836136791
6.408032058
5.922240565
5.305086621
4.812672195
3.191380794
0.5592824246
-3.131752876
)


101
(
3.065898184e-11
5.275775786e-07
4.059063099e-05
0.0003088899417
0.001186446946
0.003174484908
0.006813733749
0.01275032873
0.02168975072
0.03439026075
0.05175422015
0.07479742737
0.1046167811
0.1425096038
0.1902361572
0.2498475326
0.3237803425
0.4150870638
0.5277315898
0.6656580848
0.8341071776
1.038802459
1.285249605
1.57880932
1.925082433
2.328685428
2.792482493
3.317379322
3.902850003
4.546376326
5.243020578
5.986353477
6.768374194
7.580605406
8.410927773
9.249724683
10.0872263
10.91426395
11.72506477
12.51565899
13.28032867
14.01108776
14.70404207
15.35453801
15.96080126
16.52758441
17.05783595
17.55602324
18.01965774
18.44890235
18.84301014
19.20471078
19.5377299
19.84747919
20.13470323
20.39684789
20.63892302
20.8529137
21.03753064
21.18978623
21.31022604
21.40740138
21.47886726
21.52247895
21.53095968
21.50632243
21.43888928
21.3298393
21.18194288
20.99631828
20.76668681
20.49537231
20.18034555
19.81883019
19.40704774
18.94008388
18.41277928
17.83074293
17.20641236
16.54353243
15.8416623
15.09432396
14.30809851
13.49944205
12.67517
11.8451004
11.00449934
10.17436878
9.358637827
8.585180779
7.864564198
7.183661873
6.562989018
6.015156793
5.555973223
5.031205378
4.347765469
2.603023867
-0.4202771852
-4.253387166
-8.370785271
)


101
(
2.508384523e-11
4.162003045e-07
3.774205436e-05
0.000289251318
0.001113314017
0.002982557241
0.006409683172
0.01200587925
0.02044891543
0.03247233483
0.0489543452
0.07089630402
0.0993999211
0.1357389573
0.1816368029
0.2391082397
0.3105320818
0.3988711792
0.5079795106
0.641717728
0.8052495011
1.004274092
1.244438796
1.531468804
1.871417121
2.269887865
2.730883044
3.256494754
3.847704695
4.503637569
5.220863446
5.994481465
6.818130064
7.684386031
8.581567335
9.50012142
10.42955205
11.35903321
12.28102857
13.19087174
14.0827936
14.94848211
15.78267484
16.5782176
17.32990353
18.03969715
18.70994289
19.3465894
19.94923222
20.51636781
21.04519347
21.53723858
21.99392751
22.41952211
22.81749903
23.18793243
23.53340599
23.84500131
24.120698
24.35443194
24.54185406
24.69387339
24.80676844
24.8783731
24.90320405
24.87604046
24.78901364
24.63884714
24.42510583
24.1487078
23.80374407
23.39193415
22.90868958
22.35317781
21.72493169
21.01821512
20.22541112
19.34917872
18.40462197
17.40414555
16.35566555
15.2564387
14.11160996
12.94134981
11.76753007
10.6053788
9.45519499
8.340838242
7.275337655
6.290099301
5.413944965
4.618334867
3.9361276
3.374924776
2.958267922
2.473811587
1.822990338
-1.321809536
-5.430690321
-9.711182279
-12.8206572
)


101
(
2.010838239e-11
3.13863316e-07
3.505773214e-05
0.0002706828965
0.001044182485
0.00280135627
0.006028863125
0.01130594475
0.01928480369
0.03067682406
0.04633785635
0.0672533985
0.09453046541
0.1294239938
0.1736213758
0.2291034536
0.2981929532
0.3837671544
0.4895769802
0.6194106598
0.7783405131
0.9720213489
1.206145803
1.486773487
1.820284665
2.213118964
2.670433728
3.19551714
3.790664065
4.456532243
5.191262788
5.991455246
6.852380526
7.768214423
8.728365633
9.723522509
10.74303532
11.77476423
12.80910919
13.84032644
14.86254127
15.86760186
16.84959255
17.79971476
18.70937717
19.57685471
20.40222797
21.19146025
21.94549145
22.66366358
23.34186683
23.97905445
24.57507886
25.12836113
25.64442302
26.12626464
26.57675953
26.98524855
27.34861362
27.65727228
27.90376041
28.09245388
28.22093586
28.28552917
28.28621693
28.20649417
28.04056958
27.78016715
27.42086358
26.96493985
26.4043181
25.7360046
24.95718287
24.07032079
23.07759775
21.97651389
20.76104024
19.43032116
18.00225859
16.500017
14.94778214
13.34620993
11.70721253
10.05621832
8.430406068
6.858501659
5.349847577
3.926800288
2.615771467
1.449994425
0.4784264413
-0.3419726002
-0.9756359619
-1.419641286
-1.647531225
-1.929023786
-2.342461785
-6.543982872
-10.77598816
-14.27044585
-14.95876357
)


101
(
1.570295063e-11
2.202341358e-07
3.252988782e-05
0.0002531340968
0.0009788472825
0.002630273892
0.005669806143
0.01064735449
0.01819132409
0.02899305878
0.04388740519
0.06384346923
0.08997000438
0.1235080444
0.1661097458
0.2197229124
0.2866149999
0.3695765101
0.4722592495
0.5983871528
0.7529393226
0.941496665
1.169749623
1.444000971
1.770865845
2.157429038
2.609942809
3.132890921
3.72970592
4.402502655
5.151062286
5.973498983
6.866460924
7.825660944
8.842354611
9.90795712
11.01243076
12.14284314
13.28741662
14.43914021
15.59157333
16.73671391
17.86861875
18.97768872
20.05296976
21.08885497
22.08140469
23.03393687
23.94822837
24.8256825
25.66205754
26.45402649
27.19873463
27.88756534
28.52477608
29.1144993
29.66083737
30.15197925
30.58466205
30.94679614
31.22480563
31.41402218
31.51208181
31.51017467
31.41353067
31.19896898
30.85868732
30.38046903
29.75540291
28.98495259
28.05902861
26.97431453
25.72888262
24.32695724
22.77599495
21.08212338
19.24483816
17.26778523
15.17730525
12.99971573
10.78519568
8.545995984
6.307632039
4.105101095
1.990647703
0.008688927891
-1.817299894
-3.468155122
-4.90760952
-6.10283213
-6.993062409
-7.631609438
-7.995596824
-8.091697167
-7.897860211
-7.722473775
-7.581985683
-11.90582954
-14.87033536
-16.37409311
-13.97547837
)


101
(
1.18354737e-11
1.347588958e-07
3.015090259e-05
0.0002365564542
0.0009171138349
0.002468739358
0.005331143249
0.01002719361
0.01716297361
0.02741145628
0.04158743399
0.06064350325
0.08568509802
0.1179427101
0.1590339685
0.2108735419
0.2756751153
0.3561388551
0.4558166824
0.578370925
0.728692164
0.9122546729
1.134718857
1.402562455
1.722568912
2.102245312
2.54873037
3.06763461
3.663468886
4.339730795
5.097882781
5.937636841
6.856895738
7.852124701
8.916915675
10.04414289
11.22515562
12.44718395
13.69635465
14.96418533
16.24335271
17.52553773
18.80484842
20.07168223
21.31404464
22.52265877
23.68880352
24.81136408
25.89119165
26.93056412
27.92625185
28.87394057
29.76665412
30.59038447
31.34400103
32.02988512
32.65021141
33.19523311
33.6595226
34.03097475
34.28737235
34.41608028
34.40825647
34.25015495
33.94467934
33.47220303
32.81762485
31.96775668
30.90985067
29.64044844
28.15189365
26.44262736
24.51616508
22.38053141
20.04986884
17.54426435
14.87884833
12.07221307
9.159970048
6.181245267
3.208778409
0.2853344406
-2.551258417
-5.247238668
-7.741554732
-9.972426005
-11.90438219
-13.5263268
-14.80204261
-15.70399413
-16.18439081
-16.29943145
-16.0669725
-15.49847412
-14.60421546
-13.67520281
-12.6342644
-15.77850154
-16.3047051
-15.34902981
-10.3123785
)


101
(
8.479908145e-12
5.696281104e-08
2.791423936e-05
0.0002209036805
0.0008587979763
0.002316218177
0.005011606983
0.009442792945
0.01619477228
0.02592342603
0.03942407001
0.05763254314
0.08164634261
0.1126864064
0.1523364283