/*--------------------------------*- C++ -*----------------------------------*\
| =========                 |                                                 |
| \\      /  F ield         | OpenFOAM: The Open Source CFD Toolbox           |
|  \\    /   O peration     | Version:  2.3.1                                 |
|   \\  /    A nd           | Web:      www.OpenFOAM.org                      |
|    \\/     M anipulation  |                                                 |
\*---------------------------------------------------------------------------*/
FoamFile
{
    version     2.0;
    format      ascii;
    class       dictionary;
    location    "constant";
    object      la_r18;
}
// * * * * * * * * * * * * * * * * * * * * * * * * * * * * * * * * * * * * * //

la_r18_table
101
(

101
(
-2.851835509e-11
4.606870629e-06
0.0002324747498
0.001869032283
0.007452125856
0.02047302689
0.045208459
0.08793736393
0.1549938386
0.2544836199
0.394816555
0.5856255705
0.8397925571
1.16302754
1.56771078
2.065974335
2.661096375
3.320287028
4.126918358
4.893455706
5.743779598
6.666847909
7.421584282
8.067702952
8.609806457
9.007456931
9.240486668
9.307344945
9.137642515
8.748460917
8.118216184
7.27076385
6.284455142
4.827990434
3.203704707
1.351872251
1.699543109
3.800036598
1.451427736
-1.0602041
-3.657165925
-6.298608602
-8.958204212
-11.60038871
-14.20370775
-16.72516957
-19.16147075
-21.45743052
-23.62010083
-25.5993563
-27.40226281
-29.00408053
-30.39822439
-31.57535977
-32.52947717
-33.27016993
-33.75098562
-34.04512253
-34.10474451
-33.97319298
-33.63147984
-33.1270982
-32.46336192
-31.64841452
-30.68582535
-29.61908706
-28.45346808
-27.2023954
-25.88362228
-24.52026108
-23.12145987
-21.70669809
-20.2878147
-18.88906782
-17.60640092
-16.25756143
-14.81979616
-13.42288962
-12.07589542
-10.78484635
-9.559931968
-8.407010302
-7.339402791
-6.398790326
-5.430649421
-4.516527259
-3.690763193
-2.954376801
-2.31280555
-1.792450728
-1.289487786
-0.8762606359
-0.5608761566
-0.3125814797
-0.1433645803
-0.03529467409
-2.812213272e-13
-1.494472685e-30
1.50636963e-23
-1.14634375e-23
-3.083422511e-24
)


101
(
-3.094839909e-11
1.876940842e-06
0.0002102929625
0.00174628876
0.00695479004
0.0189869729
0.04161299406
0.08023339496
0.1402056386
0.228189586
0.3509390255
0.5159780992
0.7336466565
1.007376961
1.346321881
1.759376979
2.247816708
2.783357758
3.429009687
4.046365645
4.710503634
5.433372735
6.044545135
6.555957099
6.985026409
7.312873132
7.525052493
7.620607569
7.55749955
7.331945491
6.931640994
6.360967045
5.656786314
4.652260205
3.412905363
1.954726659
1.457300816
2.253931995
1.54228103
-0.1559448746
-2.137537207
-4.201303827
-6.264164946
-8.306731468
-10.31726544
-12.26147021
-14.13488853
-15.90817915
-17.57232498
-19.1034761
-20.49539449
-21.73601701
-22.82019372
-23.75385981
-24.52490852
-25.1268027
-25.54287454
-25.80022348
-25.89179959
-25.83311938
-25.62572689
-25.28595911
-24.82701158
-24.25752927
-23.58436098
-22.81937654
-21.97909811
-21.07349859
-20.11392346
-19.11391092
-18.08316423
-17.03249442
-15.97157351
-14.91545387
-13.90179581
-12.90684173
-11.88830047
-10.85872725
-9.843048949
-8.860042451
-7.921457105
-7.03143041
-6.195533581
-5.432103043
-4.715663339
-4.023048522
-3.368875796
-2.772467841
-2.239409078
-1.777998114
-1.376109681
-1.015268047
-0.7117113851
-0.4709610635
-0.2807388754
-0.138743607
-0.04283814572
-0.04267298137
-0.04289923091
-0.0437364508
-0.04469816472
)


101
(
-3.322905303e-11
-6.726671622e-07
0.000189305426
0.001630098109
0.00648782028
0.01760458739
0.0383013449
0.07321424816
0.1268702353
0.2047312922
0.3122118769
0.4551693448
0.6419573041
0.8744710679
1.159442909
1.503587295
1.907189772
2.346260055
2.868606686
3.37294492
3.902934425
4.4816497
4.992773703
5.425738402
5.799516368
6.111266225
6.354451158
6.530047177
6.613539559
6.594195506
6.461423082
6.211283524
5.854270257
5.302398025
4.523673232
3.539378861
2.994653326
3.198322333
3.044174671
2.183172419
0.8921281377
-0.5947354937
-2.115938706
-3.634378559
-5.148905834
-6.629530241
-8.069342461
-9.456446028
-10.77713617
-12.01853821
-13.17166532
-14.22709959
-15.1749541
-16.01777892
-16.75682336
-17.38573843
-17.89404373
-18.28388228
-18.55260357
-18.70907702
-18.75179251
-18.69049314
-18.5343553
-18.28560886
-17.95002494
-17.5346713
-17.0505832
-16.50330578
-15.8983024
-15.2481619
-14.55829274
-13.83704928
-13.08787112
-12.32349601
-11.56204288
-10.81058235
-10.05718243
-9.292371342
-8.518763643
-7.750448869
-7.003810882
-6.28785317
-5.606250402
-4.966579784
-4.371791506
-3.811359702
-3.273512495
-2.765856641
-2.302448747
-1.887816011
-1.520620698
-1.197183482
-0.9069788827
-0.661872981
-0.4623591047
-0.2910391196
-0.150621683
-0.1558305248
-0.1615223957
-0.1696271105
-0.1776404451
)


101
(
-3.536414881e-11
-3.043637853e-06
0.0001695350619
0.001520520804
0.006050768985
0.01632243014
0.03525927853
0.06683579362
0.1148750421
0.1838533815
0.2781103398
0.4021983909
0.5629206312
0.7612066533
1.001983427
1.290521067
1.626814122
1.990892147
2.419039756
2.838274714
3.272191658
3.74806256
4.190333573
4.580410753
4.93477663
5.261478094
5.561916312
5.839873931
6.082486861
6.278237466
6.416093012
6.489621902
6.494005624
6.379828585
6.080126995
5.53020922
5.282137011
5.386185747
5.477754287
5.232646783
4.594800678
3.696704523
2.697793625
1.657767529
0.5921484548
-0.471548586
-1.531181353
-2.576862895
-3.606335999
-4.604874674
-5.571286783
-6.492332392
-7.356819745
-8.163734865
-8.914182586
-9.599534241
-10.22601194
-10.78108622
-11.25716289
-11.66100317
-11.98248654
-12.22545517
-12.39534847
-12.49096503
-12.51581829
-12.47478544
-12.36908943
-12.20441043
-11.97334052
-11.6883539
-11.35573713
-10.9801214
-10.55913763
-10.10184087
-9.619082608
-9.1199497
-8.607544959
-8.077476656
-7.525225983
-6.953994186
-6.37693041
-5.808556382
-5.255573769
-4.723321326
-4.21733836
-3.739677957
-3.284640092
-2.844657387
-2.429918197
-2.050304074
-1.706836812
-1.399907739
-1.124112765
-0.8774233974
-0.6689202556
-0.4772187431
-0.3012224587
-0.3189119927
-0.3366265058
-0.3577891776
-0.378279358
)


101
(
-3.735753645e-11
-5.242428407e-06
0.0001509302132
0.001417190739
0.0056416709
0.01513299123
0.0324639216
0.06103678903
0.1040789033
0.1652570942
0.2480516455
0.3559950192
0.4946789814
0.6644668118
0.8689584373
1.112463721
1.395092974
1.700562145
2.056452639
2.411082716
2.775767562
3.177908815
3.571992442
3.939426855
4.293756066
4.649496133
5.015043566
5.398031187
5.793994887
6.193673886
6.584393923
6.961038851
7.309331091
7.601461471
7.774127702
7.767236895
7.824630576
8.087829819
8.427163954
8.623274061
8.550169546
8.223678676
7.75049778
7.190745707
6.569758127
5.916992551
5.233546184
4.527533824
3.795879457
3.053997632
2.296042044
1.532438665
0.7759340035
0.03477109272
-0.6954639179
-1.413549636
-2.108853152
-2.783040016
-3.421452754
-4.037185104
-4.607550401
-5.126900402
-5.600242292
-6.019022691
-6.386240157
-6.71426562
-6.992588291
-7.218678794
-7.383320374
-7.488112916
-7.550296434
-7.56234108
-7.520138832
-7.4229778
-7.279966042
-7.09718053
-6.883074752
-6.631992617
-6.343558685
-6.014399916
-5.649233655
-5.264225343
-4.86869761
-4.469143028
-4.072743665
-3.685081361
-3.308827765
-2.938519113
-2.574952804
-2.230564091
-1.911711349
-1.619085172
-1.352943539
-1.108695916
-0.8941736615
-0.6888321897
-0.4869624249
-0.5204758579
-0.552562929
-0.5813268606
-0.6111204701
)


101
(
-3.921309977e-11
-7.275342243e-06
0.0001334416402
0.001319764626
0.005258696938
0.01402934219
0.02989440517
0.05576207936
0.09435614831
0.1486799621
0.2215306003
0.3156457091
0.4356673658
0.5816713144
0.7562968459
0.963206342
1.20284786
1.462241174
1.762418931
2.067563745
2.381892507
2.730732088
3.090112563
3.445449564
3.8081919
4.196437331
4.624060259
5.102882747
5.635288481
6.216168249
6.834266438
7.479949341
8.139042705
8.792974937
9.387179655
9.867138391
10.32633222
10.87801029
11.50519652
12.08792816
12.50647326
12.71769747
12.76946195
12.70514067
12.54713124
12.32332376
12.03966483
11.70886714
11.32464874
10.89364508
10.4056007
9.865112629
9.285226903
8.681984908
8.054738537
7.392399286
6.707216354
6.001170167
5.295678389
4.563945372
3.823879811
3.1068764
2.395908254
1.712695384
1.061052774
0.4203807689
-0.2020530782
-0.7985915617
-1.360120942
-1.855034125
-2.322158132
-2.750304194
-3.134452186
-3.459526987
-3.72967784
-3.945875934
-4.112914457
-4.231012592
-4.303195703
-4.313755242
-4.261266923
-4.151286983
-4.005608806
-3.823075244
-3.614364489
-3.385501957
-3.145783254
-2.889991755
-2.618776891
-2.340609524
-2.07159791
-1.813736044
-1.568946628
-1.338143164
-1.126399029
-0.9157690492
-0.6972488791
-0.7380097435
-0.7685403356
-0.7284933869
-0.7017023385
)


101
(
-4.093474178e-11
-9.148526645e-06
0.0001170223985
0.001227920654
0.004900145397
0.01300509271
0.0275316895
0.05096188831
0.0855945342
0.1338901601
0.1981060276
0.2803623306
0.3845518093
0.5106517932
0.660617407
0.8376601781
1.04266284
1.265541149
1.522423097
1.789179327
2.066274632
2.375924163
2.709130955
3.056813367
3.429406319
3.846926306
4.327292365
4.886089362
5.531500117
6.263626888
7.074375004
7.95268075
8.883667769
9.852378864
10.81531469
11.72357022
12.59864024
13.50613006
14.46584907
15.42402461
16.29242459
17.00744788
17.57611025
18.01951289
18.34975699
18.58752228
18.74064461
18.82995354
18.85055565
18.79907923
18.66565712
18.4404898
18.13430143
17.76741059
17.35213429
16.86391502
16.30641971
15.68861672
15.02776074
14.30460702
13.53368746
12.74279919
11.91820119
11.07318841
10.23050495
9.373392978
8.495561356
7.605788448
6.710161559
5.846079324
5.004019783
4.182453272
3.379941092
2.612389153
1.885568767
1.207355804
0.5870016814
0.01182783558
-0.5202372939
-0.988323363
-1.380808809
-1.681821565
-1.923536469
-2.101701816
-2.217050869
-2.282626449
-2.307607879
-2.289515029
-2.218210786
-2.100532813
-1.964069709
-1.81462623
-1.646301981
-1.473709982
-1.299381043
-1.113192567
-0.9057553142
-0.8707776591
-0.7852087657
-0.2968864091
0.0677735491
)


101
(
-4.25263738e-11
-1.086797913e-05
0.0001016276443
0.00114135687
0.004564435247
0.01205437541
0.02535853474
0.04659167567
0.07769415439
0.1206834057
0.1773939304
0.2494666232
0.3401995673
0.4495912502
0.5791237362
0.7316727584
0.908562381
1.102203374
1.325071507
1.561540674
1.810408125
2.090440263
2.402542368
2.743220141
3.12269998
3.562044781
4.082152075
4.701756849
5.433848072
6.284048904
7.24897255
8.318994033
9.479323791
10.71532829
11.99397166
13.27293441
14.54011434
15.82246435
17.14236147
18.47819106
19.77219586
20.96241891
22.03543709
22.99164417
23.83196972
24.56815584
25.20215685
25.75598422
26.23289983
26.62629951
26.92562706
27.10791968
27.1827061
27.16649028
27.07397745
26.88640092
26.60172785
26.21443999
25.74356213
25.17007993
24.50820922
23.78766824
22.99738571
22.14856448
21.2576778
20.32179396
19.32304512
18.27841832
17.17841121
16.05964594
14.9344858
13.79209468
12.63674902
11.4748797
10.32097089
9.180361268
8.084507382
7.021791078
5.988158062
4.989944105
4.043251996
3.189632885
2.425865404
1.723527403
1.11445801
0.578979899
0.1070446896
-0.3053198004
-0.6180856522
-0.843360772
-1.001189433
-1.126903369
-1.172515347
-1.177407745
-1.145592338
-1.077202624
-0.98543649
-0.5221691312
0.09552184463
2.16031337
3.693119761
)


101
(
-4.39919333e-11
-1.243956226e-05
8.721454126e-05
0.001059789966
0.004250095047
0.01117178596
0.02335929467
0.04261159882
0.07056610896
0.1088798065
0.159059891
0.2223760436
0.3016495727
0.3969706131
0.5095043745
0.6418578549
0.7957436344
0.9656801692
1.16143797
1.373506682
1.600247174
1.857027722
2.150823153
2.483110245
2.864313605
3.316010416
3.86136
4.521654842
5.31367173
6.248226119
7.327592588
8.546179723
9.891069178
11.34625609
12.88772056
14.47875621
16.09329101
17.73407031
19.41529944
21.12518917
22.82797663
24.47300282
26.03324332
27.49523846
28.85228049
30.10943372
31.26201319
32.32554195
33.31035806
34.20684464
34.99979922
35.67100921
36.22298801
36.65510775
36.99566384
37.23338113
37.34875895
37.33442672
37.20816008
36.94835237
36.56455461
36.08362938
35.48701523
34.80219508
34.03898319
33.20642912
32.28225444
31.2620533
30.13628974
28.91566463
27.65026313
26.32377038
24.97062019
23.56478086
22.0991462
20.59387638
19.0868787
17.58087672
16.07420049
14.5514785
13.04369238
11.5784208
10.21591569
8.884098347
7.646983301
6.464357936
5.385125633
4.334947019
3.417786489
2.619443148
1.920786104
1.274116413
0.7845322313
0.3878827103
0.06081968943
-0.1784743356
-0.4683319914
1.337675911
3.42444524
9.109874791
13.55994685
)


101
(
-4.533537095e-11
-1.386900855e-05
7.374208286e-05
0.0009829542425
0.003955754761
0.01035232355
0.02151962939
0.03898564679
0.06413096865
0.09832026449
0.1428112767
0.1985867732
0.2680805863
0.3515099263
0.4498367055
0.5654376386
0.7003289503
0.8507720602
1.024539802
1.216459129
1.425156424
1.662876892
1.939739876
2.26137224
2.638482566
3.092734692
3.648846148
4.330084327
5.156051252
6.141944156
7.295800693
8.617925024
10.09987823
11.72438557
13.47365269
15.31708912
17.22513502
19.1873312
21.20864577
23.27563329
25.36357717
27.4329786
29.45495595
31.40670094
33.27523341
35.05979957
36.75105431
38.35743646
39.88438209
41.32393171
42.66484658
43.89333206
45.00044133
45.9782881
46.84973112
47.60507099
48.23986475
48.7198118
49.07781538
49.28782733
49.34248293
49.27626569
49.05948583
48.72139495
48.270087
47.71714346
47.05573835
46.25808495
45.31621371
44.23236474
43.04719567
41.75604491
40.37522279
38.90884033
37.33818921
35.66759307
33.91129629
32.10656276
30.2761959
28.35570789
26.36390905
24.37409147
22.43051078
20.51132632
18.59820653
16.69918026
14.92858157
13.12378535
11.42986486
9.86044268
8.37973368
6.971451433
5.75302797
4.693507744
3.696949675
2.813864561
1.760111495
6.534734391
11.46503034
22.81649642
32.10760608
)


101
(
-4.656063716e-11
-1.516191627e-05
6.117101032e-05
0.0009106007998
0.003680144395
0.009591381601
0.01982640477
0.03568114497
0.05831809769
0.08886532457
0.128393401
0.1776636744
0.2387901693
0.312128462
0.3985170811
0.5001249843
0.619172326
0.7533296643
0.908887693
1.083691547
1.276998218
1.498366546
1.759006989
2.067539259
2.43499942
2.882664541
3.436067943
4.119881501
4.955731105
5.962267916
7.152562611
8.533216229
10.10235515
11.84425821
13.74558848
15.78120029
17.92333107
20.1553345
22.47326453
24.8610248
27.29947705
29.7570489
32.20620155
34.61993647
36.98094785
39.28298452
41.51200933
43.66870164
45.75144751
47.75612016
49.67529243
51.50025849
53.21618484
54.80773137
56.2755264
57.63219422
58.87829404
59.96690316
60.92626786
61.73587425
62.37318655
62.86611342
63.20089741
63.38366712
63.41723429
63.31320913
63.10475597
62.73905299
62.21343447
61.49920654
60.62699321
59.59874584
58.44581203
57.16735563
55.74311841
54.14379162
52.38733788
50.5267931
48.58147308
46.49600253
44.24723777
41.92806777
39.56749091
37.20671464
34.75955202
32.20248098
29.76033476
27.24161296
24.74099722
22.36972764
19.97577299
17.65255359
15.51852001
13.57396211
11.6699633
9.772549341
7.408903843
17.3338758
26.42877219
43.93008432
54.15512138
)


101
(
-4.767168965e-11
-1.632377236e-05
4.946362588e-05
0.0008424952647
0.003422078912
0.008884696413
0.01826758179
0.03266850037
0.05306431233
0.08039195327
0.1155836637
0.1592308348
0.2131780345
0.2779152047
0.3542118139
0.4440436158
0.5497310774
0.6700563707
0.8102017181
0.9700620216
1.149656661
1.356364899
1.601163998
1.894333424
2.24730636
2.680412373
3.219101762
3.889008948
4.713223699
5.712880298
6.904981875
8.301862967
9.909114504
11.71558857
13.71252841
15.8792856
18.19160422
20.6311136
23.18806249
25.84468655
28.58506865
31.38358407
34.21365822
37.0481396
39.86711141
42.65791634
45.4012769
48.09187397
50.72514443
53.29639031
55.79890725
58.22724755
60.56979272
62.80429558
64.91757718
66.94037545
68.84988744
70.62039667
72.25553161
73.75903606
75.09287808
76.26892502
77.28072449
78.12487844
78.81039358
79.33049128
79.71714503
79.96139422
80.03892926
79.91079926
79.58821093
79.06347468
78.3723494
77.52054382
76.49257607
75.23930899
73.77229638
72.1453456
70.34059947
68.36689293
66.17390315
63.80081852
61.31072789
58.76435438
56.04068145
53.05885826
50.11439853
47.10304942
43.99661692
40.87962265
37.66573787
34.49365402
31.42181299
28.52644605
25.65508643
22.60050676
18.72709127
34.85840712
48.10325292
70.75454312
81.51752105
)


101
(
-4.86724929e-11
-1.735994801e-05
3.85837261e-05
0.0007784172121
0.003180453427
0.008228320635
0.01683210177
0.02992087207
0.04831323042
0.0727914586
0.1041871791
0.1429633919
0.1907316868
0.2481027087
0.3158121146
0.3956536181
0.4899560312
0.5983439219
0.7251698498
0.8716533664
1.038537376
1.231539983
1.460592127
1.736403231
2.070546505
2.482132802
2.995915813
3.637897094
4.432094313
5.401176428
6.564907994
7.940326106
9.540168355
11.35952487
13.39560359
15.6323199
18.04918157
20.62821923
23.35657058
26.21761782
29.19779058
32.27694967
35.42831754
38.62500878
41.84603294
45.07476722
48.28968164
51.47918079
54.63444629
57.7501672
60.81746034
63.83267608
66.78842955
69.66297291
72.43928245
75.13690351
77.73751019
80.21623704
82.57319225
84.81391743
86.90523644
88.84198827
90.62036786
92.22647825
93.66387621
94.94501277
96.06445624
97.03726015
97.85648294
98.46350486
98.8691355
99.0486276
99.00943789
98.77999985
98.35801037
97.7020838
96.77992171
95.62585498
94.26001644
92.66304402
90.79365893
88.67288777
86.35494508
83.89246302
81.23988046
78.20377961
75.01630096
71.77022994
68.37095218
64.79297808
61.0187952
57.26664131
53.51059464
49.79717568
46.11057791
42.00350671
36.75663785
59.02307057
74.5225345
97.79868637
101.9052713
)


101
(
-4.956703574e-11
-1.82757022e-05
2.849648346e-05
0.000718158981
0.002954237637
0.007618602539
0.01550978542
0.02741381043
0.04401472932
0.06596854481
0.0940330534
0.1285801596
0.1710126391
0.2220406143
0.282389197
0.3536819963
0.4381886387
0.5361402579
0.6512440824
0.7855169047
0.940230456
1.119912026
1.333085356
1.590017299
1.901946521
2.286435039
2.767078923
3.369695642
4.118726126
5.037484034
6.147302925
7.468762327
9.020803379
10.80468928
12.82472638
15.0704489
17.52568159
20.17408293
23.00143524
25.99410993
29.14073113
32.42645739
35.8254321
39.31163675
42.86237682
46.45838511
50.07904849
53.70791106
57.33425446
60.95028023
64.53848658
68.09684859
71.62665868
75.10503562
78.51374723
81.85961842
85.14109282
88.32068563
91.40388431
94.38360993
97.24376261
99.95875934
102.5274803
104.9370426
107.1890563
109.2800403
111.1982913
112.9684154
114.573222
115.9962941
117.2155691
118.2090522
118.9424835
119.4493377
119.7416736
119.7945028
119.5745913
119.0873265
118.3117251
117.2809648
115.9305609
114.2908747
112.3609439
110.2049931
107.870071
105.104549
101.981946
98.76153173
95.3725572
91.72771872
87.73217469
83.74057284
79.62520744
75.51320723
71.30449261
66.50490679
60.35572276
85.94406385
99.37631093
116.8130788
109.4533699
)


101
(
-5.035928247e-11
-1.907619548e-05
1.916834617e-05
0.0006615247833
0.002742469601
0.007052166387
0.01429131364
0.0251251163
0.04012379411
0.05983911028
0.08497193462
0.1158382135
0.1536470839
0.1991822834
0.2531731093
0.3170838691
0.3930825751
0.4818108596
0.5864397836
0.7094335823
0.8522871973
1.018734167
1.215795547
1.452800747
1.74017272
2.093531894
2.534814637
3.089020708
3.780595334
4.633002076
5.66813033
6.908450492
8.377477742
10.08235403
12.03467539
14.23074857
16.6597516
19.30817105
22.16145949
25.20749006
28.43876499
31.84734772
35.40931369
39.0999186
42.89460529
46.77162194
50.71315246
54.69936017
58.71920835
62.76193975
66.80473581
70.84219767
74.87964046
78.89509031
82.87365562
86.81456476
90.71763065
94.55190955
98.30740709
101.9814904
105.5641622
109.0200399
112.3363996
115.5163081
118.5569273
121.4293315
124.1368858
126.6698645
129.048766
131.2483284
133.241651
135.0165867
136.5170445
137.7570662
138.7453889
139.4720741
139.9446289
140.1081769
139.9483157
139.5002758
138.6764484
137.5369253
136.0747436
134.3036971
132.3028249
129.9247614
127.1150863
124.0527678
120.8692953
117.4428171
113.4978307
109.638488
105.3840594
101.2564721
96.92811576
91.86340143
85.06082038
108.4983196
113.8088791
118.9939666
98.39101306
)


101
(
-5.105319383e-11
-1.976648782e-05
1.056696842e-05
0.0006083300365
0.002544251161
0.006525885468
0.01316815721
0.02303462825
0.03659998768
0.05432886574
0.07687466179
0.1045266033
0.1383155584
0.1790692977
0.2275292135
0.2850082091
0.353541439
0.4340266955
0.529156403
0.6415671981
0.7727701545
0.9259704436
1.106787709
1.323267001
1.584708513
1.904456729
2.302207819
2.801472263
3.426255839
4.199907069
5.144288602
6.282183918
7.639342131
9.227833853
11.06624365
13.15815712
15.49930315
18.08027128
20.88707067
23.90786737
27.13960674
30.58002932
34.21015863
38.00974257
41.95422321
46.01638383
50.17866619
54.42291217
58.73759908
63.10935831
67.51697398
71.94746485
76.40094205
80.86048762
85.31443247
89.75591029
94.1826991
98.5742341
102.9072008
107.1775635
111.3702818
115.4616076
119.4219846
123.2631976
126.9715722
130.5076556
133.8736339
137.0529267
140.0653387
142.8796845
145.475287
147.8473191
149.9269643
151.7265552
153.2284807
154.4098316
155.3228243
155.9028486
156.1641568
156.0661787
155.5634444
154.7223997
153.5080768
151.9675169
150.1709992
147.9963059
145.4190928
142.5012602
139.4509542
136.2528287
132.4440302
128.8319831
124.6905833
120.711212
116.5862039
111.4358369
104.1463538
119.1010652
110.7746681
99.25151757
58.78418124
)


101
(
-5.165272054e-11
-2.035154204e-05
2.661142045e-06
0.0005584004518
0.002358744629
0.006036872516
0.01213251712
0.02112403348
0.03340691248
0.04937208192
0.06962914366
0.09446254412
0.1247443701
0.1613162419
0.2049324642
0.2567614431
0.3186768599
0.3917130702
0.4781183309
0.5804740105
0.70023981
0.8402007726
1.00480418
1.200540819
1.435486598
1.720536901
2.072509869
2.512785064
3.064429179
3.750402405
4.592147069
5.611683338
6.834935349
8.277053815
9.962460178
11.90205466
14.09890157
16.54912208
19.24044651
22.16065125
25.30864592
28.68857287
32.28840841
36.09401238
40.08366217
44.22640413
48.50296882
52.89471537
57.38925843
61.97464452
66.63402684
71.3472002
76.1042439
80.89180116
85.69521378
90.5048307
95.31952019
100.1245954
104.8873582
109.5991229
114.2426159
118.7935666
123.2204134
127.5258283
131.6792985
135.6673537
139.4569577
143.0267175
146.3903507
149.5189483
152.4038158
155.0203996
157.3167957
159.2916839
160.9168337
162.1537413
163.0347535
163.5872662
163.774831
163.5708037
162.9497592
161.9377919
160.4952571
158.7487665
156.7193488
154.3625631
151.6547748
148.6127647
145.4079326
142.1758187
138.4230389
134.8738341
130.9221292
127.0623774
123.2042766
118.0950648
110.63215
111.256174
86.36131677
58.28886874
7.780245432
)


101
(
-5.216180312e-11
-2.083623297e-05
-4.579571243e-06
0.0005115710237
0.002185166777
0.005582459101
0.01117726294
0.01937670801
0.03051142834
0.04490996988
0.06313793965
0.08548855217
0.1126992933
0.1455970224
0.1849440083
0.2317727391
0.2877687432
0.3540202903
0.4323628282
0.5250938424
0.6336939554
0.760506497
0.9090394719
1.084117004
1.292530743
1.5428058
1.848478663
2.228158441
2.703367803
3.296254727
4.027499223
4.917775269
5.991725567
7.265483256
8.767320591
10.51475202
12.5182692
14.7802952
17.29177996
20.04072071
23.02655098
26.25823448
29.72926617
33.43472673
37.35998477
41.47327945
45.75153967
50.17202743
54.72352713
59.39397926
64.1711381
69.03366816
73.96170161
78.93759773
83.94307624
88.96159675
93.99143756
99.02096822
104.0167272
108.9614743
113.832274
118.5986884
123.232102
127.715564
132.0116401
136.1142274
139.9671471
143.5498129
146.8552954
149.8717777
152.5723563
154.9246774
156.897763
158.4751191
159.6240813
160.317889
160.581239
160.41517
159.8498952
158.8747461
157.4756142
155.614482
153.3358058
150.7472538
147.8898721
144.7555431
141.3716124
137.7629936
134.0081522
130.35663
126.4505484
122.6709888
118.7630124
114.9793915
111.2421818
106.1843472
98.66932977
82.33944952
42.58633148
2.949337465
-49.39126173
)


101
(
-5.258436228e-11
-2.122534417e-05
-1.118416941e-05
0.0004676859573
0.002022787273
0.005160182331
0.01029588724
0.01777762723
0.02788321612
0.040888777
0.05731626877
0.07746990468
0.1019814832
0.1316348544
0.1671891601
0.2095504519
0.2602013017
0.320227981
0.391105184
0.474715588
0.5725070662
0.6863707459
0.819031941
0.9737874203
1.156085137
1.372316765
1.632616102
1.952243606
2.350486562
2.848102914
3.464738975
4.219597139
5.135148589
6.226591343
7.523386272
9.048014132
10.81790164
12.84256344
15.1178861
17.63294456
20.3864794
23.38959736
26.64047943
30.14344001
33.89365974
37.86305501
42.02700264
46.35606674
50.83648176
55.45573208
60.20457571
65.06272733
70.00641622
75.00988473
80.04656797
85.09310889
90.1359162
95.16541873
100.1507587
105.0682908
109.8790954
114.5551209
119.0561071
123.3491214
127.3918867
131.1708998
134.6268881
137.7270457
140.4497868
142.7858794
144.690657
146.1547724
147.1436949
147.6280255
147.5857442
147.0056716
145.8905052
144.2530812
142.1804585
139.6749475
136.7365407
133.3331272
129.548975
125.5077795
121.2002176
116.7744053
112.236908
107.6450329
103.0268061
98.67362955
94.38527908
90.26845874
86.25766582
82.5292397
78.92577524
74.10441166
66.98391612
35.48622485
-12.73934014
-55.54041674
-98.61914627
)


101
(
-5.292429922e-11
-2.152357392e-05
-1.718095209e-05
0.0004265977869
0.001870924052
0.004767766278
0.009482447605
0.01631323641
0.02549513451
0.03726051194
0.05209005819
0.07029012144
0.09242082305
0.1191969437
0.1513590776
0.1896967572
0.235482523
0.2897615655
0.3537080986
0.428764323
0.5162103581
0.6175038445
0.7345781956
0.8695695549
1.026504628
1.20995452
1.426832851
1.688675853
2.011842653
2.415060194
2.916611044
3.53418474
4.287793522
5.190372565
6.2702026
7.552034815
9.058973691
10.80737635
12.79938901
15.02696952
17.48832768
20.1944459
23.14550732
26.35273455
29.8223736
33.53499085
37.46753431
41.58446011
45.86575698
50.29417046
54.86186147
59.55084189
64.3360153
69.1852744
74.06068913
78.92758542
83.75627854
88.53386962
93.22460743
97.802003
102.2182972
106.43656
110.4039374
114.0725761
117.3937326
120.3391859
122.854695
124.8949134
126.4229635
127.4258257
127.8656996
127.7426094
127.0192255
125.6745847
123.7066419
121.1138419
117.9091455
114.109582
109.8346553
105.1371629
100.0577483
94.59579189
88.83067987
82.92013478
76.90211231
70.88497397
65.03136391
59.37257993
53.91313172
48.93116355
44.3452057
40.04370934
36.19880278
32.79348169
29.64182708
25.49571724
19.67068347
-20.83749086
-68.18279945
-105.3191355
-131.5755775
)


101
(
-5.318549244e-11
-2.173553861e-05
-2.259738534e-05
0.0003881666366
0.001728939161
0.004403105305
0.008731516635
0.01497121189
0.02332266495
0.03398215565
0.04739133234
0.0638502423
0.08386884774
0.1080816284
0.1371912401
0.1718816687
0.2132141159
0.2621575415
0.3196467915
0.3867110059
0.4643464512
0.5535902165
0.6555875827
0.7715639273
0.9041727541
1.056469457
1.232601655
1.440322276
1.692418735
2.004875177
2.39417927
2.876560786
3.469511488
4.183362994
5.043089101
6.072825719
7.298941569
8.744054729
10.41722224
12.31517434
14.43629793
16.78985829
19.37562623
22.20848453
25.30373695
28.65253882
32.23934434
36.02569357
39.9823872
44.0828763
48.31681304
52.66601104
57.10658311
61.60355199
66.10743908
70.56693389
74.9326368
79.18127898
83.26728508
87.15914197
90.80492641
94.15407079
97.14455819
99.71370079
101.8034385
103.3699574
104.3648671
104.738095
104.4445162
103.4755735
101.7994672
99.42027486
96.32362835
92.51160349
88.00209503
82.81990531
77.00903703
70.59026226
63.71570976
56.50435232
49.06505339
41.40811111
33.63003867
25.92897856
18.39103795
11.06523491
4.237124095
-2.056048073
-7.823489216
-12.86604627
-17.18174201
-20.97881646
-24.06092832
-26.47525729
-28.55587281
-31.18004427
-34.45001881
-75.28520939
-112.8550075
-138.0446293
-145.0743733
)


101
(
-5.33718032e-11
-2.18657804e-05
-2.746129467e-05
0.0003522600113
0.001596237082
0.004064253736
0.008038148012
0.01374048385
0.02134394546
0.03101557001
0.0431597586
0.05806533998
0.07619837258
0.09811513536
0.1244641827
0.1558335125
0.1930757726
0.2370477943
0.2885000378
0.3481126173
0.4165370075
0.4943689367
0.5820336482
0.6799533264
0.7895368414
0.9125719232
1.051024923
1.209113741
1.395624757
1.623258228
1.90623367
2.259014108
2.69683016
3.227548502
3.871557364
4.650312093
5.59017095
6.718221782
8.049998077
9.588094231
11.33307724
13.29257988
15.46387574
17.86109624
20.50462966
23.39598199
26.53024167
29.87133721
33.38372388
37.02686048
40.77984854
44.62134865
48.52709642
52.4636271
56.37260151
60.18536231
63.82763829
67.2598339
70.41970101
73.26852417
75.75041287
77.80586995
79.36577525
80.35666765
80.70861766
80.37052352
79.29855055
77.44888944
74.78127891
71.29643997
66.97693888
61.84964483
55.93265798
49.25993238
41.88328475
33.86878499
25.30145244
16.23504605
6.868270589
-2.653883735
-12.15013792
-21.56397595
-30.78463069
-39.58734391
-47.8337849
-55.56545257
-62.44482361
-68.39418629
-73.4277259
-77.46408761
-80.51270255
-82.76976295
-84.15318851
-84.67046118
-84.82409264
-84.93017859
-84.3588241
-117.5483243
-139.743759
-150.726894
-141.0258294
)


101
(
-5.348736589e-11
-2.191956839e-05
-3.179756538e-05
0.0003187518992
0.001472259998
0.003749409898
0.007397781236
0.0126110402
0.01953957781
0.02832702351
0.03934182474
0.05285923936
0.06930040919
0.08915076305
0.1129925764
0.1413266416
0.1748083658
0.2141467153
0.2599455482
0.3126148185
0.3724555557
0.4395855011
0.5138051904
0.5948188806
0.6829422199
0.7788803946
0.8829025784
0.9962503858
1.123714382
1.274260219
1.459362621
1.691401045
1.983199292
2.340749605
2.779800813
3.317427993
3.977161391
4.787240339
5.768969674
6.930963848
8.277314992
9.814967007
11.53817106
13.4574783
15.59266629
17.95186694
20.54081477
23.33233999
26.28737607
29.35244151
32.49017058
35.6668397
38.85559989
42.02407071
45.11073698
48.03234782
50.69169484
53.02392691
54.9465795
56.40801659
57.35077432
57.71123459
57.41911142
56.39927718
54.57340013
51.89181913
48.32015572
43.83271642
38.41118451
32.0760092
24.84003721
16.76521678
7.91696424
-1.621927171
-11.75494198
-22.36880384
-33.32001385
-44.51016067
-55.70494095
-66.71612275
-77.34610897
-87.47146607
-96.97479589
-105.634527
-113.251133
-119.9916429
-125.5288173
-129.7959784
-132.7933247
-134.5158783
-135.1828878