/*--------------------------------*- C++ -*----------------------------------*\
| =========                 |                                                 |
| \\      /  F ield         | OpenFOAM: The Open Source CFD Toolbox           |
|  \\    /   O peration     | Version:  2.3.1                                 |
|   \\  /    A nd           | Web:      www.OpenFOAM.org                      |
|    \\/     M anipulation  |                                                 |
\*---------------------------------------------------------------------------*/
FoamFile
{
    version     2.0;
    format      ascii;
    class       dictionary;
    location    "constant";
    object      la_r26;
}
// * * * * * * * * * * * * * * * * * * * * * * * * * * * * * * * * * * * * * //

la_r26_table
101
(

101
(
4.274850131e-15
2.91213573e-10
-3.946980873e-07
-1.391809797e-05
-0.0001474929511
-0.0008019657681
-0.002888223089
-0.008359221334
-0.02023739848
-0.04315377211
-0.08332938809
-0.1491194867
-0.2498029952
-0.3987414393
-0.6076884681
-0.8886981046
-1.254023939
-1.71501627
-2.269640003
-2.929284702
-3.680618561
-4.514595643
-5.419689128
-6.374630931
-7.357858423
-8.346975776
-9.31981891
-10.25602701
-11.13353508
-11.93676027
-12.65093244
-13.26871709
-13.79583865
-14.18814177
-14.48546583
-14.70372442
-15.004668
-15.3316885
-15.19357568
-14.95473712
-14.62938852
-14.23465399
-13.77183498
-13.25340093
-12.68895982
-12.08630498
-11.4541436
-10.80174187
-10.13549102
-9.465060165
-8.794999033
-8.132061832
-7.482123916
-6.849184654
-6.236228971
-5.646486715
-5.090241771
-4.558043151
-4.061404328
-3.594866311
-3.163309619
-2.765133229
-2.39923057
-2.067006376
-1.767102101
-1.498017996
-1.258266873
-1.046479669
-0.8623009716
-0.7021237471
-0.5652091479
-0.4488621593
-0.3523614265
-0.2723094374
-0.2181610527
-0.1705284491
-0.1247675282
-0.08957185304
-0.06262806747
-0.04231740471
-0.02748606287
-0.01743492085
-0.01044608315
-0.006894126041
-0.004195030762
-0.002147316057
-0.001009819539
-0.0004298328599
-0.0001600877616
-7.733029499e-05
-2.250815228e-05
-4.459933888e-06
-6.000208039e-07
-1.389940588e-07
-2.025433226e-08
-2.236530108e-09
3.328482507e-14
-2.599235923e-31
-2.831423632e-24
1.617099093e-24
-4.494417663e-32
)


101
(
-1.05159447e-14
4.121363887e-09
-2.361018744e-07
-1.170442079e-05
-0.0001305161433
-0.0007186672263
-0.002594950094
-0.007505172801
-0.01814721461
-0.03862652497
-0.07446995191
-0.1330831368
-0.222814988
-0.3554442657
-0.5420034028
-0.7935766091
-1.121455134
-1.53627826
-2.038929714
-2.636500758
-3.322681954
-4.088001487
-4.920856474
-5.805074474
-6.720839465
-7.647280292
-8.563914358
-9.451677864
-10.29033489
-11.06438886
-11.75965963
-12.36733934
-12.88861607
-13.29419338
-13.60142842
-13.82668134
-14.06442743
-14.32829227
-14.36012899
-14.20791897
-13.94505155
-13.60428304
-13.19784885
-12.73681678
-12.2307759
-11.68700019
-11.1130183
-10.51633523
-9.904091536
-9.283739085
-8.661383998
-8.042561736
-7.432640168
-6.835542075
-6.255119924
-5.694829375
-5.160394778
-4.651327223
-4.170649673
-3.718853377
-3.297110493
-2.905942957
-2.54476515
-2.213586283
-1.912132545
-1.63997357
-1.395459906
-1.177244555
-0.9843280562
-0.8153081119
-0.6685537798
-0.5421359888
-0.4344237783
-0.3431563479
-0.2702532425
-0.2121529509
-0.1631743546
-0.1225213537
-0.08974013355
-0.06396740676
-0.04433654044
-0.02988119758
-0.01945424796
-0.01236238424
-0.007669012659
-0.00455095452
-0.002557125243
-0.001328457082
-0.0006411715772
-0.0002894381252
-0.0001106556064
-3.876061829e-05
-1.338726771e-05
-3.207253772e-06
-9.151215471e-07
-2.556309877e-07
-2.78481985e-08
-4.528229428e-08
-1.010651034e-07
-4.737865422e-07
-7.41271365e-07
)


101
(
-2.226257618e-14
7.039290918e-09
-1.039750326e-07
-9.787933455e-06
-0.0001154898205
-0.0006442834528
-0.002332394509
-0.006740918112
-0.01627798251
-0.03458415751
-0.06656925955
-0.1188006813
-0.1987848975
-0.3169365688
-0.483535797
-0.7088374242
-1.003286658
-1.376876422
-1.83258318
-2.374997155
-3.002109892
-3.705545483
-4.473937979
-5.294510007
-6.149769109
-7.020476351
-7.887670598
-8.733556608
-9.539491347
-10.29045108
-10.97277016
-11.57693731
-12.10095941
-12.52329495
-12.85051642
-13.0943214
-13.31543812
-13.54344953
-13.65397191
-13.60277352
-13.4221178
-13.14857277
-12.80428803
-12.40406881
-11.95826307
-11.4745473
-10.95980471
-10.42001171
-9.861970836
-9.292062058
-8.7164605
-8.140433847
-7.569176886
-7.006836786
-6.456887428
-5.922649256
-5.408156881
-4.915643942
-4.447164746
-4.003832476
-3.586850838
-3.196769331
-2.833598394
-2.497637913
-2.188853618
-1.906864426
-1.650469525
-1.418715171
-1.210767275
-1.025378817
-0.8616011493
-0.7176964327
-0.5925706503
-0.4839309552
-0.3913384163
-0.3141024108
-0.2498907431
-0.1965046295
-0.152205835
-0.1157027415
-0.08629555789
-0.06313017795
-0.04522375527
-0.03161955244
-0.02154678364
-0.01426355083
-0.009291522123
-0.005879023342
-0.003544716995
-0.002055285887
-0.001120018665
-0.0005535010229
-0.0002804467405
-0.0001239308624
-5.274856162e-05
-2.29485058e-05
-4.59275242e-06
-1.034523888e-05
-1.97480056e-05
-6.076008435e-05
-9.715122832e-05
)


101
(
-3.128922317e-14
9.274262458e-09
8.978447933e-09
-8.092434054e-06
-0.0001019640873
-0.0005769258071
-0.002094524033
-0.006049677748
-0.01459043355
-0.0309435203
-0.05946832655
-0.1059882332
-0.1772475243
-0.2824703409
-0.4311872379
-0.6329171274
-0.8973550152
-1.233900026
-1.647012127
-2.139909265
-2.71325365
-3.360331324
-4.07043516
-4.83315025
-5.633334151
-6.453540799
-7.276268565
-8.084931472
-8.862316405
-9.594065857
-10.26702158
-10.87149012
-11.40337117
-11.84521173
-12.19830126
-12.46606462
-12.69628858
-12.91295794
-13.0639675
-13.09648576
-13.00431109
-12.80957445
-12.53522408
-12.19977391
-11.81634217
-11.39399853
-10.93947238
-10.45811077
-9.955446473
-9.437372184
-8.909360753
-8.376703524
-7.844323414
-7.316386833
-6.796488483
-6.288073293
-5.793812652
-5.316672418
-4.859139413
-4.422389259
-4.008067094
-3.616917029
-3.249282592
-2.905610357
-2.586075516
-2.290514008
-2.018393492
-1.768786779
-1.541602598
-1.335663633
-1.150184926
-0.9839144867
-0.8361353046
-0.7050336814
-0.5894265094
-0.488740279
-0.4021049096
-0.3282051196
-0.2654836962
-0.2123827437
-0.1677783439
-0.1306724984
-0.1002866204
-0.0756712089
-0.05600345252
-0.04055011989
-0.02875455294
-0.02017469151
-0.01379017355
-0.009055876889
-0.005730821354
-0.003497696711
-0.002121083851
-0.001199817802
-0.0006605132677
-0.0003449183376
-7.584493846e-05
-0.0002569043818
-0.0004867862253
-0.001164583841
-0.001902195872
)


101
(
-3.790023835e-14
1.090308848e-08
1.046240522e-07
-6.597783444e-06
-8.980892695e-05
-0.0005159926666
-0.001879185808
-0.00542487843
-0.01306773242
-0.02766600894
-0.05308804391
-0.09449591932
-0.1579440529
-0.2516122365
-0.3842963509
-0.5648468788
-0.8022844772
-1.105459001
-1.479851592
-1.928021575
-2.452291146
-3.047722689
-3.704620011
-4.414307794
-5.163820311
-5.937551086
-6.719454081
-7.494136099
-8.245676485
-8.96048178
-9.625857053
-10.23229827
-10.77435951
-11.23692753
-11.61914796
-11.92066812
-12.16916107
-12.39195092
-12.57128486
-12.66711198
-12.65748856
-12.54631252
-12.34901826
-12.08386372
-11.76608927
-11.40686999
-11.01378336
-10.59211694
-10.14648787
-9.682192132
-9.203912515
-8.716621832
-8.225021649
-7.733336384
-7.244998704
-6.763245961
-6.291325145
-5.831289677
-5.386111398
-4.956790584
-4.545574028
-4.153627418
-3.781523707
-3.430033781
-3.099411158
-2.78937424
-2.500119739
-2.231294208
-1.982829156
-1.754078618
-1.543982916
-1.352127475
-1.177971295
-1.020451138
-0.8782636647
-0.7506600328
-0.6369738814
-0.5369623694
-0.4494564916
-0.3732916565
-0.3074382205
-0.250570103
-0.2019773746
-0.1607754493
-0.1261213216
-0.09733567201
-0.07377551904
-0.05513725326
-0.04084624905
-0.02949521401
-0.0206607519
-0.01402103247
-0.009293770413
-0.006082088537
-0.003901205782
-0.00233039365
-0.0008433963786
-0.002338459322
-0.003984766466
-0.007341170055
-0.01060115614
)


101
(
-4.238072705e-14
1.199712297e-08
1.846900733e-07
-5.285351902e-06
-7.890418034e-05
-0.0004609294619
-0.001684403453
-0.004860520065
-0.01169459389
-0.02471682367
-0.04735754642
-0.0841906736
-0.1406459442
-0.2239838846
-0.3422890041
-0.5037928781
-0.7169043705
-0.9899591065
-1.32910649
-1.73668642
-2.216055068
-2.763941193
-3.37188958
-4.032611479
-4.735069899
-5.465478502
-6.209240166
-6.952141501
-7.679464025
-8.378434396
-9.036944723
-9.645482061
-10.19810556
-10.68102522
-11.09232611
-11.42893249
-11.70607284
-11.94700179
-12.15199808
-12.29748348
-12.35964208
-12.32997348
-12.21334909
-12.02352543
-11.77539019
-11.48166705
-11.15158082
-10.79128484
-10.40495987
-9.996963457
-9.571215138
-9.132185618
-8.684334614
-8.231924864
-7.778380668
-7.326522564
-6.879736446
-6.439991602
-6.010558625
-5.592028104
-5.186582961
-4.796369524
-4.421819105
-4.064292136
-3.724365425
-3.401671126
-3.096469595
-2.808858824
-2.538948383
-2.287300398
-2.052278044
-1.833727079
-1.631323501
-1.444780495
-1.273141045
-1.115760586
-0.9721549423
-0.8420475717
-0.7246096947
-0.6196416191
-0.5264544028
-0.4442247616
-0.3714102794
-0.3076353365
-0.2519039681
-0.2038156427
-0.1624064403
-0.1276841602
-0.09940847057
-0.076570243
-0.05755064977
-0.04244158957
-0.03066031031
-0.02167886416
-0.01531777354
-0.01019395136
-0.004884082279
-0.00979719238
-0.01570494729
-0.03047912366
-0.04545784541
)


101
(
-4.499700995e-14
1.262251496e-08
2.507756754e-07
-4.137919773e-06
-6.913883559e-05
-0.0004112249975
-0.001508362102
-0.00435111752
-0.01045710409
-0.02206445195
-0.04221293068
-0.0749530902
-0.1251488989
-0.1992492567
-0.3046565582
-0.4490207136
-0.6401902482
-0.8860146472
-1.193042564
-1.563649052
-2.001835449
-2.505790877
-3.068418468
-3.683616486
-4.342024288
-5.031607948
-5.739208741
-6.451763588
-7.155685262
-7.839046614
-8.490372913
-9.100313352
-9.662630217
-10.16440988
-10.60334593
-10.9745206
-11.28520657
-11.55266985
-11.78489569
-11.9718408
-12.09492669
-12.14028216
-12.10371457
-11.99212825
-11.81735852
-11.59206932
-11.32691495
-11.02956557
-10.70451086
-10.35535769
-9.985397247
-9.598202288
-9.197881182
-8.788624759
-8.374087801
-7.956598795
-7.539316964
-7.124319136
-6.714821619
-6.311738922
-5.917175961
-5.533204257
-5.160611836
-4.800699926
-4.454785152
-4.122844761
-3.804898317
-3.501265689
-3.212224007
-2.938643265
-2.680061927
-2.436020224
-2.206119047
-1.990279295
-1.788116
-1.599369206
-1.424020687
-1.261441132
-1.111052047
-0.9731171563
-0.8475507636
-0.7344471959
-0.6319107832
-0.5396183833
-0.4568805985
-0.3830776312
-0.3173760528
-0.2598081368
-0.2106849401
-0.1697921436
-0.1344296887
-0.1046284771
-0.080600746
-0.06097468345
-0.04612921197
-0.03242978839
-0.01807955811
-0.03561791461
-0.0552429595
-0.09456032336
-0.1326426894
)


101
(
-4.5997159e-14
1.284046623e-08
3.04358782e-07
-3.139585474e-06
-6.04104122e-05
-0.0003664086981
-0.001349399453
-0.003891673936
-0.009342617034
-0.01968038616
-0.03759666372
-0.06667611713
-0.11127058
-0.177110051
-0.2709488511
-0.3998839537
-0.5712440763
-0.7924174652
-1.070147082
-1.406975638
-1.807305033
-2.270548371
-2.790982455
-3.363584777
-3.980440934
-4.631169583
-5.304041904
-5.987119404
-6.667875079
-7.335225693
-7.978373099
-8.588260326
-9.158509848
-9.676811598
-10.1408511
-10.54465177
-10.89029255
-11.18921456
-11.45127699
-11.67530037
-11.85010619
-11.96198041
-12.0012528
-11.96791197
-11.86892794
-11.71500284
-11.51707374
-11.28415365
-11.02182441
-10.73360409
-10.42223566
-10.09036507
-9.741691321
-9.380048639
-9.008970455
-8.63086472
-8.248676061
-7.863973171
-7.480030675
-7.097901166
-6.719747818
-6.347658444
-5.982675477
-5.626165816
-5.279484944
-4.943229071
-4.617358188
-4.302523255
-3.998836278
-3.70728162
-3.428297294
-3.161414262
-2.906451119
-2.663236435
-2.431840359
-2.212155016
-2.00484726
-1.809418494
-1.625331769
-1.452624457
-1.291551657
-1.143159261
-1.006608564
-0.880711869
-0.7655770571
-0.6604132849
-0.5642874883
-0.4772314715
-0.4002466957
-0.3336052175
-0.2754786696
-0.2236235951
-0.1799701378
-0.1433362949
-0.1133351942
-0.08528597357
-0.05408166671
-0.09844848449
-0.1469075463
-0.2356396113
-0.3202717922
)


101
(
-4.561152377e-14
1.270748543e-08
3.46803065e-07
-2.275684202e-06
-5.262438854e-05
-0.0003260474025
-0.001205992322
-0.003477636522
-0.008339639726
-0.01753884073
-0.03345689712
-0.0592638326
-0.09884812562
-0.1573014826
-0.2407667014
-0.3558120202
-0.5092776062
-0.7081115477
-0.9590965611
-1.264995949
-1.630457194
-2.055883792
-2.536857727
-3.069386267
-3.646801007
-4.26024361
-4.899404592
-5.553457807
-6.210865693
-6.861357369
-7.494839741
-8.102670079
-8.678465675
-9.210306868
-9.696081615
-10.12930951
-10.50875011
-10.84097322
-11.1347459
-11.39352953
-11.61295902
-11.78272084
-11.89110532
-11.93290957
-11.90980807
-11.82902663
-11.70041395
-11.53353745
-11.33528918
-11.10959016
-10.85883811
-10.58531024
-10.29202644
-9.982048228
-9.659025876
-9.325432512
-8.983697269
-8.635212913
-8.283113941
-7.928480533
-7.573430991
-7.219925185
-6.868994766
-6.522441317
-6.181608905
-5.847566031
-5.520425041
-5.200555388
-4.888211335
-4.58393981
-4.289260648
-4.003945719
-3.728581746
-3.462418894
-3.205259893
-2.957524114
-2.720202246
-2.493303836
-2.276421047
-2.069269439
-1.872489914
-1.687113199
-1.514095896
-1.351580808
-1.200376466
-1.059031336
-0.9281170969
-0.8058732451
-0.6948575672
-0.5954457019
-0.5067737429
-0.4254340625
-0.3551770471
-0.2942766371
-0.2418602059
-0.1921877273
-0.1320104272
-0.2240138107
-0.3223241373
-0.4900314445
-0.6505457883
)


101
(
-4.40532783e-14
1.227562096e-08
3.793650427e-07
-1.532703684e-06
-4.569363228e-05
-0.0002897421938
-0.00107674124
-0.003104838958
-0.00743770282
-0.01561642324
-0.02974673367
-0.05262975918
-0.08773505378
-0.1395865174
-0.2137533356
-0.3162967919
-0.4535928885
-0.6321671977
-0.8587257578
-1.136257211
-1.469551878
-1.85979293
-2.303733791
-2.798395995
-3.338195538
-3.91564863
-4.521814302
-5.146968744
-5.780510858
-6.412933477
-7.034843902
-7.638118416
-8.216537212
-8.758419475
-9.261838658
-9.720312176
-10.13064101
-10.49561526
-10.82161597
-11.11359274
-11.37209876
-11.59135723
-11.7606624
-11.87198044
-11.922375
-11.91476106
-11.85660305
-11.75700248
-11.62360386
-11.46122022
-11.27255507
-11.05965126
-10.82472519
-10.57024314
-10.29941044
-10.01458572
-9.718407388
-9.411576469
-9.09734301
-8.776699853
-8.451467662
-8.123652765
-7.794136754
-7.464778452
-7.136979091
-6.812009414
-6.490489262
-6.17256115
-5.858644158
-5.549163216
-5.245623589
-4.948339534
-4.657850995
-4.37411658
-4.096830341
-3.826261451
-3.563151541
-3.308416226
-3.062234102
-2.823612244
-2.592931822
-2.372174967
-2.162521711
-1.96349826
-1.774674204
-1.5952429
-1.426980114
-1.266510177
-1.117123709
-0.9799485944
-0.854528309
-0.7382435186
-0.6342422096
-0.5417197617
-0.4591896306
-0.378806725
-0.282099294
-0.4450481904
-0.6138680586
-0.8766890224
-1.12676126
)


101
(
-4.151898505e-14
1.159268789e-08
4.032004837e-07
-8.982126729e-07
-3.953794797e-05
-0.0002571263726
-0.0009603619715
-0.002769466478
-0.006627292568
-0.01389201515
-0.02642389909
-0.04669599923
-0.07779944963
-0.1237522893
-0.189588486
-0.280883171
-0.4035671656
-0.5637585336
-0.7679987735
-1.019477017
-1.323057228
-1.680528863
-2.089658667
-2.548420892
-3.052225555
-3.594801685
-4.168482202
-4.76462537
-5.373534588
-5.986431236
-6.594577934
-7.190398167
-7.768001822
-8.31599666
-8.832523055
-9.311353157
-9.748321026
-10.1434816
-10.50040291
-10.8236596
-11.11669717
-11.37796184
-11.59944952
-11.77268508
-11.89164269
-11.95497221
-11.96678061
-11.934521
-11.86589645
-11.76668882
-11.64029339
-11.48882104
-11.31391017
-11.1173831
-10.90158644
-10.66908484
-10.4224669
-10.16209865
-9.890859397
-9.609781114
-9.320439901
-9.024622256
-8.723477526
-8.418414026
-8.110746254
-7.801838532
-7.493078991
-7.184461279
-6.876616655
-6.569572701
-6.264685008
-5.96261925
-5.664346773
-5.369995849
-5.079388895
-4.792377688
-4.509821362
-4.233110798
-3.962626006
-3.697782667
-3.438266499
-3.186216579
-2.943051167
-2.709790844
-2.485520351
-2.2688581
-2.062989671
-1.864651494
-1.675713866
-1.499561415
-1.334037318
-1.179263025
-1.037297659
-0.9081930138
-0.7906331827
-0.6715292489
-0.5274175653
-0.7851067979
-1.038368588
-1.381981205
-1.676404441
)


101
(
-3.818914103e-14
1.070248575e-08
4.193706477e-07
-3.607873693e-07
-3.408353504e-05
-0.0002278626875
-0.0008556761933
-0.002468030122
-0.005899737936
-0.01234646776
-0.02345015815
-0.04139230238
-0.06892248846
-0.1096076089
-0.1679847546
-0.2491636654
-0.3586447569
-0.5021512383
-0.68599649
-0.9135280917
-1.189630924
-1.516563442
-1.89295096
-2.317598789
-2.78687937
-3.295564454
-3.837117873
-4.403961024
-4.987299977
-5.579053882
-6.171086124
-6.756345727
-7.329373716
-7.879211972
-8.40398246
-8.897764262
-9.356050005
-9.77711164
-10.16194451
-10.5137261
-10.83704575
-11.13354416
-11.39841871
-11.6246029
-11.80481468
-11.93423183
-12.01324185
-12.04668961
-12.0415657
-12.00412225
-11.93857162
-11.84738726
-11.73206862
-11.59387043
-11.43443042
-11.25623268
-11.06130129
-10.85030845
-10.62539431
-10.38779802
-10.13886978
-9.880067798
-9.612625949
-9.337749867
-9.056680333
-8.770504377
-8.480685901
-8.187941546
-7.892822798
-7.595369744
-7.296609831
-6.997242474
-6.698459984
-6.400694475
-6.103984988
-5.807991732
-5.513475957
-5.221996193
-4.933785414
-4.649333466
-4.368093636
-4.091200782
-3.820659406
-3.558285835
-3.303463667
-3.054338392
-2.814249771
-2.581970617
-2.357184985
-2.142936746
-1.939004484
-1.746395395
-1.565816945
-1.398772759
-1.244921796
-1.085725451
-0.8923826797
-1.239691655
-1.562389042
-1.94909907
-2.254923695
)


101
(
-3.422869629e-14
9.645010562e-09
4.288482351e-07
9.005366883e-08
-2.926256955e-05
-0.0002016412921
-0.0007616032993
-0.002197340229
-0.005247147485
-0.01096240651
-0.02079089804
-0.03665528897
-0.06099714067
-0.09698070678
-0.1486839612
-0.2207725417
-0.318329623
-0.4466931008
-0.6119033736
-0.8174182132
-1.068088788
-1.366536067
-1.712096876
-2.104256241
-2.54029262
-3.015914126
-3.525610003
-4.06280201
-4.619583582
-5.188532293
-5.76206301
-6.333627549
-6.898234372
-7.44542477
-7.973322242
-8.476296155
-8.949833807
-9.39117563
-9.799283008
-10.17565638
-10.52469345
-10.8499797
-11.14954418
-11.41870759
-11.65062983
-11.8384379
-11.97924032
-12.07462149
-12.12987598
-12.15107079
-12.14307759
-12.10894612
-12.05034876
-11.96830997
-11.86397961
-11.73920028
-11.59578307
-11.43446664
-11.25690182
-11.06410863
-10.85744483
-10.63814841
-10.40740783
-10.16629312
-9.915872962
-9.657143041
-9.391202853
-9.119059396
-8.841563976
-8.558916166
-8.271998271
-7.981432203
-7.688365131
-7.393570445
-7.09740427
-6.799548379
-6.500249864
-6.201056269
-5.902724544
-5.605933836
-5.310480183
-5.016851762
-4.726792966
-4.442511137
-4.164713147
-3.891352962
-3.624154095
-3.364267231
-3.111049008
-2.865212146
-2.628473393
-2.403691324
-2.190192975
-1.988732452
-1.801724345
-1.605891307
-1.367558511
-1.777461521
-2.124585344
-2.468818023
-2.691018025
)


101
(
-2.97877077e-14
8.456655272e-09
4.325228369e-07
4.639123369e-07
-2.501278743e-05
-0.0001781777775
-0.0006771526071
-0.001954479244
-0.00466235085
-0.009724120351
-0.01841476319
-0.03242771175
-0.05392682349
-0.08571651486
-0.1314527367
-0.1953793736
-0.2821772455
-0.3968069289
-0.5450009729
-0.7302763552
-0.957385597
-1.229226811
-1.545721035
-1.90690897
-2.310884282
-2.75418103
-3.232230595
-3.739393856
-4.268632178
-4.813125559
-5.365783242
-5.920546709
-6.472912398
-7.012892225
-7.538620151
-8.044751053
-8.52695091
-8.981990661
-9.407402948
-9.80312508
-10.17254115
-10.51998485
-10.84554143
-11.14715838
-11.41958522
-11.65542127
-11.84953071
-12.00019741
-12.11034752
-12.18494583
-12.22900228
-12.24621097
-12.23873334
-12.20761174
-12.15370964
-12.07829099
-11.98287718
-11.86830038
-11.73573633
-11.58580992
-11.41974849
-11.23880431
-11.04411797
-10.83670389
-10.61749417
-10.38729725
-10.14695859
-9.897299883
-9.639371136
-9.373714893
-9.101209608
-8.822453814
-8.538746452
-8.250949203
-7.959813692
-7.665127298
-7.366642415
-7.065640381
-6.763354057
-6.460910492
-6.158606658
-5.85640479
-5.555417624
-5.257989605
-4.965884975
-4.677933551
-4.394279508
-4.1166086
-3.845008864
-3.579046986
-3.319992695
-3.072799643
-2.836735801
-2.611320566
-2.399752776
-2.176795555
-1.905469961
-2.310768398
-2.600712385
-2.788593033
-2.820061821
)


101
(
-2.500194118e-14
7.170400028e-09
4.312061806e-07
7.695707192e-07
-2.127709379e-05
-0.0001572113395
-0.0006014177831
-0.001736783999
-0.004138808194
-0.008617348973
-0.01629340227
-0.02865790568
-0.04762454505
-0.07567567961
-0.1160812179
-0.1726865522
-0.2497870299
-0.3519746392
-0.484645844
-0.6513339745
-0.8566111857
-1.103580864
-1.392638227
-1.724284117
-2.097333535
-2.509025337
-2.955627914
-3.432356273
-3.933025025
-4.45142113
-4.98091226
-5.515840211
-6.052139049
-6.580320531
-7.098526127
-7.601680982
-8.085706304
-8.547276283
-8.983036412
-9.391533066
-9.774898686
-10.13737402
-10.48010466
-10.80328908
-11.10383479
-11.37508289
-11.61099037
-11.80708872
-11.96360687
-12.08363808
-12.17177227
-12.23198898
-12.26695937
-12.27810769
-12.26624151
-12.23222609
-12.17712635
-12.10207042
-12.00785432
-11.89463725
-11.76314678
-11.61478717
-11.45087667
-11.27219542
-11.0796491
-10.87430457
-10.65641868
-10.42686883
-10.18609981
-9.935266632
-9.67544696
-9.407115102
-9.132047435
-8.851178315
-8.565849064
-8.276228921
-7.981096944
-7.68165058
-7.3792566
-7.075628757
-6.772281348
-6.468580433
-6.164913223
-5.863365912
-5.56657477
-5.274312014
-4.98638812
-4.704023934
-4.426873094
-4.15481005
-3.888665356
-3.633651363
-3.389527388
-3.155628627
-2.934122538
-2.69922109
-2.409531745
-2.707304868
-2.833824372
-2.744366943
-2.470926599
)


101
(
-1.999341254e-14
5.816004338e-09
4.256371604e-07
1.015046237e-06
-1.800320792e-05
-0.0001385030224
-0.0005335704312
-0.001541825728
-0.003670560612
-0.007629147011
-0.01440131465
-0.02529914604
-0.04201184227
-0.06673316774
-0.1023814252
-0.1524273949
-0.2207968538
-0.3117238466
-0.4302454529
-0.5798587871
-0.7649100467
-0.988636828
-1.251823589
-1.555306448
-1.898543312
-2.279381573
-2.694779044
-3.140689535
-3.611761014
-4.102435852
-4.60657813
-5.118813964
-5.635317095
-6.147166633
-6.65251271
-7.146547556
-7.625452237
-8.08600572
-8.524388768
-8.938021086
-9.327859216
-9.69737429
-10.04798593
-10.38154989
-10.69717804
-10.98961395
-11.25307294
-11.48148298
-11.67255325
-11.82695279
-11.94824027
-12.04018635
-12.10575105
-12.14687458
-12.1645892
-12.15955555
-12.13239098
-12.08457411
-12.01686492
-11.92900155
-11.82112062
-11.69417459
-11.55001786
-11.38903354
-11.21256222
-11.02210585
-10.81763462
-10.59965292
-10.3679485
-10.124444
-9.870214421
-9.605577955
-9.333179594
-9.053674603
-8.769585317
-8.482434662
-8.189783731
-7.892253462
-7.590186816
-7.287290885
-6.985996633
-6.685809072
-6.387033145
-6.089772576
-5.797843344
-5.512656089
-5.23341629
-4.961311784
-4.694917766
-4.432874062
-4.178400027
-3.934155744
-3.701457926
-3.478606901
-3.267062939
-3.039189302
-2.750761539
-2.82072603
-2.675491044
-2.201031652
-1.644963133
)


101
(
-1.487100567e-14
4.420183223e-09
4.164875736e-07
1.207644297e-06
-1.514331914e-05
-0.000121834178
-0.0004728540243
-0.001367391035
-0.003252179614
-0.006747759831
-0.01271549589
-0.02230924145
-0.03701788051
-0.05877661791
-0.09018448503
-0.1343622785
-0.1948801266
-0.2756242562
-0.3812580621
-0.5151765206
-0.6815033754
-0.8835286739
-1.122371124
-1.399046683
-1.713583694
-2.064377193
-2.448890895
-2.863686702
-3.304225302
-3.765637156
-4.242299411
-4.729088819
-5.222269412
-5.713410797
-6.200692638
-6.67959657
-7.146512128
-7.598372468
-8.031187634
-8.441566177
-8.829301184
-9.19697253
-9.54566118
-9.878052855
-10.19513012
-10.49339288
-10.76818219
-11.0128426
-11.22325027
-11.39763524
-11.53790812
-11.64703029
-11.72802667
-11.78311388
-11.81378425
-11.82089237
-11.80426921
-11.76592708
-11.70705047
-11.62734786
-11.52598943
-11.40336425
-11.26135275
-11.10032619
-10.92304909
-10.72973306
-10.52218278
-10.30052759
-10.06361484
-9.813768889
-9.551535956
-9.278278337
-8.996548829
-8.707369367
-8.414322545
-8.120921405
-7.826181917
-7.526640519
-7.223763503
-6.920731997
-6.621206217
-6.327613334
-6.040756656
-5.756114643
-5.479284071
-5.212851755
-4.957138862
-4.711414873
-4.475775099
-4.2433746
-4.021717337
-3.811399777
-3.613457003
-3.425810218
-3.248391983
-3.050958009
-2.789177687
-2.511256945
-2.010820296
-1.084218081
-0.2097828508
)


101
(
-9.730998352e-15
3.006757733e-09
4.043683939e-07
1.3540091e-06
-1.26537514e-05
-0.0001070048627
-0.0004185780043
-0.001211464061
-0.00287870466
-0.00596247261
-0.01121515804
-0.01965020318
-0.03257875554
-0.05170462876
-0.07933764119
-0.1182739191
-0.171741492
-0.2432895371
-0.3372027962
-0.4566934337
-0.6057087468
-0.7875007384
-1.003474131
-1.254683597
-1.541618263
-1.86319878
-2.217262755
-2.600825886
-3.010102303
-3.44090021
-3.88806343
-4.346743078
-4.813294473
-5.27961001
-5.743861388
-6.20186876
-6.650156151
-7.08571109
-7.504492945
-7.90263922
-8.279016797
-8.635261778
-8.971550218
-9.290819672
-9.595417389
-9.883519613
-10.15200065
-10.39447135
-10.60596973
-10.7825741
-10.924265
-11.03270018
-11.11053566
-11.15998453
-11.18288353
-11.18060823
-11.15226533
-11.10046757
-11.02654611
-10.93114883
-10.8128215
-10.67115195
-10.50703278
-10.32160422
-10.11877967
-9.897978743
-9.663760637
-9.415343273
-9.151689686
-8.873784745
-8.583833554
-8.283946593
-7.975633661
-7.660943666
-7.344559702
-7.030992181
-6.721498036
-6.414652448
-6.107665183
-5.802238795
-5.50296903
-5.218663492
-4.948582906
-4.686645657
-4.436647923
-4.202850261
-3.989042978
-3.788674278
-3.607171618
-3.429002456
-3.263712893
-3.115832077
-2.980612192
-2.85655863
-2.742610112
-2.603297955
-2.397733572
-1.677284522
-0.7939874404
0.5791269768
1.641831392
)


101
(
-4.65778061e-15
1.596854013e-09
3.898218119e-07
1.460169363e-06
-1.049468692e-05
-9.383255976e-05
-0.0003701130558
-0.001072212957
-0.002545604342
-0.005263454438
-0.009881511571
-0.01728796878
-0.02863714049
-0.04542564383
-0.06970114597
-0.1039600924
-0.1511041317
-0.2143578549
-0.2976346113
-0.403915477
-0.5369642049
-0.6999341019
-0.8944262513
-1.121503338
-1.381947064
-1.675189156
-1.99936368
-2.351774037
-2.729290223
-3.12833797
-3.54416886
-3.972251441
-4.409121997
-4.846823603
-5.283395658
-5.715004796
-6.138291928
-6.550193569
-6.946637037
-7.323498299
-7.67888776
-8.013525422
-8.326517742
-8.620478674
-8.898487091
-9.160076281
-9.403837366
-9.624200907
-9.816031518
-9.974033665
-10.09632678
-10.18287596
-10.23564353
-10.25650719
-10.24727003
-10.20954004
-10.14233757
-10.04899524
-9.930325327
-9.788401106
-9.623442445
-9.432213147
-9.215663552
-8.975196771
-8.715201161
-8.435923015
-8.143339836
-7.837694314
-7.518067842
-7.18458442
-6.842429221
-6.491222006
-6.133684352
-5.773443339
-5.414905685
-5.063413875
-4.726110622
-4.402295229
-4.085590293
-3.77628059
-3.478950151
-3.206157502
-2.959529
-2.732045941
-2.527316848
-2.341433007
-2.191359234
-2.061766356
-1.962710746
-1.869880586
-1.79116277
-1.738558131
-1.700662718
-1.675132027
-1.658136653
-1.609235757
-1.494924819
-0.2892253598
0.9157522655
2.62857872
3.48561778
)


101
(
2.755026818e-16
2.090666641e-10
3.733415493e-07
1.531583258e-06
-8.629868433e-06
-8.21507638e-05
-0.000326885848
-0.00094797416
-0.00224877373
-0.004641791644
-0.00869753474
-0.01519180275
-0.02514137105
-0.03985741451
-0.06114971439
-0.0912394214
-0.132719067
-0.1885017836
-0.2621435496
-0.3563829818
-0.4747578199
-0.6202901435
-0.7946168974
-0.9988908641
-1.233980259
-1.499785948
-1.794739734
-2.11629339
-2.461793984
-2.828206126
-3.211163761
-3.606437815
-4.010802609
-4.416491902
-4.821252653
-5.221436192
-5.613797452
-5.995138738
-6.361269513
-6.707914524
-7.032668687
-7.33541949
-7.614090023
-7.870510642
-8.107884217
-8.32668008
-8.527046437
-8.704548339
-8.854433785
-8.970635357
-9.049891571
-9.090339463
-9.092893621
-9.059170674
-8.990481613
-8.88794124
-8.750748582
-8.582817951
-8.384879487
-8.160435485
-7.911820732
-7.63432931
-7.329213196
-6.997394506
-6.642104974
-6.267239127
-5.878327389
-5.478250764
-5.067789904
-4.646990313
-4.221101987
-3.790057979
-3.359348474
-2.932051268
-2.510783721
-2.10316987
-1.721212341
-1.368319707
-1.038954174
-0.7282431451
-0.4374289601
-0.1817907107
0.02995910155
0.2025008425
0.340855568
0.4512831985
0.5105696821
0.5360565303
0.5166160882
0.4845500119
0.4379537597
0.3522831737
0.2557186555
0.1404909747
0.02257328825
-0.059667394
-0.07927726863
1.575656671
2.929289583
4.758604849
5.119344465
)


101
(
5.006406073e-15
-1.140417823e-09
3.553709837e-07
1.573180913e-06
-7.0263262e-06
-7.180769502e-05
-0.0002883744999
-0.0008372347352
-0.001984485186
-0.004089397631
-0.007647501581
-0.01333417895
-0.0220444469
-0.03492490685
-0.05356926216
-0.07994707291
-0.1163605332
-0.1654228383
-0.2303492609
-0.313641911
-0.4185757587
-0.5480065357
-0.7034975863
-0.8862917931
-1.097214506
-1.336529891
-1.603030975
-1.89427715
-2.207824687
-2.541027763
-2.889929292
-3.250583675
-3.619929403
-3.990588874
-4.359940052
-4.72421231
-5.080246971
-5.424700702
-5.753135459
-6.061198932
-6.346090574
-6.606939351
-6.840477246
-7.047455717
-7.230588008
-7.390700248
-7.529286644
-7.643126515
-7.728212059
-7.778155196
-7.788737676
-7.756479285
-7.680793182
-7.563547079
-7.405393432
-7.206626387
-6.965831895
-6.687618661
-6.37246311
-6.025396571
-5.650219631
-5.244810122
-4.809624157
-4.345805098
-3.852305028
-3.339864835
-2.812670756
-2.277084429
-1.736684303
-1.190021658
-0.6442586881
-0.1041202741
0.4248069548
0.940918052
1.442065526
1.920298233
2.359795177
2.749359993
3.090010874
3.392970375
3.667235847
3.887751775
4.042876137
4.131597469
4.165832406
4.162770421
4.092883416
3.96912393
3.783190392
3.573516552
3.352917251
3.08123982
2.802901634
2.499557432
2.202497045
1.94297596
1.73883333
3.704799616
4.923345832
6.560324084
6.087761571
)


101
(
9.482714996e-15
-2.437780791e-09
3.363118097e-07
1.589403093e-06
-5.654148979e-06
-6.266528323e-05
-0.0002541048061
-0.000738624902
-0.001749372518
-0.003598974983
-0.006717156267
-0.01169028831