/*--------------------------------*- C++ -*----------------------------------*\
| =========                 |                                                 |
| \\      /  F ield         | OpenFOAM: The Open Source CFD Toolbox           |
|  \\    /   O peration     | Version:  2.3.1                                 |
|   \\  /    A nd           | Web:      www.OpenFOAM.org                      |
|    \\/     M anipulation  |                                                 |
\*---------------------------------------------------------------------------*/
FoamFile
{
    version     2.0;
    format      ascii;
    class       dictionary;
    location    "constant";
    object      la_r14;
}
// * * * * * * * * * * * * * * * * * * * * * * * * * * * * * * * * * * * * * //

la_r14_table
101
(

101
(
1.175812717e-07
0.001384726765
0.03178319755
0.2179006821
0.8031371183
2.042032187
4.105880929
7.194431727
11.15103357
15.85884357
21.00340922
26.27072675
31.21700067
35.69058198
39.18564645
41.5777579
42.83280598
42.99631186
41.9123765
40.23929541
37.6924657
34.63995053
31.44344846
28.06694271
24.65600854
21.3308738
18.16118563
15.18785436
12.45728601
9.96451758
7.715481537
5.690944504
3.848379508
2.274735455
0.85628422
-0.4064693945
-7.560578138
-18.91585021
-19.32831441
-19.48517797
-19.43217154
-19.22612936
-18.89795249
-18.47258955
-17.98336197
-17.4529502
-16.89691704
-16.33495846
-15.77479276
-15.2304113
-14.70595417
-14.20730466
-13.73529583
-13.28965794
-12.86799592
-12.46695604
-12.08316193
-11.70951189
-11.34378511
-10.98018266
-10.61501776
-10.24571001
-9.869747063
-9.485209465
-9.089607583
-8.685109384
-8.271145447
-7.848628995
-7.419480948
-6.986615748
-6.551946525
-6.118962121
-5.690579982
-5.272346709
-5.570533628
-5.548778442
-4.93918681
-4.372597661
-3.847684941
-3.363487624
-2.919918674
-2.517437612
-2.155680259
-2.161917074
-2.001060279
-1.570673522
-1.216407618
-0.9264544945
-0.693146597
-0.6626352294
-0.449514242
-0.2751930598
-0.1614466452
-0.0995794337
-0.04778652547
-0.01010031116
-1.684190135e-13
-1.365214206e-28
2.988839423e-23
-3.797292978e-23
-1.382379244e-21
)


101
(
1.021237924e-07
0.001319949036
0.0304832234
0.2095076513
0.7727178563
1.964730361
3.948037179
6.911355614
10.70761063
15.2194836
20.1523253
25.20709362
29.97058278
34.29732412
37.73399884
40.15441459
41.53270626
41.91440955
41.17657568
39.8776371
37.82634479
35.32195185
32.68187693
29.90919215
27.11857392
24.41015392
21.84188663
19.44463128
17.24802347
15.24392984
13.42802518
11.77840898
10.25530367
8.904369062
7.644031308
6.467429219
5.710256163
5.446061934
4.794052553
3.925907127
3.048987062
2.201235218
1.403992541
0.6528921213
-0.05962055318
-0.729545607
-1.361843553
-1.953362718
-2.505499635
-3.0153531
-3.483104418
-3.907752627
-4.289066095
-4.629030843
-4.925501495
-5.177291212
-5.380934293
-5.540901664
-5.657079179
-5.731797398
-5.765854307
-5.762257694
-5.724068735
-5.653289412
-5.551325325
-5.421034118
-5.266212574
-5.089404171
-4.89357406
-4.681938709
-4.457260732
-4.222578995
-3.980771927
-3.735805019
-3.497589858
-3.260644567
-3.014091298
-2.76097306
-2.508339708
-2.261770311
-2.024901726
-1.799228324
-1.586506985
-1.392192599
-1.209470837
-1.031662497
-0.862999273
-0.7091686005
-0.5718707935
-0.4535046615
-0.3507433653
-0.2582468104
-0.180607516
-0.119416629
-0.07116552568
-0.03524922887
-0.01091833237
-0.01120104161
-0.01154643467
-0.01206049676
-0.01243514327
)


101
(
8.759975112e-08
0.001228103048
0.02876369792
0.1988058293
0.734584087
1.868768249
3.755160614
6.566486864
10.17257177
14.45263191
19.13503247
23.93389143
28.47120363
32.58847613
35.90025268
38.26108258
39.64152672
40.08276405
39.50399711
38.32249449
36.48105684
34.18423786
31.71037987
29.12087366
26.50530167
23.9543273
21.528186
19.26137865
17.18130517
15.28897438
13.58072637
12.04016919
10.63209157
9.37521692
8.214206218
7.132773331
6.31628227
5.831941463
5.319990834
4.665744663
3.947694348
3.224606835
2.537901384
1.892089574
1.27999969
0.7038874125
0.1597773106
-0.3534106651
-0.8360492433
-1.287390329
-1.707242266
-2.094719291
-2.44869023
-2.770708088
-3.061779763
-3.320853698
-3.545641572
-3.736525454
-3.892955646
-4.017013651
-4.108349789
-4.169114628
-4.201332423
-4.205608775
-4.183293841
-4.136054092
-4.066497636
-3.976107922
-3.866396683
-3.740436596
-3.599770743
-3.446636695
-3.282401966
-3.110380509
-2.935445088
-2.759772753
-2.580440313
-2.394895487
-2.203920372
-2.011598048
-1.822818552
-1.640370136
-1.465536254
-1.300659746
-1.146874464
-1.001336696
-0.8606815337
-0.7272318785
-0.6052445089
-0.4961335027
-0.3996125542
-0.3146955522
-0.2383260654
-0.1739567468
-0.1217783234
-0.07692831544
-0.04002554992
-0.0424631228
-0.04499116211
-0.04844241839
-0.05091343338
)


101
(
7.398310721e-08
0.001140737814
0.02711866532
0.1885501751
0.6980963907
1.777250147
3.572037266
6.241233913
9.670680023
13.73917076
18.1966797
22.77177788
27.11801448
31.06912661
34.29384259
36.63579531
38.05853662
38.59687204
38.19820009
37.17675531
35.55420118
33.48057093
31.19496874
28.79184781
26.35119543
23.95545735
21.66498694
19.51723156
17.54028564
15.74131931
14.11963824
12.66491201
11.34685922
10.17242752
9.095348355
8.074172891
7.277189051
6.693077393
6.194437563
5.667228502
5.084946608
4.477332694
3.885702696
3.323130493
2.789025936
2.285912409
1.809116355
1.356854326
0.9259358433
0.5173234554
0.1293708504
-0.2361855439
-0.5778831981
-0.8965180816
-1.193509967
-1.467922413
-1.720557579
-1.94969514
-2.153435768
-2.333595319
-2.488091906
-2.61796675
-2.724540829
-2.807784737
-2.868695918
-2.908465779
-2.927570529
-2.927235954
-2.906478426
-2.868124062
-2.813874493
-2.744875969
-2.661189601
-2.565070564
-2.459445545
-2.346957338
-2.228514745
-2.102929385
-1.969063345
-1.827734205
-1.682727702
-1.538184042
-1.396312936
-1.258682835
-1.127036258
-1.002089243
-0.8822726343
-0.7653979688
-0.6545960602
-0.5529454529
-0.4608221988
-0.3784541802
-0.3043236037
-0.2378813236
-0.181857228
-0.130281107
-0.08262175994
-0.08933781129
-0.09631329906
-0.1057511893
-0.1127912383
)


101
(
6.124761396e-08
0.001057708784
0.02554581366
0.1787257574
0.6631887896
1.689956623
3.398077825
5.934142658
9.19908123
13.07364212
17.32808695
21.70611784
25.88974189
29.70871795
32.87533086
35.22818385
36.72204004
37.38379877
37.17934473
36.34596865
34.94913625
33.10731945
31.02430204
28.81060708
26.54426983
24.30134119
22.14127532
20.1041377
18.21986288
16.50042275
14.94802566
13.55923301
12.30868661
11.20087974
10.19714665
9.263006859
8.468800185
7.844243293
7.336532845
6.864729203
6.377492344
5.868080476
5.361663446
4.871958645
4.402853303
3.959041088
3.536773429
3.134103796
2.746220529
2.373422235
2.012552883
1.664711263
1.331901687
1.014741827
0.7111895001
0.420487981
0.1443053663
-0.1182487933
-0.3641786882
-0.5954864772
-0.8088255412
-1.003263886
-1.179311468
-1.336414917
-1.475480662
-1.598148089
-1.703801119
-1.791522614
-1.85996643
-1.910298197
-1.944796506
-1.963732059
-1.966312716
-1.952965968
-1.925411196
-1.885823988
-1.835927337
-1.775547029
-1.704058528
-1.620726729
-1.526864042
-1.426237266
-1.32226838
-1.216750372
-1.111561252
-1.008132145
-0.907381669
-0.8077138491
-0.7091260468
-0.6153698881
-0.5283377731
-0.4483607947
-0.3755055267
-0.3084123163
-0.2495035903
-0.1930510945
-0.1370883479
-0.1501244675
-0.1634306984
-0.1805639772
-0.1893337141
)


101
(
4.936675456e-08
0.0009788751398
0.02404281915
0.169317133
0.6297929975
1.606664355
3.232698371
5.643822685
8.755112125
12.45110326
16.52111738
20.72425671
24.76830132
28.48188035
31.61246057
33.99775669
35.58327232
36.38676512
36.3856447
35.75881178
34.59301547
32.98792907
31.1172137
29.09635154
27.00430059
24.91298503
22.88031801
20.94836722
19.14945548
17.49980126
16.00577079
14.6662198
13.4639604
12.40467115
11.45380996
10.58362411
9.815519975
9.177107187
8.655853814
8.204093963
7.772236091
7.334324362
6.89684629
6.467187427
6.04907174
5.648522622
5.264175994
4.89564892
4.537212062
4.186614901
3.840104244
3.497951666
3.162545095
2.835564356
2.515904438
2.202724931
1.897082092
1.597546533
1.306742261
1.027161819
0.760907667
0.5056975294
0.2684922077
0.04631185166
-0.1611682095
-0.3526588163
-0.5306426635
-0.693239887
-0.8360514623
-0.9645869045
-1.073053897
-1.16676744
-1.244237627
-1.306229494
-1.351163246
-1.380659372
-1.396552322
-1.399781883
-1.389203918
-1.364963706
-1.326199172
-1.275020729
-1.214269111
-1.146783191
-1.074117954
-0.9981551566
-0.9203587376
-0.8408457236
-0.7585401101
-0.6757421833
-0.596409415
-0.520983627
-0.4503690068
-0.3840714763
-0.3236229063
-0.2636699336
-0.2012339808
-0.2229944457
-0.241160874
-0.2628375087
-0.264943424
)


101
(
3.831383352e-08
0.000904096036
0.02260741263
0.1603093955
0.5978441585
1.52716466
3.075361759
5.369015988
8.336397961
11.86722006
15.76872226
19.8153941
23.73842695
27.36751006
30.47865417
32.91156012
34.60293141
35.56048355
35.76812369
35.35975785
34.42905927
33.06364624
31.41229979
29.58832042
27.67172432
25.7323984
23.82663178
21.99748596
20.2796283
18.69317776
17.2487564
15.94796744
14.77924205
13.75167906
12.83511313
12.00646154
11.26393167
10.62230906
10.08465702
9.627437456
9.211811496
8.805530073
8.402123636
7.999263988
7.59741075
7.202411523
6.814571223
6.43437289
6.056990704
5.680958946
5.300363089
4.91984591
4.540721223
4.165102595
3.789650065
3.423714435
3.068300528
2.713321473
2.36687984
2.035592352
1.718555481
1.410537061
1.125937138
0.8635272848
0.61549591
0.3863935644
0.1736194448
-0.02499711526
-0.2022602457
-0.3646682322
-0.5075218416
-0.6350269923
-0.7465853655
-0.8453772567
-0.9282324125
-0.994981452
-1.049247038
-1.090090219
-1.118177172
-1.134318081
-1.135804813
-1.124502285
-1.100327384
-1.066929642
-1.025307638
-0.9768862425
-0.9234667601
-0.8656505568
-0.8023399738
-0.7342887048
-0.6652416701
-0.5972313466
-0.5305525476
-0.4663549528
-0.4058387522
-0.3427192362
-0.2747502858
-0.3054649674
-0.3101345211
-0.2478446193
-0.1643722916
)


101
(
2.806201816e-08
0.000833235558
0.02123738777
0.1516882088
0.5672809592
1.451263858
2.925578279
5.108594601
7.940828562
11.31819784
15.0648141
18.97031874
22.78728032
26.34807471
29.45208012
31.94285067
33.74926932
34.86864273
35.28767408
35.1051219
34.41250414
33.28858589
31.86176604
30.23902094
28.50008188
26.71431967
24.93695124
23.21112989
21.57316701
20.04649119
18.64587264
17.37606312
16.22918239
15.21780978
14.31623567
13.50484628
12.77031535
12.11478445
11.54311236
11.04419622
10.59082168
10.15222388
9.714490572
9.267665143
8.80894227
8.344152564
7.877184348
7.409999375
6.938552531
6.467783084
5.990014758
5.52295218
5.060566506
4.606418957
4.160412828
3.736826635
3.335026161
2.948834158
2.580770905
2.24154206
1.928141636
1.627473616
1.35574644
1.110647473
0.8896762563
0.691538422
0.5158619304
0.3470538898
0.1969166064
0.05867163547
-0.06478487337
-0.1717348185
-0.2672519881
-0.3563354213
-0.4399968087
-0.5130495998
-0.5785918177
-0.6358657178
-0.6884585981
-0.7358026592
-0.7729342185
-0.798302078
-0.8141099886
-0.8218664513
-0.8217369498
-0.8140437899
-0.7992388485
-0.7805000668
-0.7521306492
-0.7156846203
-0.6734387286
-0.6286967993
-0.5788865328
-0.5279695934
-0.4765064882
-0.4179528044
-0.3522304146
-0.3234234097
-0.2110932487
0.2295173717
0.6258801239
)


101
(
1.858429885e-08
0.0007661614621
0.01993059011
0.143439788
0.538045311
1.378781637
2.782900509
4.861547026
7.566528231
10.80071497
14.40412965
18.18119347
21.90406626
25.40903192
28.51476306
31.06987339
32.99662965
34.282018
34.91284954
34.96009092
34.50763149
33.6264626
32.42797706
31.01111035
29.45328218
27.8239006
26.17803428
24.55840382
23.00181578
21.53392059
20.1730622
18.92719871
17.79076558
16.77798365
15.86604476
15.03797805
14.274755
13.5680601
12.91725711
12.31726735
11.74974005
11.18964504
10.62747934
10.0519561
9.459451442
8.856704541
8.25279344
7.655653189
7.058940038
6.482556922
5.92816872
5.405289426
4.90420901
4.443345278
4.003783544
3.599297193
3.248021917
2.931707653
2.646583502
2.399413111
2.186307084
1.993049206
1.835664337
1.699573132
1.586347461
1.491450369
1.413796618
1.342998937
1.27875581
1.2201873
1.161520627
1.107149425
1.049019848
0.9866890034
0.9177866182
0.8425090025
0.7639063778
0.6838175266
0.5977215163
0.5024484525
0.4028721661
0.3072185927
0.2190061627
0.1309290307
0.04692439195
-0.0334960445
-0.1046913278
-0.1784122421
-0.2380897781
-0.2852696592
-0.3230829145
-0.3555521513
-0.3707359354
-0.3768759901
-0.3768288932
-0.3595100078
-0.3402702427
-0.01152861073
0.4717234887
1.838970123
3.030699982
)


101
(
9.853545812e-09
0.0007027419625
0.01868492675
0.1355509015
0.5100821868
1.309549299
2.646915439
4.626954978
7.211819051
10.31184448
13.78208173
17.4412753
21.07959993
24.53816429
27.65172479
30.27469725
32.3240275
33.77682771
34.618118
34.89661071
34.68554672
34.04816158
33.080925
31.87485918
30.50307642
29.03457233
27.52461652
26.0152729
24.54278416
23.13348388
21.80783794
20.5762352
19.43424834
18.39587159
17.43828459
16.54695137
15.70087664
14.88476944
14.09110327
13.32299503
12.57264183
11.82865274
11.08939147
10.3510709
9.612466736
8.882478633
8.173753752
7.496365554
6.854424138
6.272071038
5.746821528
5.280675679
4.870053537
4.522760268
4.222940853
3.984109302
3.802207945
3.677838931
3.588064719
3.533957404
3.515259753
3.512994968
3.537277648
3.575040017
3.625560444
3.686502374
3.753168763
3.816764418
3.869544766
3.906239354
3.927477807
3.934064709
3.925540727
3.89730423
3.843850985
3.763932961
3.661197004
3.541629157
3.405504516
3.241325396
3.051877238
2.852402325
2.650985456
2.443782182
2.223660204
1.995485368
1.782057234
1.551602725
1.331396994
1.125743382
0.9269316694
0.735885842
0.5724218384
0.4321923696
0.2962658897
0.186744172
0.05104663611
1.124050828
2.363556123
5.228379211
7.77401571
)


101
(
1.842590912e-09
0.0006428494729
0.01749835874
0.1280088246
0.4833395607
1.243409462
2.517241477
4.403979748
6.87520626
9.849034025
13.19469861
16.74476628
20.30603567
23.72514835
26.85038952
29.54239364
31.71407262
33.33341433
34.38229703
34.89148126
34.9221432
34.52956411
33.79669561
32.80643256
31.62685899
30.32523033
28.95651323
27.56188144
26.17611174
24.82451851
23.52737498
22.29573116
21.12555996
20.03023391
18.98561423
17.98077649
16.99745175
16.02013635
15.04299668
14.0809829
13.13674456
12.21534922
11.32571686
10.47489638
9.663288667
8.90023404
8.200297868
7.574145402
7.029053733
6.578433901
6.217051832
5.940357052
5.743703938
5.625770457
5.582107364
5.599637282
5.672886711
5.80138273
5.968352243
6.164190119
6.384380886
6.615079528
6.85293303
7.092167434
7.329151814
7.560543039
7.784793166
7.992464454
8.175177461
8.322774732
8.436378961
8.514618678
8.562564012
8.577291065
8.551722629
8.477590844
8.358411239
8.20557534
8.021139758
7.79256199
7.514570735
7.208714044
6.881248924
6.54246484
6.169542747
5.759080816
5.363609254
4.939753826
4.507950278
4.093326901
3.662274652
3.239555208
2.848972323
2.491457621
2.132992168
1.781629538
1.32219149
3.71466847
6.094154805
10.64460935
13.64198079
)


101
(
-5.475844522e-09
0.0005863597701
0.01636889793
0.120801282
0.4577679549
1.180214634
2.393525721
4.191856573
6.555347619
9.410037542
12.63852101
16.08667519
19.57667525
22.96125341
26.10021441
28.86057834
31.15240672
32.93553107
34.18791789
34.92564039
35.19742018
35.05046981
34.55528262
33.7856906
32.80512554
31.67719743
30.45517278
29.17907534
27.88151674
26.58505094
25.30762011
24.05941259
22.83705855
21.65488605
20.49022999
19.33960282
18.19394163
17.04586659
15.89891744
14.78073187
13.70207401
12.67986075
11.73306986
10.87329948
10.10230859
9.430268824
8.869550855
8.424512
8.092903378
7.87938338
7.776760049
7.776917661
7.86766789
8.041713657
8.291308801
8.596624501
8.958176922
9.360325984
9.796959895
10.25282261
10.71825001
11.1833281
11.64069889
12.08380614
12.50979745
12.91347445
13.29638977
13.65424957
13.97745962
14.25183835
14.47698774
14.64783172
14.77229477
14.85053778
14.87703073
14.83794361
14.73564555
14.58357196
14.37499885
14.11251097
13.78404143
13.40037468
12.97651601
12.52873943
12.02473332
11.44574105
10.86682863
10.26222165
9.624626838
8.974434593
8.290313926
7.611847396
6.949288539
6.321396643
5.689513148
5.018585826
4.112307104
8.117111192
11.69428656
17.70859465
21.10097046
)


101
(
-1.212904254e-08
0.0005331494802
0.01529461036
0.1139164415
0.433320314
1.119826382
2.275440801
3.989886443
6.251039091
8.992869711
12.11052487
15.4626952
18.88580856
22.23910301
25.39235219
28.21896514
30.62722345
32.5698331
34.02060929
34.98344895
35.49454117
35.59319867
35.33828847
34.79351322
34.01765563
33.06967429
31.99987335
30.84592772
29.6374606
28.39312041
27.12777194
25.85091696
24.56151315
23.27883263
21.98692147
20.6942346
19.40638631
18.13007972
16.88112437
15.69145784
14.57932521
13.56465419
12.67303819
11.91639069
11.295209
10.81551607
10.48032165
10.28885763
10.23201189
10.30435839
10.49543489
10.79509601
11.18798873
11.65952406
12.19691899
12.78784944
13.4247958
14.08910519
14.77735017
15.47833032
16.17781032
16.86534598
17.53425343
18.17570155
18.78637962
19.36682966
19.91182204
20.42341544
20.89735882
21.31274062
21.67141502
21.96336913
22.18920425
22.3567622
22.46477737
22.50175395
22.45845436
22.34389972
22.16221586
21.90792845
21.57084265
21.15894754
20.6861857
20.16630574
19.58743542
18.89961043
18.16511411
17.40928957
16.60634251
15.75267317
14.84188213
13.93493931
13.02254347
12.11750352
11.21123489
10.19898122
8.776858034
14.3603636
18.70356892
25.03946967
27.00557195
)


101
(
-1.814424366e-08
0.000483098946
0.01427360583
0.1073428795
0.4099518454
1.062114723
2.162682138
3.797427306
5.961205139
8.595792173
11.60805948
14.86910374
18.22854305
21.55240482
24.71928696
27.60890073
30.12879625
32.22558828
33.86879432
35.0522163
35.79934549
36.14205323
36.12853722
35.81206641
35.24603371
34.48356432
33.57098044
32.54253416
31.42455272
30.23201296
28.97797552
27.67317356
26.32140251
24.95178773
23.56023704
22.16936824
20.80027815
19.47302526
18.2131391
17.05088216
16.0082932
15.10242546
14.35858863
13.78542934
13.38134718
13.14726782
13.07552951
13.16040218
13.3868134
13.7447884
14.22040997
14.80163159
15.47341781
16.21693919
17.01610735
17.86105596
18.74537558
19.64439384
20.55941822
21.48014731
22.39575372
23.28908431
24.15551275
24.98730021
25.78223725
26.53658813
27.24446729
27.91344521
28.53531756
29.10263235
29.60718444
30.04052731
30.38943306
30.66501826
30.87073842
31.00014235
31.04485281
31.00652678
30.87534987
30.66277359
30.35037729
29.95054877
29.46255476
28.903977
28.28881115
27.54934557
26.70665792
25.83397615
24.91001399
23.91730339
22.82946846
21.74280363
20.62372889
19.50781284
18.35966256
17.04534617
15.09831392
21.5020407
25.52736659
30.46027592
29.6000138
)


101
(
-2.354869856e-08
0.0004360915342
0.01330404022
0.1010695683
0.3876198547
1.006957599
2.054967588
3.61389128
5.684871584
8.217266497
11.12881005
14.30268939
17.60071332
20.89585782
24.07473329
27.02317928
29.64906199
31.89391892
33.72289725
35.12155319
36.10023792
36.68399347
36.91133346
36.82547751
36.4736901
35.90193675
35.15146679
34.25268606
33.22968577
32.09588941
30.86504664
29.55184943
28.16769241
26.75420391
25.32048021
23.90170764
22.53102607
21.23766918
20.05280466
19.00528469
18.11330853
17.38586346
16.84517699
16.49624851
16.33410679
16.35571549
16.5458709
16.89474657
17.38365125
18.00108781
18.72760193
19.55245522
20.46512323
21.44263408
22.46819238
23.53232737
24.6306808
25.73690597
26.8487276
27.96218049
29.07104384
30.15241915
31.196882
32.20536211
33.17518884
34.09190726
34.95886044
35.77093714
36.53723416
37.24468322
37.88310581
38.44858355
38.91925039
39.3008528
39.59569035
39.8018403
39.92622074
39.950655
39.8676533
39.68975921
39.38929491
38.98922003
38.48874114
37.89088959
37.21782706
36.43182308
35.51874711
34.53081249
33.50427677
32.41187208
31.18058166
29.97299683
28.66517176
27.39700264
26.06783314
24.50836414
21.97659127
27.74079571
29.84863084
31.53253929
26.92660742
)


101
(
-2.836957591e-08
0.0003920118467
0.01238411499
0.09508585511
0.3662836356
0.9542401138
1.95203564
3.438739688
5.421155116
7.855927076
10.67078714
13.76066339
16.99876654
20.26503459
23.45351205
26.45593177
29.1813202
31.56722033
33.57440092
35.18134841
36.3861257
37.20708092
37.67405789
37.81996915
37.68590058
37.31014269
36.72786993
35.96605167
35.04870795
33.99089419
32.80957134
31.52532561
30.15910606
28.76440915
27.36123367
25.99334064
24.70071179
23.51697881
22.47556512
21.60346921
20.91154601
20.40139543
20.08866586
19.97305718
20.04708106
20.30741023
20.73527508
21.31790118
22.03451755
22.8731736
23.81217859
24.84120371
25.95347029
27.12656193
28.34356108
29.59340717
30.87307195
32.15804489
33.43934478
34.71715313
35.9861
37.23055391
38.43067595
39.59459932
40.7139784
41.76893041
42.76489749
43.69628673
44.5748968
45.38272298
46.11242444
46.76359037
47.30736182
47.75099521
48.08617281
48.30482244
48.43165114
48.44505209
48.348741
48.1274798
47.76755548
47.29407169
46.69758386
45.99416069
45.2022902
44.2888393
43.25044717
42.10863987
40.92204169
39.69370734
38.30221504
36.96373117
35.49324758
34.07565138
32.60662653
30.80176329
27.6512787
31.06235032
29.65037964
26.61698821
16.18736221
)


101
(
-3.263392898e-08
0.0003507468176
0.01151221869
0.08938142907
0.3459043466
0.9038542188
1.85364358
3.271478365
5.169253006
7.510557867
10.23226992
13.24061625
16.41966366
19.65623896
22.85135141
25.90240981
28.72008745
31.23904761
33.41591448
35.22253397
36.64710137
37.70068488
38.40549893
38.78340515
38.86974578
38.6959026
38.29058867
37.67836578
36.88550775
35.93150484
34.83874791
33.63437878
32.34757573
31.04178227
29.74280763
28.49860244
27.35134349
26.33532133
25.48417053
24.82264764
24.35611695
24.07696009
23.99467064
24.1042404
24.39595882
24.86754669
25.50072216
26.28324075
27.19037492
28.2121525
29.32849448
30.52761784
31.80255032
33.13765331
34.51253918
35.91341111
37.34397102
38.77875046
40.20017451
41.60913291
43.00558635
44.37640388
45.70022939
46.98210879
48.20097441
49.35579137
50.43057355
51.42087504
52.34054303
53.17164824
53.91358063
54.55513241
55.07431457
55.4728815
55.73777413
55.85344544
55.83570838
55.70187003
55.43343767
55.02091178
54.45681038
53.75105922
52.89260876
51.92674127
50.85636891
49.67006223
48.36263367
46.94796862
45.47561477
43.99181231
42.37108218
40.80649591
39.14689978
37.52901666
35.89537397
33.84004693
30.16504203
29.59661597
23.51241777
15.16176618
0.265266101
)


101
(
-3.636868922e-08
0.0003121859378
0.01068650145
0.08394631558
0.3264448881
0.8556982661
1.759566013
3.111653614
4.92842514
7.180059893
9.811763064
12.74048663
15.86082074
19.06636052
22.26467297
25.35867867
28.2609224
30.90423925
33.24164681
35.23794734
36.87514016
38.1559821
39.0958401
39.70528412
40.01422901
40.04921768
39.83340414
39.38968583
38.74798333
37.93382344
36.97612454
35.90813612
34.7640848
33.61430034
32.48508454
31.42516526
30.47557174
29.66854419
29.03689429
28.60340177
28.36915304
28.32004087
28.46053412
28.78058741
29.26882561
29.92514952
30.73407024
31.68560917
32.75298758
33.9275199
35.19115991
36.5324126
37.9419398
39.4095352
40.91487276
42.4373298
43.98713907
45.53670651
47.06699262
48.57129507
50.05242002
51.49913988
52.89652236
54.23674127
55.49248703
56.67148519
57.73884926
58.69649226
59.55056101
60.29541189
60.91855274
61.4039737
61.74082746
61.92255057
61.93287742
61.76059952
61.41667273
60.9063093
60.23802069
59.407767
58.41051616
57.23119743
55.88913548
54.42342383
52.84707727
51.15914979
49.36622627
47.48960836
45.55685899
43.64611468
41.67461277
39.74617547
37.80093646
35.91836655
34.04246214
31.71487731
27.69101503
22.23750177
11.23594114
-2.060324573
-20.43965548
)


101
(
-3.960059527e-08
0.0002762212355
0.009905134752
0.07877086618
0.3078698714
0.8096766358
1.669594533
2.958849606
4.69798316
6.863407195
9.407961555
12.2585403
15.32008657
18.4927753
21.69034782
24.82111305
27.79973551
30.55811627
33.0465158
35.22292325
37.06480035
38.56664776
39.73703507
40.57713276
41.1111171
41.36315124
41.35271451
41.10146536
40.64317693
40.00955249
39.23537878
38.35843831
37.41523843
36.47961912
35.57421405
34.74651647
34.0341208
33.46469003
33.06925471
32.87037833
32.8671517
33.04161717
33.3948652
33.91256129
34.58142998
35.40335585
36.36578967
37.46324027
38.67177942
39.97952892
41.36931934
42.83056783
44.35225948
45.92743604
47.53786116
49.16080389
50.80067116
52.42813878
54.03034484
55.59114496
57.09850808
58.56135624
59.95823726
61.27283932
62.47564327
63.56988544
64.51688511
65.31239277
65.95811932
66.45352904
66.77176177
66.91299818
66.8614665
66.60179929
66.12209191
65.41595568
64.47899186
63.32264978
61.97802399
60.44366016
58.7175898
56.78623581
54.68327718
52.45280196
50.09551942
47.6643899
45.15423516
42.59954941
40.02268373
37.51359601
35.03906144
32.63669939
30.2938116
28.07584299
25.91969382
23.35582649
19.34673742
9.043446579
-6.209602561
-23.47923354
-43.82838215
)


101
(
-4.235617627e-08
0.0002427469319
0.009166635707
0.07384573211
0.2901454525
0.7656991646
1.583535073
2.812685476
4.477303415
6.559675852
9.019718657
11.79329022
14.79565294
17.93333144
21.1258543
24.2868378
27.33329744
30.19694425
32.82623397
35.17338587
37.21155011
38.92786809
40.32296846
41.39263979
42.15467783
42.63299909
42.84588122
42.81384338
42.57345549
42.16138674
41.61637212
40.97873589
40.28543602
39.61111401
38.97192759
38.4131448
37.96788408
37.6577028
37.51054845
37.54968386
37.77487174
38.16744286
38.72731148
39.4369562
40.28019931
41.2592232
42.36458782
43.59649085
44.93602105
46.36708771
47.87098927
49.43938188
51.05826197
52.71879891
54.4079108
56.10634358
57.8079422
59.48021851
61.10908774
62.67236412
64.14649147
65.54880058
66.85152663
68.03450337
69.07120557
69.94570695
70.62673128
71.09824431
71.35293974
71.39097279
71.1899756
70.75288261
70.05618299
69.08861945
67.84725561
66.32321294
64.50960654
62.41788213
60.09002172
57.54510234
54.79451931
51.8341377
48.69647534
45.43767484
42.08067215
38.67189819
35.25392088
31.85487857
28.50239553
25.28556742
22.21163784
19.26999955
16.50602918
13.9454316
11.54753416
8.862358761
5.388880863
-8.888625941
-27.20784732
-47.61993611
-69.50430009
)


101
(
-4.466174823e-08
0.0002116609957
0.008469795508
0.06916188037
0.2732392579
0.7236807926
1.501206498
2.672808712
4.265813455
6.268028998
8.645938928
11.34350209
14.28594263
17.38615991
20.56904922
23.75348514
26.85904169
29.81773843
32.5771571
35.08515697
37.31071236
39.23447204
40.84897424
42.14714086
43.14098157
43.85523117
44.30955271
44.52355126
44.53440025
44.38155932
44.10563133
43.74730806
43.34246105
42.96577115
42.62598375
42.36474226
42.21070702
42.17880691
42.29217841
42.57529709
43.03072076
43.64180778
44.40947091
45.31459303
46.33702651
47.47765396
48.72898672
50.09603552
51.56298482
53.11490912
54.73145766
56.40200509
58.11414106
59.84524864
61.58853981
63.32952507
65.0580101
66.73323309
68.33776632
69.84135562
71.21625116
72.46549109
73.56593327
74.49126918
75.22811621
75.72796279
75.97028596
75.92797263
75.58483007
74.94834558
73.99452606
72.71681561
71.10154591
69.14857827
66.85999829
64.23199501
61.26222443
57.95673683
54.36768004
50.54376554
46.5246932
42.30119756
37.91791829
33.44816111
28.93724072
24.42407811
19.99419957
15.6803479
11.51919063
7.584928783
3.917788878
0.4902301305
-2.646464429
-5.461326549
-7.984971791
-10.56756941
-12.93127624
-29.98305722
-50.46437121
-74.07837154
-98.64992974
)


101
(
-4.654342993e-08
0.0001829455519
0.007812679445
0.06471055868
0.2571202957
0.6835411809
1.422440606
2.538896385
4.062994568
5.987716887
8.285636056
10.90812561
13.78963536
16.84965975
20.01815872
23.21917193
26.3750078
29.41824133
32.29643343
34.95458931
37.35820707
39.48198976
41.31134088
42.83724753
44.06714092
45.02671658
45.73890284
46.22307342
46.51460424
46.65325548
46.67981104
46.6337086
46.54761112
46.49541949
46.47989663
46.53838355
46.69648917
46.96248442
47.35250391
47.89239536
48.587936
49.42600611
50.41119725
51.52397803
52.74108626
54.06093529
55.47393764
56.98570845
58.58578601
60.26395935
61.9978535
63.77409152
65.57917395
67.37493584
69.15533876
70.90871349
72.62428456
74.25254839
75.77445684
77.15378112
78.35097762
79.34984719
80.13424911
80.66494483
80.94483988
80.90387232
80.52223547
79.76681297
78.61464937
77.07631527
75.12685787
72.76260855
69.97795352
66.78072937
63.184478
59.19962475
54.82830842
50.0861084
45.04344919
39.75070364
34.29139787
28.66382552
22.92681362
17.17072684
11.46723945
5.840378794
0.4025676955
-4.789416348
-9.688881008
-14.24526336
-18.40706723
-22.19114503
-25.5752864
-28.49790632
-30.97843267
-33.20193082
-33.97897651
-53.08649417
-75.84653675
-104.1085134
-134.0831707
)


101
(
-4.802925097e-08
0.0001564084687
0.007193373461
0.06048325386
0.2417588564
0.6452043548
1.347079306
2.410650719
3.868379775
5.718070309
7.937928683
10.48618182
13.30563119
16.32255452
19.4717881
22.68243248
25.87975927
28.99696238
31.98223549
34.77907447
37.35075558
39.66659325
41.70624604
43.45958651
44.9304628
46.14448153
47.12810596
47.90144061
48.4969364
48.95266988
49.30848856
49.60186953
49.86053516
50.15328269
50.48009804
50.87555853
51.36447793
51.94997093
52.63848611
53.45592562
54.41110603
55.49402396
56.71471611
58.0555894
59.49203206
61.01764575
62.61740574
64.29592003
66.04684668
67.86424607
69.72587355
71.61578521
73.5142859
75.37424298
77.18229068
78.92590109
80.58871674
82.12133972
83.49781985
84.68284884
85.6178124
86.27198711
86.62292785
86.62516182
86.28130509
85.53140117
84.34023161
82.67865814
80.52070694
77.86791701
74.70698082
71.03809763
66.87165015
62.22547404
57.12306802
51.59291511
45.65363971
39.34107754
32.72858927
25.88376104
18.91035467
11.84427633
4.744943613
-2.276895918
-9.124148985
-15.78425758
-22.14189682
-28.11431049
-33.63619258
-38.67837314
-43.22247103
-47.24388881
-50.7735987
-53.69537467
-56.03736586
-57.73717986
-56.72529691
-78.27183984
-104.9383056
-140.840063
-180.1477095
)


101
(
-4.91419949e-08
0.0001318732364
0.006610769678
0.05647171141
0.2271264591
0.608598485
1.274975156
2.287797443
3.681546106
5.458492707
7.60203626
10.07675095
12.83298545
15.80381577
18.92885482
22.14213759
25.37219486
28.55311897
31.63380496
34.55720793
37.28593269
39.7851026
42.02988416
44.0102304
45.72720844
47.20438178