/*--------------------------------*- C++ -*----------------------------------*\
| =========                 |                                                 |
| \\      /  F ield         | OpenFOAM: The Open Source CFD Toolbox           |
|  \\    /   O peration     | Version:  2.3.1                                 |
|   \\  /    A nd           | Web:      www.OpenFOAM.org                      |
|    \\/     M anipulation  |                                                 |
\*---------------------------------------------------------------------------*/
FoamFile
{
    version     2.0;
    format      ascii;
    class       dictionary;
    location    "constant";
    object      la_r21;
}
// * * * * * * * * * * * * * * * * * * * * * * * * * * * * * * * * * * * * * //

la_r21_table
101
(

101
(
-8.047036719e-07
-0.0004256493039
-0.002555337237
-0.006472743901
-0.01133352022
-0.01592562334
-0.01966256589
-0.02037472252
-0.01865778445
-0.01203973871
-0.0001334825281
0.01976486832
0.04402980881
0.08536542542
0.1388594562
0.1977578683
0.2633705855
0.3676777639
0.3930694693
0.5120284357
0.564739128
0.5447952602
0.5803489499
0.6029964103
0.5959517379
0.5703838569
0.5318950025
0.4822717306
0.4370706575
0.3908669285
0.3471895079
0.3029487727
0.2526014215
0.2308698284
0.2033190502
0.1779864831
0.2164330171
0.3075908991
0.2719796254
0.2412108758
0.2134786526
0.1884865081
0.1660473386
0.1457812082
0.1283081243
0.1124709925
0.09883046023
0.0863255263
0.07540459547
0.06531547502
0.05658554236
0.04879350313
0.0417006428
0.03540409852
0.03031487608
0.02600866459
0.02165375884
0.01842394187
0.01528659956
0.01275222409
0.01044374034
0.008530297095
0.006861953808
0.00535943983
0.004293086264
0.003377513454
0.002649292955
0.002072471857
0.001565233991
0.00118480362
0.0008774379411
0.0006308921804
0.0004037309089
0.0002548458279
0.0003506658401
0.0003593519913
0.0002377464466
0.0001465739493
8.705245758e-05
5.111212038e-05
3.238739756e-05
1.451736823e-05
6.873828367e-06
5.156727006e-06
2.193839761e-06
9.656440008e-08
-6.389315826e-07
-7.0515956e-07
-5.7494842e-07
-8.840482096e-07
-5.341806529e-07
-2.36013917e-07
-9.357601627e-08
-7.456898831e-08
-3.873631358e-08
-3.906437677e-08
4.640549896e-14
-1.099747717e-32
-3.559583227e-24
3.284535272e-24
-1.039613506e-33
)


101
(
-8.013049624e-07
-0.0004172023883
-0.002592478986
-0.006808345611
-0.01249423185
-0.01877201875
-0.02539470945
-0.03076539259
-0.0357826029
-0.03895016836
-0.04046020749
-0.03888702158
-0.03817662668
-0.02892158103
-0.01474976955
-0.001723650434
0.01077297656
0.04920929552
0.03060403652
0.06822480124
0.07629201647
0.03106724749
0.01578905299
0.009125579858
-0.007581973252
-0.03126195599
-0.0573794697
-0.08487260879
-0.1066058545
-0.1236010773
-0.1359215092
-0.1451591002
-0.1553024992
-0.1550271498
-0.1517459377
-0.1511048293
-0.1323189032
-0.08514311584
-0.06848634105
-0.0671383998
-0.06660951879
-0.06471913533
-0.06218062978
-0.0591914379
-0.055507462
-0.05168028876
-0.0475887336
-0.04360189719
-0.03963224036
-0.03589801101
-0.03229081411
-0.0288585793
-0.02569209666
-0.02285003476
-0.02013164386
-0.01749524461
-0.01520906343
-0.01308443822
-0.01120385398
-0.009520061019
-0.00804546006
-0.006747900385
-0.005614202258
-0.004657328984
-0.003824185151
-0.003102917681
-0.002491781197
-0.001977195651
-0.00155619182
-0.001210153672
-0.0009297688777
-0.0007051982596
-0.0005310363908
-0.0003988837568
-0.0002875947686
-0.0002022588457
-0.0001439759607
-0.000101652115
-7.003019612e-05
-4.689304151e-05
-3.039657851e-05
-1.927517762e-05
-1.1971873e-05
-7.141453713e-06
-4.217610382e-06
-2.468462368e-06
-1.405564325e-06
-7.502759705e-07
-3.837592382e-07
-1.886608486e-07
-8.93122934e-08
-4.153248529e-08
-1.886595673e-08
-7.532503662e-09
-3.173379988e-09
-1.326182718e-09
-2.186444684e-10
-3.769204457e-10
-6.626596779e-10
-1.585391805e-09
-1.089676628e-07
)


101
(
-7.978911949e-07
-0.0004086018656
-0.002621786725
-0.007099570346
-0.01350763387
-0.02124218939
-0.03031409601
-0.03956654906
-0.05006595508
-0.06101962242
-0.0729633027
-0.08530872318
-0.102013583
-0.1160851423
-0.1300011502
-0.1489111403
-0.1724803599
-0.1787039484
-0.2253639296
-0.2385762018
-0.2605809428
-0.3175473178
-0.3577450184
-0.3805592371
-0.3995426371
-0.4163773415
-0.4287790586
-0.4364396371
-0.4368023434
-0.4302857281
-0.4181635428
-0.4019839964
-0.384487328
-0.3632983546
-0.3391232147
-0.3169948917
-0.292158389
-0.2567896868
-0.2272975743
-0.2067430649
-0.1894774023
-0.1728499837
-0.156784014
-0.1415623757
-0.127191508
-0.1138413234
-0.1014215483
-0.09002386068
-0.07956665615
-0.07007578583
-0.06147024452
-0.05369984128
-0.04672697074
-0.04052087564
-0.03498802342
-0.03003683406
-0.02567560553
-0.02184657908
-0.01850626157
-0.01559910638
-0.01308572083
-0.01091936176
-0.009056514772
-0.007470107935
-0.006125941567
-0.004991605658
-0.004037848284
-0.00324071386
-0.002581590527
-0.002038464502
-0.001595775209
-0.001236528073
-0.0009502062698
-0.000722569143
-0.0005424667651
-0.0004027242917
-0.0002961508585
-0.0002150750789
-0.0001542325715
-0.0001086426525
-7.513590488e-05
-5.088064366e-05
-3.382050351e-05
-2.193516103e-05
-1.387940039e-05
-8.557457557e-06
-5.253720476e-06
-3.206062515e-06
-1.873661379e-06
-1.061840963e-06
-5.868823546e-07
-3.089773541e-07
-1.708940762e-07
-8.838385901e-08
-4.563407238e-08
-2.234694737e-08
-5.845694526e-09
-1.16499197e-08
-2.184058205e-08
-5.12813845e-08
-2.413921912e-07
)


101
(
-7.944623816e-07
-0.0003998683189
-0.002643730128
-0.007349346586
-0.01438505533
-0.02336989469
-0.03450493022
-0.04696610793
-0.06188644052
-0.07896873482
-0.09892629719
-0.1216960782
-0.1510563795
-0.1817938065
-0.2154199881
-0.2561194029
-0.30362504
-0.3396117416
-0.4036463626
-0.4478404056
-0.4896577163
-0.5514899674
-0.6025372835
-0.6336028238
-0.6523830577
-0.6623637923
-0.6633798375
-0.6559954855
-0.6401068402
-0.6166505924
-0.5874441171
-0.5542800227
-0.5192199913
-0.4830117313
-0.4453852341
-0.4090972804
-0.3753697269
-0.340115114
-0.3067159165
-0.2777916786
-0.2518415252
-0.2273881885
-0.2043296304
-0.1828462718
-0.1630248186
-0.1449562324
-0.1285207944
-0.1136456536
-0.1001968037
-0.08810260731
-0.07724132291
-0.06752386273
-0.05886615747
-0.05118070507
-0.04437008003
-0.03834957877
-0.03301974449
-0.02834163176
-0.02425508175
-0.02068482145
-0.01758423216
-0.01489619747
-0.01256710148
-0.01055928048
-0.008835433639
-0.00735790657
-0.006097123062
-0.005020648504
-0.004113769526
-0.003349892715
-0.002708878058
-0.002172594912
-0.001730654624
-0.001367164673
-0.001069091273
-0.0008273694768
-0.0006333709704
-0.0004794485084
-0.0003588663471
-0.0002658393251
-0.0001947447516
-0.0001401748415
-9.931509854e-05
-6.903216643e-05
-4.703166847e-05
-3.131914925e-05
-2.035113538e-05
-1.322102512e-05
-8.469745746e-06
-5.228220282e-06
-3.140631888e-06
-1.85235494e-06
-1.090916191e-06
-6.353103272e-07
-3.615734985e-07
-1.917363177e-07
-6.210829892e-08
-1.421083412e-07
-2.80165636e-07
-6.524887621e-07
-1.9878373e-05
)


101
(
-7.910185353e-07
-0.0003910237267
-0.002658783137
-0.007560540209
-0.01513731842
-0.02518669497
-0.03804426004
-0.05313243044
-0.07157629234
-0.0934167725
-0.1194299028
-0.1498616195
-0.188196529
-0.2305456228
-0.2776463854
-0.3327602024
-0.3956013528
-0.4509034579
-0.525151068
-0.5874947118
-0.6419621489
-0.705323412
-0.7599913461
-0.7948536699
-0.8130171064
-0.8180658489
-0.811247476
-0.7938918116
-0.767237108
-0.732867626
-0.6928969991
-0.6494114276
-0.604136812
-0.5587240126
-0.5132172875
-0.4690230277
-0.4282833716
-0.3900443295
-0.3543759735
-0.3219289596
-0.2920324083
-0.2638661123
-0.2374018317
-0.2127642203
-0.1900909625
-0.1695025188
-0.1508787183
-0.1340860528
-0.1189383329
-0.1053367598
-0.09310573346
-0.08213112203
-0.07231616021
-0.06357182211
-0.05578174635
-0.04884039487
-0.04267343637
-0.03719528608
-0.03235737788
-0.02806158964
-0.02428056811
-0.02096282224
-0.01804296077
-0.01548803176
-0.01325576024
-0.01129444359
-0.009584640061
-0.008096935943
-0.006810712738
-0.005705547903
-0.004746525478
-0.003924000707
-0.003223488353
-0.002631901658
-0.002131590078
-0.001711571233
-0.001358980362
-0.001069730294
-0.0008332344082
-0.0006423010602
-0.0004911986483
-0.0003703566183
-0.0002756194333
-0.0002021466621
-0.0001457485147
-0.0001030278352
-7.128854151e-05
-4.85574413e-05
-3.298862264e-05
-2.19302071e-05
-1.410583892e-05
-8.900480976e-06
-5.515401151e-06
-3.418459495e-06
-2.113631273e-06
-1.200519339e-06
-4.752690752e-07
-1.158744474e-06
-2.262586522e-06
-5.205595458e-06
-5.908477362e-06
)


101
(
-7.87559668e-07
-0.0003820888941
-0.002667397556
-0.007735854777
-0.0157744879
-0.0267214901
-0.04100149838
-0.05821428145
-0.07942371134
-0.1048905719
-0.1353766453
-0.1712884546
-0.215759731
-0.2658905802
-0.3218301732
-0.3860115965
-0.4580978535
-0.5253936617
-0.6050805081
-0.6773553064
-0.7395140322
-0.8029042274
-0.8578850881
-0.8943203537
-0.9123751627
-0.9149234737
-0.9038995745
-0.8811712426
-0.8486850972
-0.8084948768
-0.7628916133
-0.7140691379
-0.6637174383
-0.6136633196
-0.5642718293
-0.5163744603
-0.4716651371
-0.4306159306
-0.3930768295
-0.3588410868
-0.3272043909
-0.2974471051
-0.2694510515
-0.2432702133
-0.2190109022
-0.1968345394
-0.1767012697
-0.1585279579
-0.1421012851
-0.1272732794
-0.1138411656
-0.1016710947
-0.09067355162
-0.08078842475
-0.07191425717
-0.06391002932
-0.05670752989
-0.05023054658
-0.0444515423
-0.03922495406
-0.03452059871
-0.03035055898
-0.02660650906
-0.02327973823
-0.02033345152
-0.01769519064
-0.01534395159
-0.01325323085
-0.01139210445
-0.009779902292
-0.008342285126
-0.007077804333
-0.005966973539
-0.005005815486
-0.004171693608
-0.003452265036
-0.002834792695
-0.002309099117
-0.001859458137
-0.001484416364
-0.001174751482
-0.0009238594095
-0.0007160191944
-0.0005491162724
-0.0004148188585
-0.0003089486369
-0.0002250375121
-0.0001617248962
-0.0001145919351
-8.055864898e-05
-5.524413042e-05
-3.6953914e-05
-2.44694575e-05
-1.589725168e-05
-1.035796986e-05
-6.218641503e-06
-2.848439278e-06
-6.975347559e-06
-1.352680356e-05
-3.353576191e-05
-0.0001404606016
)


101
(
-7.840857942e-07
-0.0003730835608
-0.002670004208
-0.007877841252
-0.01630592697
-0.02800075113
-0.04343921147
-0.06234356445
-0.085679803
-0.1138410889
-0.147525808
-0.1872021804
-0.2356345331
-0.2906637216
-0.3520178328
-0.4214216112
-0.498482269
-0.5726812637
-0.6546677739
-0.7317110486
-0.7982097748
-0.8610697336
-0.915191637
-0.9523616111
-0.9711632108
-0.9735387504
-0.9615460917
-0.9373060033
-0.9030804431
-0.8611760122
-0.8139472127
-0.7635988925
-0.7118214118
-0.6604162729
-0.6099936774
-0.5611461428
-0.5149859396
-0.4723706303
-0.4335204332
-0.3981912758
-0.3656964508
-0.3352489037
-0.3065868114
-0.2796460981
-0.25442758
-0.2310825455
-0.2096596714
-0.1902208636
-0.1725756049
-0.1565126434
-0.1418520039
-0.128383486
-0.1160416486
-0.1048012735
-0.0946357043
-0.08534019074
-0.07684125544
-0.06910321621
-0.06209125039
-0.05566722374
-0.04980733796
-0.0445266973
-0.03970836936
-0.03532757111
-0.03139159819
-0.02782640202
-0.02458704306
-0.02165490857
-0.01898794079
-0.01660815151
-0.01447215252
-0.01256078071
-0.01084463763
-0.009317769396
-0.007959042889
-0.006756557549
-0.005707437422
-0.004784606649
-0.003973161166
-0.003272776606
-0.002672598486
-0.002173124999
-0.001747222857
-0.001390631596
-0.001095595119
-0.0008517549109
-0.0006513119549
-0.0004898034235
-0.0003641904071
-0.0002688157959
-0.000194229362
-0.0001371535849
-9.590769346e-05
-6.588396499e-05
-4.513510051e-05
-2.844812378e-05
-1.441379772e-05
-3.829405712e-05
-7.42164792e-05
-0.0001700263029
-0.0001481959915
)


101
(
-7.805969241e-07
-0.0003640264444
-0.00266701364
-0.007988905781
-0.01674030704
-0.02904850909
-0.04541314203
-0.06563598077
-0.09056256728
-0.1206535319
-0.1565145323
-0.1986139696
-0.2493512606
-0.3071263305
-0.3713855589
-0.4432743987
-0.5223577512
-0.5999604744
-0.6822251237
-0.7608820031
-0.8295244719
-0.8917602474
-0.9449401353
-0.9828053789
-1.003262281
-1.007419546
-0.9971136437
-0.9744529424
-0.9417495689
-0.9013701783
-0.8556362897
-0.8066845166
-0.7561689377
-0.7058230747
-0.6564554441
-0.6085858284
-0.5628594637
-0.5200782994
-0.4807759472
-0.4448866779
-0.4119065705
-0.3810768095
-0.352104845
-0.3247720352
-0.2989469189
-0.2747227514
-0.252144306
-0.2314040092
-0.2124511214
-0.1950565437
-0.1790581152
-0.1641410523
-0.1503092217
-0.1375417156
-0.1258340551
-0.1150044504
-0.1049937347
-0.0957273914
-0.08720360031
-0.07926560022
-0.07191073045
-0.06519982966
-0.05899664528
-0.05328586095
-0.04804883531
-0.04324680792
-0.03880533059
-0.03475600299
-0.03100951907
-0.02759428757
-0.02448957251
-0.0216436135
-0.01904866906
-0.0166915275
-0.01456275988
-0.01262959185
-0.01091140583
-0.009372711446
-0.008000782925
-0.006778568303
-0.005691249497
-0.004747661049
-0.003940980282
-0.003235729678
-0.002638988844
-0.002130658322
-0.001695381224
-0.001329797083
-0.00103288752
-0.0007943602632
-0.0006030138569
-0.0004470612716
-0.0003295417276
-0.0002391814963
-0.0001720817481
-0.0001166138084
-6.554007399e-05
-0.0001658785121
-0.0003138201673
-0.000684780412
-0.0005454092522
)


101
(
-7.770930732e-07
-0.0003549352276
-0.002658817124
-0.008071319073
-0.0170856896
-0.02988668846
-0.0469730995
-0.06819306158
-0.09426127616
-0.1256568466
-0.1628779292
-0.206357188
-0.2581500681
-0.3170808027
-0.3824286136
-0.4548822578
-0.5339863636
-0.6126262141
-0.6939042053
-0.7723310537
-0.8417383105
-0.9034585887
-0.9560906995
-0.9950081888
-1.017946466
-1.025400146
-1.018847542
-1.000179521
-0.9715576518
-0.935254113
-0.8934788198
-0.8482600281
-0.8011507227
-0.7537390349
-0.7070578147
-0.661573952
-0.6176296443
-0.5758954312
-0.5371125031
-0.5013090084
-0.4682670681
-0.437392637
-0.4083025755
-0.3807177505
-0.3544545786
-0.3295590353
-0.3060142499
-0.2840532225
-0.2638136935
-0.245026212
-0.2274967348
-0.2109978717
-0.195548313
-0.1809946639
-0.1675339127
-0.1550006685
-0.1431972029
-0.1321149797
-0.1218037877
-0.1120763854
-0.1029302709
-0.09446960863
-0.08648414331
-0.07908280787
-0.07220666986
-0.06585251912
-0.05992794536
-0.05441800484
-0.0492585688
-0.0444086987
-0.03996839122
-0.03582949187
-0.03207670287
-0.02861330186
-0.02539647801
-0.02243559649
-0.01974633434
-0.01729257615
-0.01507326096
-0.01305337767
-0.0112411372
-0.009595959279
-0.008173349078
-0.006891224738
-0.005786203728
-0.004803189751
-0.003959992651
-0.003219517151
-0.002594788697
-0.002071771706
-0.00163536629
-0.001270051955
-0.0009797297637
-0.0007465950229
-0.0005631101632
-0.0004069441577
-0.0002517056773
-0.0005896263822
-0.00108150492
-0.002229458121
-0.004687860146
)


101
(
-7.735742503e-07
-0.0003458266225
-0.002645787238
-0.008127211887
-0.01734956323
-0.03053542241
-0.04816416108
-0.0701050496
-0.09694098911
-0.1291330837
-0.1670670991
-0.2111220441
-0.2630399991
-0.3219691004
-0.387112285
-0.4588121685
-0.5366159363
-0.6147281616
-0.6942647779
-0.7714497245
-0.8408165318
-0.9022252758
-0.9548354283
-0.9953105553
-1.021440993
-1.033320464
-1.032058811
-1.019203952
-0.9966129737
-0.9663397128
-0.930419045
-0.8907670411
-0.8488363244
-0.8059563822
-0.7632760205
-0.7213488956
-0.680378347
-0.6408955236
-0.6037609014
-0.5689128612
-0.5363526153
-0.5057081991
-0.4767300461
-0.449087157
-0.4225935682
-0.3972696513
-0.3730187717
-0.3500993439
-0.3286500356
-0.3084361279
-0.2893592507
-0.2712868832
-0.2541481153
-0.23777446
-0.2224037164
-0.2078364214
-0.1940688322
-0.1808210748
-0.1684356726
-0.1566720554
-0.1453986951
-0.1348966735
-0.124827028
-0.1153863641
-0.1065089542
-0.09817567378
-0.09036748383
-0.08297020431
-0.07598864013
-0.06939682518
-0.06326723662
-0.05750519742
-0.05211236539
-0.04711153681
-0.04245181428
-0.03813116099
-0.03408704098
-0.03033850629
-0.02694286048
-0.02377264811
-0.02084915218
-0.01820346546
-0.01581281618
-0.01367611068
-0.01173827391
-0.009994190305
-0.008481251402
-0.007108330877
-0.005910836502
-0.004865015602
-0.003969749002
-0.003204551277
-0.002566249046
-0.002039398151
-0.001604588876
-0.001217179506
-0.0008260501938
-0.001795038309
-0.003166176347
-0.006076026691
-0.01929826644
)


101
(
-7.700404736e-07
-0.000336716469
-0.002628277778
-0.008158579113
-0.01753883011
-0.03101307921
-0.04902709241
-0.07145251748
-0.09874500602
-0.1313222585
-0.1694607192
-0.2134793781
-0.2648417848
-0.3229447819
-0.3869842818
-0.4570527098
-0.5327198169
-0.6093029597
-0.6866802574
-0.7621267191
-0.8310247809
-0.8923525103
-0.945468073
-0.9880174287
-1.017941922
-1.035077634
-1.040207793
-1.034487109
-1.019377352
-0.9966332919
-0.9680403497
-0.9353638668
-0.8999903207
-0.8630594408
-0.825645696
-0.7884244662
-0.7516200348
-0.7156271607
-0.6812260726
-0.648287601
-0.6170003915
-0.5871618722
-0.5587644768
-0.5314572515
-0.5051129009
-0.4797716615
-0.455189206
-0.4315867984
-0.4090759552
-0.387580093
-0.3670747049
-0.347522548
-0.3287930672
-0.3106886976
-0.2931580901
-0.2764784878
-0.2606603595
-0.2452011414
-0.2305518086
-0.2165495987
-0.2029070388
-0.1899823339
-0.1775920539
-0.1657748189
-0.1544743504
-0.1436582233
-0.1336174868
-0.1239531531
-0.1148218416
-0.1060508821
-0.09776206385
-0.08986609482
-0.08245630007
-0.07548984123
-0.06893637157
-0.06272006389
-0.05685177662
-0.05137544025
-0.04630089709
-0.0415225996
-0.03702676357
-0.03293300542
-0.02911314506
-0.02567238684
-0.02250270476
-0.01955804709
-0.01696064732
-0.01455733234
-0.01241121037
-0.01052842277
-0.0088146406
-0.007345669877
-0.00607863258
-0.004994021972
-0.00407425173
-0.003227280074
-0.00234215014
-0.004764124108
-0.008073240224
-0.01439017832
-0.01889621774
)


101
(
-7.664917843e-07
-0.000327619639
-0.002606626103
-0.008167305462
-0.01765992469
-0.03133652953
-0.04959875401
-0.07230713495
-0.09979843756
-0.1324298407
-0.170377603
-0.2139011479
-0.2642217672
-0.3209283186
-0.3832600307
-0.4511400601
-0.5241757555
-0.5986212813
-0.6736370851
-0.7471599732
-0.8154041724
-0.876882295
-0.9309815507
-0.9760452615
-1.010263809
-1.033268395
-1.045520867
-1.047823892
-1.04123396
-1.027158497
-1.007068664
-0.9825191671
-0.9548497047
-0.9251520477
-0.8942890076
-0.8629764347
-0.831520814
-0.800229488
-0.7697390962
-0.7398360416
-0.7108687452
-0.6827557264
-0.6557124034
-0.6294841467
-0.6039918252
-0.5792647843
-0.5548652849
-0.5309848684
-0.5078169928
-0.4854193063
-0.463773509
-0.4429213694
-0.422816207
-0.4031091517
-0.3835740684
-0.3651717363
-0.3471930587
-0.3295732906
-0.3124364278
-0.2961535922
-0.2800960036
-0.2646010255
-0.2495876055
-0.2350314778
-0.2210930472
-0.2075493858
-0.1946484967
-0.182361164
-0.1706153072
-0.159232333
-0.1483568424
-0.1378597483
-0.1278916189
-0.1183853817
-0.1093236937
-0.1005995139
-0.0923467124
-0.08461874001
-0.07716040763
-0.07015372155
-0.06353301817
-0.05732912095
-0.05151139079
-0.04615484203
-0.04110999684
-0.03635434255
-0.03209153235
-0.02814424514
-0.0245095156
-0.02124140426
-0.01819291506
-0.01555939793
-0.0131999592
-0.0111657435
-0.009374405012
-0.007688031882
-0.005910345888
-0.01116104138
-0.01810388945
-0.03034046895
-0.04043793056
)


101
(
-7.629282423e-07
-0.0003185501593
-0.002581152072
-0.008155166387
-0.01771884269
-0.03152128881
-0.04991256967
-0.07273272259
-0.1002102635
-0.1326319981
-0.170086331
-0.2127773198
-0.2617200184
-0.3166523774
-0.3768915326
-0.4422577356
-0.5124062609
-0.5843752738
-0.6569705407
-0.7285587637
-0.7961005033
-0.857935029
-0.9133937376
-0.9612717882
-1.000055315
-1.029260433
-1.049083544
-1.060011964
-1.062718072
-1.05822463
-1.047650682
-1.032302409
-1.013451213
-0.9922051416
-0.9691892575
-0.9450806961
-0.9202283393
-0.8948675616
-0.8694918708
-0.8439742866
-0.8186463651
-0.7935147078
-0.7689160853
-0.744754984
-0.7210003262
-0.6977253998
-0.6744080835
-0.6511229061
-0.6280372689
-0.6054394554
-0.5832365438
-0.5615824931
-0.5405503094
-0.5196999948
-0.4988097782
-0.4787864549
-0.4590106408
-0.4392802095
-0.4198725463
-0.4012808611
-0.3828834446
-0.3648326049
-0.3471885877
-0.3297516863
-0.312704615
-0.2963812953
-0.280410363
-0.2650069234
-0.2502730761
-0.235705507
-0.2217400608
-0.2081795074
-0.1949686135
-0.1822479034
-0.1699857344
-0.1581565152
-0.1467515102
-0.135852334
-0.1254365718
-0.1153714486
-0.1056908482
-0.09653819159
-0.08792209084
-0.07971406436
-0.07202685131
-0.0647025718
-0.05787259206
-0.05157370003
-0.04562452089
-0.04019414078
-0.0351571634
-0.03066975217
-0.02655108804
-0.02289188225
-0.01970872793
-0.01662281604
-0.01337760432
-0.0236133342
-0.03659887976
-0.05787619018
-0.04723067378
)


101
(
-7.593497832e-07
-0.0003095212549
-0.002552159948
-0.008123838391
-0.01772116901
-0.03158161133
-0.04999891769
-0.07278629744
-0.1000750298
-0.1320788725
-0.1688131009
-0.2104299307
-0.2577737906
-0.310698996
-0.3686216044
-0.4313126865
-0.4984834962
-0.5678250707
-0.6380309567
-0.7077739323
-0.774620616
-0.8369386229
-0.8939994853
-0.9448746843
-0.9883415996
-1.023863825
-1.051474079
-1.07140724
-1.083992252
-1.089822697
-1.089632131
-1.084504813
-1.075652323
-1.064094728
-1.050199517
-1.034594364
-1.017641334
-0.999535123
-0.980658678
-0.9611104522
-0.9410366138
-0.9204290831
-0.8997013996
-0.8789404746
-0.8581231331
-0.8374134596
-0.8163612767
-0.7949024098
-0.7731611231
-0.7516529841
-0.7297923532
-0.7080534484
-0.687018457
-0.665850085
-0.6442911708
-0.6230164789
-0.6022908173
-0.5810068158
-0.5599930491
-0.5393777212
-0.5190865721
-0.4986267507
-0.4783320628
-0.4580660421
-0.4381983738
-0.4187633744
-0.3994309305
-0.3807265221
-0.3622081139
-0.3441987648
-0.3266061454
-0.3095241219
-0.2924181638
-0.2757016192
-0.25937763
-0.2433955035
-0.2279220233
-0.2131573457
-0.1985349226
-0.1844636899
-0.1706502069
-0.1575089814
-0.1448449748
-0.1326110209
-0.1211648006
-0.1101897556
-0.09959305485
-0.08981071427
-0.08046097015
-0.07182672333
-0.06377577623
-0.05644758551
-0.04965566433
-0.04353875135
-0.0380949317
-0.03283961855
-0.0273198073
-0.04548837063
-0.06785535405
-0.1022891969
-0.09721244655
)


101
(
-7.557564175e-07
-0.0003005452678
-0.002519939603
-0.008074903669
-0.01767211421
-0.03153057734
-0.04988520372
-0.07251852881
-0.0994754903
-0.1308991674
-0.1667477812
-0.207124288
-0.2527359105
-0.3035283824
-0.3590274978
-0.4189965268
-0.4832110595
-0.5499041525
-0.6178071296
-0.685851299
-0.7520363955
-0.8148990121
-0.8736713804
-0.9276162199
-0.9757757317
-1.017587627
-1.053008284
-1.08207169
-1.104846723
-1.121544798
-1.132508179
-1.138535793
-1.140746839
-1.140104599
-1.136634703
-1.130917769
-1.123318323
-1.114031521
-1.103375612
-1.091524982
-1.078549132
-1.064429302
-1.049501632
-1.0338759
-1.017555098
-1.000903215
-0.9836335729
-0.9655219416
-0.9467547084
-0.9278251599
-0.9077366928
-0.8872851344
-0.8676215119
-0.8473647796
-0.8264423136
-0.8053507722
-0.7846033576
-0.7630775959
-0.7410189521
-0.7191542718
-0.6976891596
-0.6755527782
-0.6527182641
-0.6299586631
-0.6076440901
-0.5849355914
-0.5625445005
-0.5398394658
-0.5177079119
-0.4957671785
-0.4738591977
-0.4525645805
-0.4309718219
-0.4095375218
-0.3882392021
-0.3669601106
-0.3465395899
-0.3263805817
-0.3063866345
-0.2871071473
-0.2675893457
-0.2488208975
-0.2307999222
-0.2130679465
-0.1958778263
-0.1796604162
-0.1641710087
-0.1491045128
-0.1350430945
-0.1218716572
-0.1092698938
-0.09789876513
-0.08696335151
-0.0771606355
-0.06839658249
-0.05991484327
-0.05090815729
-0.08040548274
-0.115871955
-0.1698089655
-0.2783611565
)


101
(
-7.52148161e-07
-0.0002916337818
-0.002484767135
-0.008009854892
-0.01757654218
-0.03138023172
-0.04959615491
-0.07197442648
-0.09848398095
-0.1292032072
-0.1640486916
-0.2030787743
-0.2468904327
-0.2955028847
-0.348555792
-0.4058343934
-0.4671854665
-0.5312893405
-0.5969990259
-0.6634777168
-0.7290310959
-0.7924455586
-0.8529682464
-0.9099698322
-0.9627566223
-1.010753335
-1.053874815
-1.091995726
-1.12502489
-1.152913576
-1.175711965
-1.193847502
-1.208124184
-1.21956392
-1.227822707
-1.233426957
-1.236741103
-1.237990676
-1.237491078
-1.235334199
-1.231715682
-1.226276913
-1.219334537
-1.211085018
-1.201546924
-1.191024639
-1.179352083
-1.16661019
-1.152759181
-1.138216892
-1.122119234
-1.10505886
-1.088407403
-1.070926183
-1.052544135
-1.033449999
-1.014257859
-0.9941564886
-0.9725716867
-0.9507254109
-0.9285446412
-0.9058271927
-0.8814234873
-0.8572416904
-0.832962354
-0.8073685019
-0.781729318
-0.7554973818
-0.7298031988
-0.7034492195
-0.6766637538
-0.6505560898
-0.6235074906
-0.5967459129
-0.5696995994
-0.5417277083
-0.5146544738
-0.4873089336
-0.4609105925
-0.4342978994
-0.4073820387
-0.381423592
-0.3556617242
-0.3306356723
-0.3063119979
-0.2822484463
-0.2596586129
-0.2375214993
-0.2164911494
-0.1968885409
-0.1776090278
-0.1603160367
-0.1437371245
-0.1286035965
-0.1151352459
-0.101852992
-0.08770831315
-0.1336967585
-0.1888158956
-0.2718822208
-0.2157470845
)


101
(
-7.485250324e-07
-0.0002827976732
-0.002446905278
-0.007930102263
-0.01743897771
-0.03114160472
-0.04915405894
-0.07119394593
-0.09716371061
-0.1270854823
-0.1608482163
-0.1984724059
-0.2404651827
-0.286906539
-0.3375500468
-0.3922229821
-0.4508456474
-0.5124648677
-0.5760915747
-0.6410955376
-0.7060392
-0.7699732072
-0.8322487718
-0.8922250528
-0.9495114075
-1.003553176
-1.054168668
-1.101121951
-1.144283334
-1.183480688
-1.218557064
-1.249578142
-1.276902499
-1.301559354
-1.322860693
-1.341338182
-1.357311437
-1.37100026
-1.382781438
-1.392665676
-1.40065638
-1.406339374
-1.410121496
-1.411912852
-1.411691152
-1.409858049
-1.406460436
-1.401828098
-1.39517355
-1.387423517
-1.378117756
-1.367310393
-1.355965845
-1.343873519
-1.330259772
-1.314910268
-1.299644431
-1.283329949
-1.26426376
-1.244015149
-1.223063197
-1.201182117
-1.177159952
-1.15312464
-1.126934294
-1.100413385
-1.07232979
-1.042611701
-1.012928706
-0.9817301111
-0.9502551182
-0.9184795345
-0.8854955189
-0.8524483577
-0.8186562625
-0.7831111185
-0.7466459236
-0.711356992
-0.675768211
-0.6398011857
-0.6040516581
-0.568670828
-0.5320386169
-0.4972961484
-0.4631509582
-0.4292073719
-0.3965101563
-0.3649869253
-0.3341123854
-0.3052978956
-0.277077054
-0.2511189617
-0.2268908778
-0.2041124767
-0.1840866267
-0.16425339
-0.1431821575
-0.212923113
-0.2975150079
-0.4284513
-0.4452325205
)


101
(
-7.448870345e-07
-0.0002740471954
-0.002406563844
-0.007836977153
-0.01726363576
-0.03082478935
-0.04857898533
-0.07021250904
-0.09557033126
-0.124627282
-0.1572571048
-0.1934511743
-0.2336419549
-0.2779606684
-0.3262718071
-0.3784583676
-0.4345103407
-0.4937772296
-0.5554378102
-0.6190069639
-0.6833515317
-0.7477449301
-0.8117193222
-0.8745289516
-0.9360766782
-0.9959258784
-1.053770814
-1.109277591
-1.162385909
-1.212901637
-1.260472238
-1.304879657
-1.346126783
-1.385105606
-1.420768757
-1.453794397
-1.484383847
-1.512553939
-1.538682723
-1.562833038
-1.58494772
-1.604617978
-1.621932468
-1.63670139
-1.648888785
-1.658953351
-1.667039387
-1.673560178
-1.677378274
-1.679645413
-1.680236339
-1.679095384
-1.67650062
-1.672904525
-1.667384088
-1.658648897
-1.649995105
-1.639733392
-1.626234587
-1.610320767
-1.59294773
-1.573791354
-1.552802451
-1.530721848
-1.504765103
-1.478783253
-1.44876082
-1.416603699
-1.383144986
-1.348672128
-1.312520766
-1.274255699
-1.23468615
-1.194140287
-1.151648911
-1.107361161
-1.062386462
-1.015690215
-0.9685328124
-0.9211686049
-0.8745893558
-0.8261420858
-0.7769820066
-0.7289314192
-0.682034574
-0.6348454035
-0.5880176335
-0.5439619013
-0.500024708
-0.4585503012
-0.4191475887
-0.3808439353
-0.3458912978
-0.313297177
-0.2835116664
-0.2544558753
-0.2237469211
-0.3299708423
-0.4619278339
-0.6726373598
-0.8093266035
)


101
(
-7.41234186e-07
-0.0002653919702
-0.002364021059
-0.007731734333
-0.01705443341
-0.03043902024
-0.04788899671
-0.06906145406
-0.09375303824
-0.1218993839
-0.1533680148
-0.1881335241
-0.2265648772
-0.268836311
-0.314916212
-0.364750841
-0.4183942822
-0.4754481055
-0.5352653992
-0.5974616522
-0.6612099253
-0.7259748099
-0.7915012394
-0.8569532694
-0.9224517144
-0.987791311
-1.052567716
-1.116314449
-1.179109936
-1.240797872
-1.300845054
-1.358878347
-1.414757751
-1.469087151
-1.520343657
-1.569461617
-1.616572715
-1.661358243
-1.704122634
-1.745049071
-1.783935124
-1.820343007
-1.854254463
-1.885330864
-1.913423714
-1.938988815
-1.962113661
-1.983380836
-2.002014313
-2.018449697
-2.032757318
-2.045026757
-2.055131624
-2.063862031
-2.070369996
-2.073160857
-2.075014413
-2.073895371
-2.069784024
-2.062618691
-2.050737208
-2.037983204
-2.022679474
-2.004778212
-1.981796494
-1.957700962
-1.928178842
-1.895139588
-1.859515577
-1.822597542
-1.780694629
-1.737200074
-1.691743224
-1.643109651
-1.591212383
-1.53746236
-1.480642747
-1.420836128
-1.361135718
-1.300192008
-1.238639841
-1.174645287
-1.110241949
-1.046537902
-0.9805961514
-0.918762121
-0.8543079006
-0.792936211
-0.7320288491
-0.6741043124
-0.6191514767
-0.5658447371
-0.5149891193
-0.4686612878
-0.4262421015
-0.3857762803
-0.3427165894
-0.5066348673
-0.7152876851
-1.058650051
-1.152295129
)


101
(
-7.37566506e-07
-0.0002568408404
-0.002319502469
-0.007615557381
-0.01681500814
-0.02999274116
-0.04710033743
-0.06776846034
-0.09175443056
-0.1189620247
-0.1492584512
-0.1826156502
-0.2193476233
-0.2596644578
-0.3036284709
-0.3512518549
-0.4026457325
-0.4576221213
-0.5157112273
-0.5766197552
-0.6397794724
-0.704840947
-0.7716853947
-0.8395481451
-0.9086234681
-0.9790234197
-1.050349777
-1.121979077
-1.194112105
-1.266678221
-1.339022275
-1.410674494
-1.481534904
-1.552062237
-1.620199072
-1.686951265
-1.752488176
-1.816066163
-1.877744247
-1.937803456
-1.996091873
-2.052194305
-2.106010148
-2.157056648
-2.204960285
-2.250030226
-2.292341139
-2.332754206
-2.370965271
-2.406354
-2.438814625
-2.469132051
-2.496743666
-2.521941108
-2.544590111
-2.564029523
-2.581560892
-2.595012717
-2.6046126
-2.610138128
-2.608482223
-2.60617677
-2.599761528
-2.589056886
-2.573355476
-2.553566399
-2.527816168
-2.496744733
-2.460519294
-2.420873446
-2.375247577
-2.327812838
-2.275743247
-2.218637454
-2.158049351
-2.094220109
-2.025837219
-1.952882095
-1.8778119
-1.800475752
-1.721815562
-1.641057664
-1.558570694
-1.474224439
-1.388358364
-1.305187574
-1.220775082
-1.13775208
-1.055507234
-0.977570161
-0.9021843483
-0.8272559264
-0.7587285074
-0.6939135608