/*--------------------------------*- C++ -*----------------------------------*\
| =========                 |                                                 |
| \\      /  F ield         | OpenFOAM: The Open Source CFD Toolbox           |
|  \\    /   O peration     | Version:  2.3.1                                 |
|   \\  /    A nd           | Web:      www.OpenFOAM.org                      |
|    \\/     M anipulation  |                                                 |
\*---------------------------------------------------------------------------*/
FoamFile
{
    version     2.0;
    format      ascii;
    class       dictionary;
    location    "constant";
    object      la_r4;
}
// * * * * * * * * * * * * * * * * * * * * * * * * * * * * * * * * * * * * * //

la_r4_table
101
(

101
(
0.0008708047681
0.4220863129
1.913996341
4.411750055
7.896929456
12.38917199
17.71567858
23.59393814
29.55873296
35.17942428
39.97065629
43.57733594
45.7670178
46.37971258
45.4977634
43.30659821
40.04042411
35.99255546
31.71301769
27.12423507
22.85906985
18.90277957
15.26134803
12.14527193
9.518089438
7.331850743
5.549193698
4.124590665
3.000382471
2.136202906
1.482668116
1.000664714
0.6547874021
0.4121179844
0.2598252627
0.1721118716
-0.02904840764
-0.05678091125
0.2165412792
0.4995124244
0.7589722397
0.9628890475
1.16062815
1.329082352
1.459687058
1.577732893
1.667541793
1.745863684
1.803525482
1.851869286
1.885022458
1.910220182
1.927991042
1.93901372
1.943832678
1.943523483
1.94361565
1.932818755
1.92129969
1.902609096
1.879858941
1.850906468
1.816018486
1.775719459
1.729184224
1.677314506
1.619741865
1.557005176
1.490146082
1.419102199
1.344972701
1.268592536
1.19109181
1.113116655
1.185379955
1.189197484
1.065981404
0.949765897
0.8405951869
0.7386924631
0.6443580649
0.5581135298
0.4798638412
0.483074959
0.4486533542
0.3532142076
0.2742762756
0.2093951127
0.1569958412
0.15036787
0.1021716156
0.06263339868
0.03678694658
0.02271174327
0.01090684684
0.002306614771
4.485289892e-14
-2.025114618e-29
-7.515052895e-24
4.560968793e-24
-2.228603822e-22
)


101
(
0.0008667481845
0.4120559505
1.867972859
4.302928388
7.693568651
12.05358855
17.21435081
22.90057289
28.66860429
34.10279761
38.74765821
42.26328814
44.43383872
45.11468414
44.38031683
42.40643343
39.41423565
35.67590147
31.69354979
27.42089921
23.4139263
19.69447467
16.24925607
13.26867541
10.73526777
8.601562195
6.830557953
5.381669143
4.199948017
3.252110518
2.494469195
1.895434844
1.432180396
1.037811675
0.7443939292
0.5202149894
0.3673795459
0.2638987573
0.1684394094
0.09464809766
0.05023200822
0.03394814842
0.0367951528
0.05687450269
0.09134496386
0.1371065833
0.1919749897
0.2542198204
0.3214723065
0.3924273493
0.4646390137
0.5370484472
0.6082655117
0.677222666
0.7424345167
0.8028666039
0.8586718846
0.9067689757
0.9489693316
0.9835331216
1.010978878
1.030801764
1.043232909
1.048583439
1.046692484
1.038005144
1.022917282
1.001870017
0.975600311
0.94439774
0.9089895357
0.8700127498
0.828261573
0.7843302152
0.7404202022
0.6954912133
0.6475791254
0.5971912877
0.5458743178
0.4949718826
0.4454026246
0.3976773541
0.3521893798
0.3102930971
0.2705488822
0.2315263686
0.1942355359
0.1600242323
0.1293403378
0.1027795027
0.07963328164
0.0587226423
0.04112114996
0.02721895853
0.01623542888
0.008047684458
0.00249343164
0.002604244505
0.002733222235
0.002907056901
0.003049588288
)


101
(
0.0008626743197
0.4024851878
1.8254169
4.200487948
7.496290338
11.71884922
16.70561533
22.1892583
27.75209795
32.99489087
37.4919536
40.91753557
43.06775496
43.80956202
43.2023917
41.4078039
38.63341667
35.13181236
31.33983544
27.2935705
23.41904873
19.81478699
16.47849496
13.54594932
11.03533452
8.911207495
7.136834357
5.674449579
4.476205781
3.506172086
2.725938518
2.1033178
1.613846937
1.206849712
0.8848166612
0.6341919627
0.4512079309
0.3203806753
0.2117761928
0.1211263148
0.05393002797
0.01250829413
-0.008893290236
-0.01378226736
-0.00414809691
0.01687553149
0.04746771552
0.08580425301
0.130324047
0.1795231623
0.231961641
0.2862760586
0.3412334122
0.3959653993
0.4496186268
0.5012060119
0.5500837875
0.5951393194
0.6358313881
0.6718683061
0.7027591578
0.728397953
0.7487029658
0.763530263
0.7728546771
0.7767655028
0.7755300209
0.7692662434
0.7582184621
0.7428610053
0.7234367177
0.7003782941
0.6740079835
0.6449747348
0.6142797602
0.5824154054
0.5488879779
0.5131947641
0.4755049207
0.4367423377
0.3980426683
0.3601196
0.3233265449
0.2882559313
0.2552339439
0.2236916908
0.192926009
0.163506085
0.136447961
0.1121218343
0.09050533082
0.07141043766
0.05416947672
0.03959488522
0.02775315055
0.01755218818
0.009127763709
0.009831751313
0.01060442401
0.01162325433
0.01242591443
)


101
(
0.0008585823688
0.3930451083
1.783503269
4.100165242
7.304393696
11.39566112
16.21807716
21.51333405
26.88904778
31.96301552
36.33721102
39.6996368
41.85609401
42.68236102
42.22346266
40.62482913
38.0791435
34.81947839
31.22706276
27.39416555
23.65732797
20.15692715
16.91133593
14.01907322
11.51680063
9.38476528
7.590080516
6.097878984
4.866398856
3.859568482
3.042414722
2.383854785
1.858459549
1.426121215
1.072527368
0.7873216845
0.5714031721
0.4073992243
0.2753608059
0.1642251571
0.0732967348
0.005238421994
-0.04236397434
-0.07307343881
-0.0890267416
-0.09289559361
-0.08651781345
-0.07162540232
-0.04940940908
-0.02124184096
0.01192225864
0.04884943982
0.08838402809
0.1297123413
0.1721960335
0.2149709538
0.25754151
0.2990868583
0.338712492
0.3761920693
0.4107283686
0.4420657604
0.4700282682
0.4942823001
0.5147186243
0.5313018784
0.5438942567
0.5525170718
0.5568257437
0.5572189838
0.5539039694
0.5470175749
0.5365136104
0.5227985425
0.5064232198
0.4879059097
0.4674487208
0.4448168591
0.4197635936
0.3924584548
0.3637349951
0.3345448906
0.3054288289
0.2767854677
0.2490533572
0.2224442201
0.1966569373
0.17123555
0.1469288295
0.1244826053
0.1040227464
0.08563612515
0.06900874644
0.05404195725
0.04138369734
0.02969588687
0.01879501768
0.02053659302
0.02252499678
0.02514491497
0.02723664049
)


101
(
0.0008544715179
0.3837346348
1.742225548
4.001917834
7.117712234
11.08351039
15.75050738
20.87021894
26.07478398
30.99935514
35.27163118
38.59280842
40.77663637
41.70531948
41.4103122
40.01985934
37.71061281
34.69655112
31.31109308
27.6832229
24.0875329
20.68508305
17.5174003
14.65935147
12.1562874
10.00366175
8.175398544
6.640442899
5.362426002
4.306612452
3.440453764
2.734898024
2.164214277
1.695985483
1.306879557
0.9858363749
0.7298052585
0.5281902984
0.365339665
0.2283878463
0.1119498546
0.01641891595
-0.05888104504
-0.1166638995
-0.1591368698
-0.1886256038
-0.2069673559
-0.2158242513
-0.2162774298
-0.2095292543
-0.1962708853
-0.1774595624
-0.1541431794
-0.1271929285
-0.09708116889
-0.06433739375
-0.02979120821
0.00619516978
0.04266844726
0.07947524099
0.1156692965
0.1506895556
0.1842249082
0.2158294962
0.2453415973
0.2727743209
0.2977804133
0.3199570388
0.3388277792
0.3544162206
0.3669866148
0.3764481443
0.382510929
0.3851466246
0.3846002732
0.3812288134
0.375326381
0.3668066446
0.355496067
0.3411896195
0.3241246492
0.3051088784
0.2849027764
0.2639235331
0.2426133122
0.2213161818
0.2002710575
0.1791437296
0.1579579582
0.1376107783
0.1185745776
0.1009562977
0.08480130012
0.06982746906
0.0566198308
0.043910596
0.03105479323
0.03410706378
0.03769571457
0.04216042104
0.04466428689
)


101
(
0.0008503409778
0.3745525858
1.701573653
3.905683255
6.936027911
10.78180355
15.30159164
20.25731691
25.30479894
30.09662602
34.28450578
37.58223049
39.81010951
40.85487487
40.73523256
39.56185279
37.49471915
34.7290816
31.55687699
28.12949948
24.67810167
21.37169656
18.27374533
15.44576588
12.93652323
10.75472323
8.882827873
7.294755527
5.959356993
4.844203232
3.919070329
3.156229542
2.531043881
2.016941899
1.5860299
1.224631231
0.9262805868
0.683207689
0.4837628622
0.3156656161
0.1707678306
0.04664037261
-0.05736248429
-0.1431734836
-0.2127923239
-0.26825854
-0.3113526538
-0.3437422437
-0.3664923794
-0.3805777031
-0.3865729434
-0.3852147947
-0.3774192221
-0.3640554988
-0.3456502151
-0.3226808234
-0.2958492526
-0.2654042395
-0.2321914281
-0.1970099422
-0.1606238067
-0.123065605
-0.08586212658
-0.04891918688
-0.01252776026
0.02277074774
0.05713731752
0.08997746751
0.1202092832
0.1486100857
0.1738726672
0.1968136084
0.2169634287
0.2343045149
0.2483685182
0.2593375332
0.2674628231
0.272835261
0.2751333553
0.2742788361
0.2699963401
0.2626619675
0.2528784155
0.2412296837
0.2280624628
0.2137805212
0.1987310398
0.1829235276
0.1661203648
0.1488587189
0.1321109331
0.1159884775
0.1007276499
0.08625523001
0.07293441831
0.05963230631
0.0452289004
0.04967852733
0.05420734529
0.05864016252
0.05801406252
)


101
(
0.0008461899828
0.3654979864
1.661537457
3.8114004
6.759131855
10.4899823
14.87011261
19.67226028
24.57504001
29.24836509
33.36643686
36.65505307
38.93996332
40.11098613
40.17486145
39.22478272
37.40384743
34.88889474
31.93552721
28.70708404
25.40351662
22.19424498
19.1618568
16.36182034
13.8438678
11.62767774
9.704976271
8.055600895
6.653801902
5.470230918
4.477037892
3.647944874
2.959359324
2.389606257
1.909353477
1.502100338
1.158200368
0.8702477289
0.6293606017
0.4249014648
0.2477359779
0.09319135482
-0.0402422799
-0.1541817854
-0.2503043159
-0.3303642185
-0.3959716125
-0.4486511288
-0.4894700424
-0.5194736985
-0.5390551293
-0.5493309913
-0.551080634
-0.545173872
-0.5318634556
-0.5128864242
-0.4890883227
-0.4596342693
-0.4261689726
-0.3901408871
-0.351987276
-0.3113672152
-0.2710069057
-0.2312483616
-0.1912516396
-0.1521540219
-0.1138472986
-0.07624778822
-0.04096312684
-0.007114803429
0.02416818126
0.0534599861
0.08044869601
0.1055652091
0.1280046818
0.1475495199
0.1647628616
0.1793449647
0.1913285872
0.2007323361
0.2068523287
0.2099348183
0.2099535163
0.2076100126
0.2030825907
0.1966627392
0.188747357
0.1794209296
0.1683752062
0.1557498993
0.1425267069
0.1291619949
0.1156878388
0.1024623479
0.08972757937
0.0762843214
0.06073931788
0.06517698394
0.06484429543
0.04477217547
0.01714806582
)


101
(
0.0008420177117
0.3565697602
1.622107035
3.719010513
6.586826925
10.20753034
14.4549653
19.11293042
23.88188903
28.44885936
32.5092203
35.80016409
38.15205467
39.45663945
39.70955612
38.98686879
37.41484584
35.15236825
32.42290879
29.39406124
26.24257552
23.13380108
20.16591586
17.39348883
14.86638743
12.61318997
10.63496902
8.918119835
7.442515687
6.182535926
5.112979301
4.209198144
3.448519072
2.813291555
2.274777583
1.814564558
1.420053145
1.08289149
0.795643214
0.5494246867
0.3355026353
0.1480771445
-0.01529507543
-0.1562630763
-0.2762136246
-0.376694165
-0.4592918277
-0.5255507359
-0.5765708114
-0.6139413008
-0.6381350601
-0.6516162997
-0.6548521266
-0.6490524954
-0.63506583
-0.615427304
-0.5911349259
-0.5621219352
-0.5295842611
-0.4956872772
-0.4608329544
-0.4236968857
-0.3872894114
-0.3518780992
-0.3176105575
-0.2847323339
-0.2535521695
-0.2216723722
-0.1914154696
-0.1618619663
-0.1338053467
-0.1077556932
-0.08293604076
-0.05851192987
-0.03442872486
-0.01185605872
0.009619926109
0.02976340881
0.04924661485
0.06784058079
0.08436090661
0.09823525253
0.1098621175
0.1195396172
0.1271466996
0.1327338632
0.1363927345
0.1387641524
0.1383728993
0.1354891566
0.1307023396
0.1249316631
0.1173044297
0.108858922
0.09971204983
0.08873725852
0.07464076118
0.06019738823
0.02680677596
-0.09648443271
-0.2196205896
)


101
(
0.0008378234086
0.3477668375
1.583272975
3.628457432
6.418926656
9.933968163
14.05514584
18.57743827
23.22212044
27.69306721
31.70568619
35.00799369
37.43431284
38.87745023
39.32277902
38.82983274
37.50827877
35.49956992
32.99858291
30.17156565
27.17718137
24.17402207
21.27204878
18.52858284
15.99359341
13.70281412
11.66637457
9.877587328
8.322079362
6.978432028
5.824493351
4.837520374
3.995707729
3.284495278
2.676813208
2.153779245
1.700660438
1.307668079
0.9677327239
0.6735782543
0.4176598852
0.1942062671
0.0002258670403
-0.1663516099
-0.3070386375
-0.4235977296
-0.5180002597
-0.5924966658
-0.6485370767
-0.6891036394
-0.7161367536
-0.7321986216
-0.738112244
-0.737048427
-0.7285697371
-0.7153607319
-0.7010067582
-0.6844047626
-0.6662642945
-0.6482727033
-0.6308573768
-0.6126635464
-0.5966572443
-0.5812584034
-0.5671782366
-0.5540830067
-0.5420445204
-0.529486542
-0.5164847211
-0.5030188609
-0.4882908002
-0.4731549078
-0.4562158601
-0.4373104869
-0.4159808482
-0.3923486376
-0.3671945875
-0.3409543813
-0.3126924825
-0.2817586316
-0.2492987865
-0.2172795419
-0.1867011908
-0.1558827598
-0.1259790231
-0.09684464193
-0.06996448472
-0.04254045046
-0.01880929998
0.00144181896
0.01892405127
0.03484908426
0.04575232934
0.05374547709
0.05954140724
0.06105115579
0.06134319379
-0.03173679178
-0.1660094786
-0.5387306718
-0.9001741553
)


101
(
0.0008336063151
0.3390883305
1.54502611
3.539687599
6.25525424
9.668845062
13.66972257
18.06406199
22.5928313
26.97649359
30.94949685
34.27016551
36.77625811
38.36101121
39.00034424
38.73803029
37.66750308
35.91337097
33.64488083
31.02299076
28.19141625
25.30038392
22.46770221
19.7560739
17.21596826
14.88881829
12.79305217
10.92900942
9.28819088
7.853717482
6.606843671
5.527078335
4.593631151
3.794277702
3.103970047
2.504928327
1.981673306
1.523268985
1.122388362
0.7733222743
0.4698479801
0.2067959248
-0.01945511184
-0.2118969651
-0.3729693575
-0.5054596859
-0.6123254919
-0.6969846559
-0.7624257761
-0.8129721702
-0.8513865505
-0.8805367846
-0.9025198871
-0.9201512691
-0.9338831332
-0.9467547648
-0.9601991719
-0.9753179147
-0.9907518496
-1.00724277
-1.025612183
-1.04378312
-1.063632331
-1.083687216
-1.104129378
-1.124814004
-1.145056087
-1.16333312
-1.178224461
-1.188652584
-1.194788018
-1.19668626
-1.194217041
-1.186335059
-1.171777651
-1.150189393
-1.122322853
-1.089471808
-1.051632863
-1.006233499
-0.9538369288
-0.8979967756
-0.8407048462
-0.7810813733
-0.7176775282
-0.6516423793
-0.5885892683
-0.5208945999
-0.4554642491
-0.3936608385
-0.3336441472
-0.2754950269
-0.2247161444
-0.1803352995
-0.1376066891
-0.1009400332
-0.05445307527
-0.3310842672
-0.6701734413
-1.447647096
-2.214696064
)


101
(
0.0008293656795
0.3305333135
1.50735778
3.452650574
6.095644741
9.41174236
13.29783143
17.5712164
21.99143502
26.29520786
30.23511368
33.57935629
36.16874385
37.89651603
38.72991765
38.69784904
37.87795572
36.37865102
34.34606624
31.93309412
29.27051239
26.49932
23.74141031
21.06575471
18.52450733
16.16352219
14.00843701
12.06645121
10.33499795
8.801991421
7.452337992
6.268148595
5.230156622
4.328305118
3.539693865
2.849033629
2.241769225
1.706785358
1.236621557
0.8264832405
0.4706246831
0.1641898562
-0.09753930286
-0.3190168686
-0.5044390017
-0.6583042052
-0.7849942763
-0.8895319795
-0.9763999136
-1.050612169
-1.1156593
-1.174694915
-1.230244673
-1.284687923
-1.339846867
-1.396370473
-1.455512075
-1.517904719
-1.582914154
-1.649697852
-1.718268256
-1.786972353
-1.85551358
-1.923199244
-1.989543373
-2.05400379
-2.116195546
-2.174251061
-2.22639441
-2.270383435
-2.306243482
-2.333471377
-2.3528288
-2.363451485
-2.363613809
-2.351327641
-2.32712599
-2.293383785
-2.250392087
-2.195257387
-2.126583824
-2.049253337
-1.964931534
-1.875853243
-1.776817277
-1.667035034
-1.55928607
-1.443244239
-1.324009893
-1.208375934
-1.088035029
-0.968987195
-0.8579670246
-0.7555952659
-0.653039326
-0.5501086208
-0.4009079335
-0.9881026384
-1.639821643
-2.88451387
-3.879315877
)


101
(
0.0008251007604
0.3221008359
1.470259588
3.367297728
5.939941008
9.162266196
12.93866936
17.09744768
21.41559715
25.64572703
29.55765115
32.92915024
35.60378354
37.4745564
38.50079213
38.69746485
38.12689624
36.8820301
35.08808439
32.88801351
30.40076886
27.75779636
25.08185874
22.44732872
19.9097366
17.51819893
15.30426619
13.28171805
11.45390229
9.813630299
8.349791826
7.047689245
5.890439582
4.870528949
3.967747881
3.170350581
2.466164285
1.844908688
1.29901236
0.8234389087
0.411468293
0.05756938751
-0.2446067192
-0.5013937285
-0.7189884778
-0.9038560301
-1.061865685
-1.199501466
-1.322076412
-1.435092619
-1.542459131
-1.64756051
-1.752618821
-1.859551493
-1.969781126
-2.083144223
-2.201483804
-2.323414882
-2.449291051
-2.577181877
-2.706176596
-2.834721931
-2.961673974
-3.085955585
-3.206938047
-3.323581457
-3.435780197
-3.542322454
-3.641030362
-3.728662896
-3.804716383
-3.867842779
-3.919203331
-3.958412142
-3.983932157
-3.992474715
-3.984057525
-3.961381035
-3.922887942
-3.868779966
-3.79601595
-3.706966046
-3.605305969
-3.494694857
-3.367379296
-3.218690814
-3.067020545
-2.906561717
-2.735490345
-2.559506694
-2.37342954
-2.186825519
-2.003340485
-1.828400415
-1.651329313
-1.459008191
-1.144937943
-2.083305793
-3.074408882
-4.738192804
-5.973948743
)


101
(
0.0008208108883
0.3137901189
1.433723562
3.283582672
5.787993737
8.920045492
12.59148634
16.64141887
20.86321949
25.02494864
28.91277856
32.31391359
35.07440481
37.08693474
38.30364447
38.72654625
38.40318302
37.41168596
35.85836349
33.87504241
31.5691533
29.06272796
26.47666145
23.88894209
21.35961642
18.94075688
16.66874583
14.56313183
12.63292406
10.87593772
9.285705948
7.851766497
6.560837326
5.40877536
4.3787834
3.463083379
2.652623725
1.938528835
1.312819374
0.7683493895
0.2965291221
-0.1100357846
-0.459678044
-0.7606894912
-1.021080248
-1.249115082
-1.451717495
-1.636289841
-1.808633833
-1.974453149
-2.137687938
-2.301731395
-2.468567325
-2.639417469
-2.814931153
-2.995278979
-3.181489521
-3.371465477
-3.565620796
-3.762013047
-3.958964356
-4.154458321
-4.347072204
-4.53518185
-4.717866573
-4.894724283
-5.064600384
-5.227127559
-5.380850459
-5.521161271
-5.647600761
-5.757763468
-5.851404853
-5.929429387
-5.991113649
-6.033551721
-6.054209514
-6.05461791
-6.035279823
-5.994900469
-5.930647448
-5.843950804
-5.738273475
-5.617080805
-5.47677363
-5.304869179
-5.116910264
-4.919885097
-4.707548981
-4.479147535
-4.233207942
-3.985339416
-3.733997673
-3.483423123
-3.228584283
-2.935672588
-2.384275808
-3.610994747
-4.848217755
-6.658702853
-7.731036665
)


101
(
0.0008164953563
0.3056003531
1.397742047
3.20146091
5.639660977
8.684730713
12.255577
16.20188814
20.33243631
24.43016026
28.29664066
31.72867654
34.57447925
36.72638565
38.13017642
38.77588396
38.69699895
37.95733397
36.64587957
34.88264186
32.76320263
30.40073627
27.91222027
25.37743706
22.86099053
20.41767154
18.08802291
15.8966256
13.85791748
11.97499808
10.24706106
8.669204781
7.233014343
5.938695054
4.773397269
3.732850686
2.810734037
1.999275033
1.289658918
0.6717134748
0.1344576447
-0.3320992056
-0.7386590051
-1.095276279
-1.41116338
-1.69589398
-1.957039766
-2.202401551
-2.437767744
-2.668900054
-2.899681679
-3.133307995
-3.371525836
-3.615157763
-3.86417761
-4.118568255
-4.37919652
-4.643255858
-4.911432857
-5.181551548
-5.452062512
-5.71993696
-5.983572271
-6.241185695
-6.491797525
-6.734328294
-6.967497307
-7.191714004
-7.404991163
-7.604514883
-7.787960761
-7.952830634
-8.096440003
-8.220076394
-8.323946036
-8.406229914
-8.464404836
-8.498224493
-8.505176454
-8.487338197
-8.440388351
-8.366316974
-8.265307434
-8.142025499
-7.998683648
-7.817941167
-7.605136685
-7.37964652
-7.136681757
-6.871647201
-6.577435684
-6.27977667
-5.970169489
-5.65922786
-5.331058345
-4.939685533
-4.07128217
-5.335037737
-6.571240896
-8.123427818
-8.704402989
)


101
(
0.0008121534441
0.2975307314
1.362307648
3.120889713
5.494807211
8.455992851
11.93028539
15.77771053
19.82154966
23.85895205
27.70582833
31.16907037
34.09865756
36.38657089
37.9731242
38.83734418
38.9995542
38.5096999
37.44053804
35.90020143
33.9712757
31.75892998
29.37485445
26.89895947
24.39979697
21.93446297
19.54715158
17.26712775
15.1144862
13.09825972
11.2242502
9.49431041
7.906045358
6.464404191
5.160278476
3.991773452
2.954182268
2.040234376
1.240152315
0.5412875387
-0.07027597533
-0.6073347771
-1.082959783
-1.508653267
-1.894382581
-2.250376895
-2.584369785
-2.904301916
-3.215571597
-3.523827882
-3.832777386
-4.14546989
-4.463488278
-4.78746763
-5.116936851
-5.45143536
-5.79183564
-6.134950829
-6.481322699
-6.828913302
-7.176530684
-7.520395774
-7.858065209
-8.1882456
-8.509714541
-8.819943123
-9.118665726
-9.404803241
-9.678805968
-9.937137564
-10.17684506
-10.39555258
-10.58911044
-10.75761607
-10.9011133
-11.0188902
-11.11129976
-11.17448555
-11.20557151
-11.20674283
-11.17226734
-11.10600575
-11.00788485
-10.87989095
-10.72665796
-10.53682871
-10.30596755
-10.05032157
-9.778779099
-9.485249991
-9.149591762
-8.815219667
-8.449649774
-8.090979009
-7.699684083
-7.215359018
-5.934796862
-6.845572727
-7.735655258
-8.62503526
-8.467017207
)


101
(
0.000807784462
0.2895805703
1.327413331
3.041828249
5.353303202
8.233520542
11.61500166
15.36783016
19.32901377
23.30917734
27.13741132
30.63121372
33.64224929
36.06201412
37.82624564
38.90389138
39.30291859
39.06001695
38.23244162
36.91622328
35.1809089
33.1239286
30.85077755
28.43928001
25.96128901
23.47603928
21.03093155
18.66003278
16.38981495
14.23603475
12.21158749
10.32563143
8.582622173
6.992077312
5.547860827
4.24914048
3.091564098
2.067772543
1.167251826
0.3757246383
-0.3231520724
-0.9443726353
-1.50355371
-2.013545746
-2.484715136
-2.927422199
-3.349058525
-3.757448226
-4.157525711
-4.554604035
-4.95206382
-5.352999389
-5.758885875
-6.170280615
-6.586510177
-7.006644538
-7.431319951
-7.857155969
-8.284629345
-8.711593811
-9.136942604
-9.557245372
-9.968978425
-10.37093388
-10.76110947
-11.13604413
-11.49533606
-11.83795472
-12.1648852
-12.47229576
-12.75739714
-13.01755447
-13.24749157
-13.44692912
-13.61420772
-13.74796558
-13.85178838
-13.92191175
-13.95659354
-13.95294049
-13.90767121
-13.82520889
-13.70415965
-13.54878965
-13.36393882
-13.1405282
-12.87337115
-12.57229866
-12.25276609
-11.91731952
-11.53226402
-11.15503108
-10.73582115
-10.32561808
-9.875157255
-9.289549789
-7.5451883
-7.738844613
-7.978600029
-7.978320368
-6.717371617
)


101
(
0.0008033877606
0.2817491851
1.293053421
2.964237386
5.215026187
8.017021267
11.30915905
14.97127211
18.85341744
22.77892014
26.58885158
30.11167781
33.20112335
35.74797643
37.68414874
38.96942112
39.60000988
39.60003155
39.01202651
37.91919717
36.37957042
34.48210765
32.32578174
29.9836165
27.53016236
25.02702494
22.52454731
20.06207243
17.67329079
15.38122088
13.20589294
11.1636064
9.265431533
7.525244059
5.939016759
4.506001753
3.221317432
2.077136322
1.062526117
0.1624709602
-0.6403974425
-1.362711324
-2.022104457
-2.632817352
-3.205702342
-3.751134586
-4.275650897
-4.786613865
-5.28866294
-5.786478462
-6.282907739
-6.781231096
-7.282944194
-7.788495586
-8.297168883
-8.807587979
-9.320044192
-9.830672546
-10.33998195
-10.84544583
-11.34627712
-11.83908621
-12.32001242
-12.78695694
-13.23659524
-13.66625266
-14.07328166
-14.45641441
-14.81685413
-15.15130215
-15.45777502
-15.73186538
-15.9687642
-16.16683915
-16.32339333
-16.43607514
-16.50767952
-16.54122577
-16.53215774
-16.47778616
-16.37553807
-16.22764595
-16.0333377
-15.8017988
-15.53575312
-15.23265266
-14.88563518
-14.50087096
-14.09351711
-13.67876165
-13.22021649
-12.76974493
-12.2844012
-11.80331654
-11.28093146
-10.58962207
-8.450115424
-7.723700806
-7.130232945
-6.137721208
-3.926590122
)


101
(
0.0007989626909
0.2740358589
1.259222409
2.888079122
5.079858376
7.806219202
11.01222972
14.58713491
18.39343445
22.26642533
26.0579403
29.60748113
32.77165461
35.44029344
37.54206024
39.02849269
39.88448633
40.12233576
39.77072238
38.89861921
37.55550761
35.82037461
33.78547593
31.5168739
29.09079906
26.57197994
24.01382152
21.4611902
18.95549686
16.52721591
14.2030531
12.00568643
9.951952437
8.059759892
6.3267436
4.752078073
3.329941747
2.051752203
0.9063308542
-0.1213033665
-1.048250188
-1.891298075
-2.669495387
-3.398376684
-4.089533119
-4.753669777
-5.396426153
-6.02441295
-6.641617539
-7.252185516
-7.858186029
-8.462893022
-9.06801103
-9.673853122
-10.2796845
-10.8838346
-11.48586241
-12.08108514
-12.67008879
-13.24969374
-13.81913907
-14.37493469
-14.91324876
-15.43055279
-15.92269688
-16.38637598
-16.81722569
-17.21344031
-17.57537617
-17.90116242
-18.18837909
-18.43179429
-18.62728154
-18.77186759
-18.86195399
-18.89510403
-18.87383736
-18.80178207
-18.67893253
-18.50376064
-18.27374787
-17.98745301
-17.64981618
-17.2703867
-16.85347656
-16.40112862
-15.90965242
-15.38390622
-14.83463309
-14.28796022
-13.71709217
-13.15104806
-12.56916867
-11.99448946
-11.37907521
-10.58667392
-8.271002879
-6.710234337
-5.250214843
-3.287754455
-0.1100408076
)


101
(
0.0007945086406
0.2664399797
1.225910981
2.813317401
4.947688444
7.600855976
10.72372477
14.21459118
17.94779533
21.76998315
25.54275173
29.11610125
32.35075522
35.13528422
37.39550171
39.07567916
40.14992785
40.61945948
40.50014236
39.84592922
38.69871177
37.12707485
35.21583457
33.02421516
30.62813186
28.09620815
25.48531728
22.84569052
20.22648617
17.66550196
15.19518183
12.84334718
10.63173924
8.581987414
6.69341428
4.965869872
3.392631065
1.964053597
0.6687391058
-0.5075953421
-1.580799255
-2.566348318
-3.483711161
-4.349117521
-5.175102047
-5.973467405
-6.74944528
-7.508774011
-8.254003148
-8.989022282
-9.714953405
-10.43466685
-11.14993642
-11.86102676
-12.56707103
-13.26616539
-13.9570522
-14.63376387
-15.29639542
-15.9409887
-16.56657171
-17.16919376
-17.74485687
-18.28878133
-18.79599638
-19.26159011
-19.68032002
-20.04873597
-20.36610667
-20.63097232
-20.84100149
-20.99169019
-21.07881876
-21.09877009
-21.04789887
-20.92343408
-20.72650773
-20.46294715
-20.13789866
-19.75240107
-19.30478178
-18.79320235
-18.22585528
-17.61590532
-16.96657214
-16.28901568
-15.58242871
-14.85215935
-14.10567829
-13.37499934
-12.6474494
-11.93164913
-11.22202107
-10.53417295
-9.824380175
-8.968803288
-6.863265182
-4.785483402
-2.477152695
0.4991140711
4.773944935
)


101
(
0.0007900250429
0.2589609691
1.193114328
2.739917643
4.818410603
7.400688641
10.44318983
13.85288262
17.51534455
21.28802899
25.04159158
28.63534205
31.93575426
34.82979056
37.24062384
39.10625481
40.39062735
41.08453876
41.19216349
40.75268793
39.79955891
38.39129744
36.60366774
34.49146455
32.1278787
29.58565413
26.92575612
24.20316922
21.47411602
18.78337286
16.16819069
13.66020432
11.28531919
9.068576074
7.011416436
5.115640547
3.374405814
1.776949524
0.3114068779
-1.035749854
-2.278337266
-3.429315938
-4.507389945
-5.528507516
-6.505974169
-7.453405279
-8.376443161
-9.280377575
-10.16596773
-11.03645035
-11.89188946
-12.73416338
-13.56483844
-14.38428922
-15.19128808
-15.98332389
-16.75863737
-17.50948549
-18.23484354
-18.92936017
-19.59177689
-20.21700529
-20.800918
-21.33769114
-21.82105262
-22.24438403
-22.6014288
-22.88707701
-23.09901347
-23.23537065
-23.29486528
-23.27352156
-23.16772446
-22.97463194
-22.69161585
-22.31582718
-21.8480101
-21.2954643
-20.66810113
-19.97249871
-19.2107101
-18.38246968
-17.49693649
-16.57250853
-15.61749882
-14.6426687
-13.65905638
-12.67272453
-11.68919186
-10.74050247
-9.828991102
-8.946459717
-8.103985231
-7.306734829
-6.535000902
-5.694857009
-4.283859636
-2.052265693
1.18780504
5.495161215
11.37229898
)


101
(
0.0007855112874
0.2515982282
1.160829735
2.667846517
4.691923631
7.205487712
10.17020187
13.50129783
17.09500336
20.81911635
24.55272597
28.16339481
31.52420901
34.52087955
37.07388863
39.11592745
40.60143222
41.51121613
41.83891202
41.60975109
40.84769404
39.6013094
37.93653543
35.90511203
33.57639535
31.02653001
28.32115301
25.51930907
22.68284039
19.8628952
17.10111958
14.43200831
11.88465684
9.487496918
7.245030018
5.1618544
3.2326421
1.445864239
-0.2111463143
-1.75118723
-3.185945722
-4.52524402
-5.786036177
-6.982725878
-8.12864186
-9.239229105
-10.32147865
-11.38133687
-12.41846747
-13.43439237
-14.42728495
-15.39793401
-16.34672888
-17.2748165
-18.18013363
-19.0594551
-19.9100291
-20.72244019
-21.4937035
-22.21648426
-22.88822067
-23.50307085
-24.05617303
-24.54106118
-24.94939331
-25.27371389
-25.50589748
-25.63965268
-25.67124028
-25.59773248
-25.41913406
-25.13259499
-24.73604049
-24.22847223
-23.60958762
-22.87822899
-22.03615896
-21.09192582
-20.06030001
-18.95476578
-17.7840488
-16.55169468
-15.26815636
-13.95794227
-12.6363859
-11.31263942
-10.0090822
-8.736488674
-7.500888956
-6.3274606
-5.232447962
-4.199582692
-3.2449896
-2.37436132
-1.606910841
-0.9027407874
-0.6576881145
1.565077373
6.085086397
12.39961047
20.80314121
)


101
(
0.0007809668251
0.2443535781
1.129053411
2.597072811
4.568132213
7.015038488
9.904370473
13.15918901
16.68579356
20.36193806
24.07455017
27.69872242
31.11400212
34.20586412
36.8921047
39.100877
40.77775263
41.89373039
42.43306106
42.40808641
41.83288891
40.74564192
39.20252705
37.25239563
34.96048779
32.40503866
29.65646815
26.77730825
23.83327064
20.88114014
17.9670816
15.12834648
12.39605063
9.801318697
7.35301551
5.059585531
2.919298777
0.9210225494
-0.9493764717
-2.703858212
-4.352437922
-5.901887122
-7.366912297
-8.75936727
-10.09103699
-11.37846442
-12.63042079
-13.85546888
-15.0526542
-16.22166842
-17.35797738
-18.46025347
-19.52710402
-20.56019911
-21.55651038
-22.51207127
-23.42310319
-24.27825993
-25.07178572
-25.79321358
-26.43831658
-27.00024345
-27.47279414
-27.84955619
-28.11960029
-28.2752573
-28.30633265
-28.20543256
-27.96812933
-27.59051974
-27.0740976
-26.4177896
-25.62201381
-24.68894116
-23.6220648
-22.42391711
-21.09958933
-19.65918924
-18.12296506
-16.51211718
-14.84195704
-13.124718
-11.3733913
-9.618438565
-7.883913635
-6.176290405
-4.527313752
-2.956052244
-1.47336944
-0.09248244001
1.161902444
2.306826112
3.328480302
4.212121166
4.884056738
5.314207578
4.031032305
6.479632109
12.98344242
22.38384163
34.61272118
)


101
(
0.0007763910639
0.2372251829
1.097772919
2.527565999
4.446944932
6.829137894
9.645322999
12.82595499
16.28683987
19.91531886
23.60559183
27.23980105
30.70329779
33.88244499
36.6924972
39.05770476
40.91551196
42.22708237
42.96817432
43.13946692
42.74542113
41.81310778
40.38939678
38.52038622
36.26698463
33.7073738
30.91582693
27.95803609
24.9024162
21.81076097
18.73430566
15.71373607
12.78160073
9.969147303
7.29104677
4.761235874
2.383658775
0.1496421336
-1.956882579
-3.947214248
-5.829921964
-7.609608443
-9.299058791
-10.90682531
-12.44158134
-13.91969376
-15.35120239
-16.74782469
-18.10960844
-19.43561557
-20.71808248
-21.95223798
-23.13404076
-24.26412399
-25.33854067