/*--------------------------------*- C++ -*----------------------------------*\
| =========                 |                                                 |
| \\      /  F ield         | OpenFOAM: The Open Source CFD Toolbox           |
|  \\    /   O peration     | Version:  2.3.1                                 |
|   \\  /    A nd           | Web:      www.OpenFOAM.org                      |
|    \\/     M anipulation  |                                                 |
\*---------------------------------------------------------------------------*/
FoamFile
{
    version     2.0;
    format      ascii;
    class       dictionary;
    location    "constant";
    object      la_r12;
}
// * * * * * * * * * * * * * * * * * * * * * * * * * * * * * * * * * * * * * //

la_r12_table
101
(

101
(
-0.0003501214624
-0.1418758049
-0.9463887338
-2.709015787
-5.416038565
-8.912771353
-12.99091781
-17.3989072
-21.90563199
-26.28751122
-30.32623697
-33.83167955
-36.65751002
-38.63981973
-39.72678891
-39.90829681
-39.21741673
-37.75353728
-35.72864372
-33.26159445
-30.57487282
-27.80511235
-25.08507417
-22.49802351
-20.09339395
-17.89721361
-15.91557634
-14.14142148
-12.56796399
-11.17319975
-9.939831196
-8.844112167
-7.854083354
-7.008161631
-6.24862554
-5.578082166
-5.079916655
-4.710192672
-4.20263243
-3.755896669
-3.359722025
-2.998798589
-2.678093229
-2.390279446
-2.129315454
-1.896511471
-1.686341832
-1.498931
-1.330125954
-1.179351285
-1.04375005
-0.9222902216
-0.813544633
-0.716318289
-0.6292683299
-0.5512495884
-0.4825945352
-0.4207836502
-0.3663256432
-0.3178065897
-0.274994532
-0.2371513061
-0.2036885026
-0.1743816304
-0.1487109392
-0.1262150984
-0.1066134714
-0.08959794025
-0.07491794723
-0.06224987042
-0.05141802595
-0.04216459323
-0.03435906825
-0.02782654712
-0.0234795496
-0.01945675079
-0.01532671469
-0.01196058571
-0.009215830821
-0.006991569222
-0.005218943144
-0.00384690973
-0.002795211396
-0.002196429926
-0.00160056785
-0.001083720323
-0.0007115944627
-0.000449557151
-0.0002737132891
-0.0001933593987
-0.0001064908042
-5.251322669e-05
-2.605921861e-05
-1.165215995e-05
-4.925756474e-06
-8.896567892e-07
4.423064587e-16
-2.800308069e-34
-7.72988734e-26
3.095926905e-25
-6.20456071e-30
)


101
(
-0.0003484284155
-0.1382192301
-0.9205635199
-2.634685506
-5.266099566
-8.662160453
-12.61942267
-16.89380941
-21.26304001
-25.51319472
-29.43842671
-32.85849374
-35.63588132
-37.62011054
-38.75629579
-39.03206725
-38.47500669
-37.1710607
-35.30306936
-32.9956203
-30.44167105
-27.78207658
-25.14319922
-22.61279841
-20.24485648
-18.06931999
-16.09681829
-14.32421969
-12.74520093
-11.34304934
-10.10070494
-8.997296406
-8.00515545
-7.137567033
-6.367412382
-5.683914448
-5.130812485
-4.704189154
-4.25817185
-3.820432548
-3.420773988
-3.058007209
-2.732541629
-2.441203107
-2.178828595
-1.943508781
-1.73185753
-1.542020041
-1.371464815
-1.218513283
-1.081200575
-0.9579699683
-0.8474561712
-0.7483395146
-0.6595265072
-0.5799886164
-0.5092790094
-0.4461584662
-0.3900232883
-0.3401021723
-0.2957969924
-0.2565444342
-0.2217711415
-0.1910669487
-0.1640422643
-0.1403360219
-0.1195555157
-0.1013924532
-0.08557413631
-0.07186381439
-0.06002974656
-0.04984047901
-0.0411027717
-0.0336328113
-0.02768745088
-0.02289670222
-0.01868175909
-0.01499746915
-0.01185931898
-0.009241324763
-0.007103930842
-0.005385379861
-0.004017849136
-0.003010962376
-0.002257165895
-0.001647553355
-0.001158685049
-0.0007863784636
-0.000516946613
-0.0003361822193
-0.0002140801956
-0.0001294115015
-7.260490613e-05
-3.864835769e-05
-2.011315023e-05
-8.656052616e-06
-1.79308711e-06
-2.185373299e-06
-2.72690505e-06
-4.23709142e-06
-6.045590196e-06
)


101
(
-0.0003467385273
-0.1346219131
-0.8952240566
-2.561853857
-5.119512938
-8.417898835
-12.25860161
-16.40509791
-20.64384097
-24.77031197
-28.59040308
-31.93326269
-34.66942378
-36.66022364
-37.84904017
-38.22067397
-37.79727672
-36.65274165
-34.94461596
-32.79695786
-30.38090735
-27.835472
-25.28309328
-22.81366707
-20.48551622
-18.33277791
-16.37038634
-14.59916648
-13.01441696
-11.60313972
-10.34995502
-9.236248962
-8.237621546
-7.354293568
-6.569034313
-5.870500926
-5.281587776
-4.80592545
-4.369083498
-3.945981621
-3.548148703
-3.181993087
-2.850584549
-2.552752905
-2.284909696
-2.044440536
-1.828187335
-1.633663099
-1.458588157
-1.301099544
-1.159426492
-1.031998761
-0.9174547857
-0.8144792075
-0.7218914506
-0.6386916806
-0.5641760576
-0.4974919374
-0.4379166455
-0.3847016445
-0.3372489057
-0.2949650499
-0.2573022317
-0.2238427044
-0.1941935371
-0.1679803213
-0.144809533
-0.1243756568
-0.1064124857
-0.09065235771
-0.07689656913
-0.06490236168
-0.0545048945
-0.04546475635
-0.03777235686
-0.03136446702
-0.02597886947
-0.02138533602
-0.01742996913
-0.01403108581
-0.01116532272
-0.008786984844
-0.006832870266
-0.005256419235
-0.004017514722
-0.003048801894
-0.002288861762
-0.001676767397
-0.001199335843
-0.0008443592735
-0.0005800234507
-0.0003910208342
-0.000260110084
-0.0001654988007
-0.0001049973613
-5.935428183e-05
-2.123648803e-05
-3.150277714e-05
-4.438807895e-05
-7.028212146e-05
-0.0001012914207
)


101
(
-0.0003450517966
-0.1310829084
-0.8703593334
-2.490479863
-4.97615858
-8.179695599
-11.9078627
-15.93171007
-20.04631528
-24.05629297
-27.77863487
-31.051407
-33.75252728
-35.75381028
-36.99784518
-37.46641722
-37.17634211
-36.19057559
-34.64450675
-32.65765931
-30.38392683
-27.95728918
-25.49689015
-23.09343026
-20.80890723
-18.68177028
-16.73113485
-14.96172157
-13.3712259
-11.94964841
-10.68379573
-9.557357703
-8.548599824
-7.651544756
-6.850557319
-6.132855242
-5.517286453
-5.001213573
-4.549194988
-4.12965907
-3.734227708
-3.365463362
-3.027685441
-2.72154028
-2.445336119
-2.197058713
-1.973576599
-1.772228064
-1.590441614
-1.426365688
-1.278169178
-1.144414368
-1.023756727
-0.9148905822
-0.8166265722
-0.727985836
-0.6480324817
-0.5760306243
-0.5113389441
-0.4531818866
-0.4010084634
-0.3542164084
-0.3122560759
-0.2746869384
-0.2410991672
-0.2111082016
-0.1843587138
-0.1605080915
-0.1393447193
-0.1205651572
-0.1039477143
-0.08926233735
-0.0763559038
-0.06499222272
-0.05503542469
-0.04642007758
-0.03903550689
-0.03272155637
-0.02729926813
-0.02260832656
-0.0185598365
-0.01509445951
-0.0121662227
-0.009710635567
-0.007676065572
-0.006016268058
-0.004685094234
-0.003619053871
-0.002745125115
-0.002045049517
-0.001498926224
-0.001084766272
-0.0007860848848
-0.0005526462149
-0.0003860925966
-0.0002438509706
-0.0001037683273
-0.0001716690254
-0.0002562998337
-0.000410819067
-0.0006011717225
)


101
(
-0.0003433682222
-0.1276017718
-0.8459632939
-2.420538414
-4.835959191
-7.947359268
-11.56680943
-15.47292208
-19.46926931
-23.36931948
-27.00058094
-30.2095658
-32.88101441
-34.89602576
-36.19714615
-36.76320345
-36.60577902
-35.77788453
-34.39544501
-32.57073287
-30.44320993
-28.14020422
-25.77745901
-23.44543878
-21.20913568
-19.11108596
-17.17453221
-15.40811437
-13.81237364
-12.38003353
-11.10010424
-9.9588073
-8.936710935
-8.025794135
-7.209705377
-6.477009205
-5.833677434
-5.282653057
-4.805923132
-4.377038759
-3.979179064
-3.607166677
-3.263064722
-2.947949918
-2.661572039
-2.403141753
-2.170001504
-1.959587917
-1.769067593
-1.596508099
-1.439924797
-1.297925717
-1.169239589
-1.052646664
-0.9469073354
-0.8509673129
-0.7640209087
-0.6851258182
-0.6137509627
-0.5490595436
-0.4906013429
-0.4378084619
-0.3901143132
-0.3470874106
-0.3082790853
-0.2732355503
-0.2416562455
-0.2132285155
-0.1877163579
-0.1648387396
-0.1442957186
-0.1259079563
-0.109510401
-0.09490703289
-0.08190122546
-0.07037061523
-0.06021058225
-0.05135758579
-0.04365723816
-0.03694636055
-0.03108801481
-0.02596316843
-0.02152611578
-0.01770839339
-0.0144419937
-0.01167461807
-0.009362559054
-0.007466573315
-0.005913883311
-0.004612889566
-0.003544549635
-0.002686161168
-0.002022054026
-0.001517519195
-0.001126373668
-0.0007691201546
-0.0003944164517
-0.000660941078
-0.0009896937122
-0.001530265319
-0.002181071135
)


101
(
-0.0003416878026
-0.1241780607
-0.8220299852
-2.352005069
-4.698840267
-7.720706818
-11.23506574
-15.02805558
-18.91159542
-22.70772234
-26.25393151
-29.40473302
-32.05118028
-34.08264462
-35.44217372
-36.10584793
-36.08021047
-35.40915448
-34.19143525
-32.53040519
-30.55274718
-28.37833244
-26.11913937
-23.86452578
-21.6817199
-19.61703436
-17.69769098
-15.9362395
-14.3363855
-12.89354333
-11.59911796
-10.44118457
-9.40304372
-8.476830415
-7.644886956
-6.896169523
-6.229467344
-5.647233453
-5.141812658
-4.694736363
-4.287569026
-3.90940874
-3.558300963
-3.233939134
-2.936407321
-2.666046065
-2.421114403
-2.199606276
-1.998575569
-1.815836945
-1.649195962
-1.497216573
-1.358709249
-1.232605701
-1.117714188
-1.012847264
-0.9172250076
-0.8298522443
-0.7502882
-0.6775694596
-0.6112519896
-0.5509468109
-0.4960022748
-0.4460578422
-0.4006695814
-0.3592990046
-0.3216033745
-0.287291693
-0.2561258031
-0.2279591203
-0.2023590111
-0.1791368651
-0.1581159124
-0.1391557766
-0.1220573367
-0.1066658633
-0.09285573212
-0.08054317337
-0.06960079534
-0.05994227344
-0.05141925297
-0.04389479752
-0.03722622033
-0.03137560702
-0.02624948801
-0.02179968596
-0.01794736191
-0.01467802026
-0.01194675684
-0.009651011878
-0.00768507338
-0.006060363346
-0.004736341185
-0.003678384168
-0.00285662528
-0.002069503637
-0.001202763601
-0.001909494275
-0.002833068935
-0.004690677636
-0.006987337749
)


101
(
-0.0003400105377
-0.1208113405
-0.7985535736
-2.284856056
-4.56473002
-7.499563379
-10.912275
-14.59647191
-18.37225773
-22.06994906
-25.53654827
-28.63414123
-31.25963
-33.30980382
-34.72859869
-35.48964568
-35.5947468
-35.07938007
-34.0270894
-32.5313966
-30.70715699
-28.66637807
-26.51689546
-24.34616688
-22.22282828
-20.19660224
-18.29849667
-16.54485141
-14.94274234
-13.49036063
-12.1815504
-11.00630463
-9.950203412
-9.006962415
-8.158188649
-7.392691824
-6.704935025
-6.094940705
-5.560169613
-5.089402952
-4.666466563
-4.27775313
-3.917732928
-3.583545293
-3.274346536
-2.99095836
-2.732545072
-2.498065225
-2.284780165
-2.090288
-1.912182015
-1.748766396
-1.598879969
-1.461609332
-1.335971569
-1.220639659
-1.11478571
-1.017388153
-0.9280231478
-0.8457523604
-0.7701429679
-0.7008076641
-0.6371221038
-0.5786948556
-0.5251969474
-0.4760781706
-0.4308812446
-0.3892997385
-0.3510865768
-0.3161389308
-0.2841463979
-0.2548278725
-0.2279485095
-0.203359382
-0.1808997451
-0.1604285165
-0.1418320065
-0.1249465162
-0.1096492983
-0.09590209916
-0.08359937119
-0.07263992217
-0.06278438411
-0.05397818015
-0.04613811327
-0.03917975844
-0.03301430913
-0.02761962645
-0.02299511187
-0.01906886633
-0.01562929775
-0.01268388259
-0.0102405995
-0.00820780237
-0.006597025633
-0.004940779902
-0.003116889088
-0.005145390355
-0.007781925469
-0.01276691101
-0.01879615165
)


101
(
-0.000338336425
-0.1175011792
-0.7755282936
-2.219068129
-4.433559345
-7.283763348
-10.59810461
-14.17758149
-17.85029519
-21.45456441
-24.8464695
-27.89526311
-30.50329155
-32.57401202
-34.05255149
-34.91040365
-35.1449869
-34.78403974
-33.89756911
-32.56888363
-30.9015712
-28.99952983
-26.96606729
-24.88611475
-22.82882809
-20.84690776
-18.97496342
-17.23294508
-15.63134655
-14.17123908
-12.84899317
-11.65659685
-10.58158525
-9.619894291
-8.753220501
-7.970352897
-7.26290105
-6.62802625
-6.065049059
-5.567891043
-5.124159421
-4.720148685
-4.348340439
-4.003136166
-3.681869912
-3.384991997
-3.112057286
-2.863020758
-2.635799411
-2.42805734
-2.237164048
-2.06105771
-1.898546246
-1.74875271
-1.610840869
-1.483590876
-1.366170853
-1.257339053
-1.15673165
-1.063365999
-0.9768673006
-0.8969097093
-0.822899107
-0.7544609489
-0.6912603375
-0.6328308957
-0.5786126989
-0.5283032445
-0.4815586809
-0.4382987451
-0.3983499527
-0.3613823803
-0.3271560917
-0.2954559169
-0.266152047
-0.2391004498
-0.2142605442
-0.1914303499
-0.1704462184
-0.1512347427
-0.1337337
-0.1179310016
-0.1036189442
-0.0906015942
-0.0788595805
-0.06826852646
-0.05870493395
-0.05012856326
-0.04259828291
-0.03606870658
-0.03033323154
-0.02522545409
-0.02087679489
-0.01720414503
-0.01415589953
-0.0110367999
-0.007494562786
-0.01255548073
-0.01917272023
-0.03168765673
-0.04654596712
)


101
(
-0.0003366654646
-0.1142471511
-0.7529485112
-2.154618719
-4.305261768
-7.073149329
-10.29224342
-13.77084075
-17.34481771
-20.86024477
-24.18189391
-27.18580502
-29.77939411
-31.87214243
-33.41058079
-34.36439674
-34.72700843
-34.51906966
-33.7985139
-32.63843675
-31.13153418
-29.37338986
-27.4623593
-25.4804656
-23.49646007
-21.56545787
-19.72549391
-17.99994512
-16.40263895
-14.93756974
-13.60374429
-12.39527463
-11.30145945
-10.32061233
-9.435159703
-8.634315476
-7.907901511
-7.250455811
-6.661301104
-6.13722989
-5.669623673
-5.246435311
-4.859597083
-4.501528765
-4.167535721
-3.857004346
-3.56920195
-3.304753916
-3.062419836
-2.840178747
-2.635245785
-2.445453498
-2.269365791
-2.105859194
-1.95444069
-1.814050658
-1.683741768
-1.562190633
-1.44909046
-1.343337553
-1.244560871
-1.152478449
-1.066469864
-0.9863554036
-0.9117996884
-0.8424490069
-0.7776919999
-0.7170600594
-0.6601639585
-0.6067979224
-0.5570578943
-0.5106118827
-0.4673654495
-0.4269129994
-0.3890197099
-0.3536157912
-0.3207205832
-0.2901743578
-0.261774467
-0.2353608656
-0.2109426713
-0.1885175617
-0.1680594631
-0.1491804254
-0.1319291851
-0.1160890034
-0.1016796546
-0.08842463052
-0.0765618384
-0.06604051562
-0.05666822945
-0.04815279499
-0.04078833586
-0.03443566411
-0.02897552546
-0.02341638736
-0.01672686257
-0.02832861552
-0.04348530974
-0.07219856909
-0.1057470172
)


101
(
-0.0003349976537
-0.1110488303
-0.7308086478
-2.09148582
-4.179773043
-6.867569922
-9.994393772
-13.37573548
-16.85499238
-20.28575668
-23.5411474
-26.50364358
-29.08538394
-31.2013201
-32.79953314
-33.84823458
-34.3372397
-34.28075839
-33.72594238
-32.73594881
-31.39290214
-29.78389487
-28.00179574
-26.12561525
-24.2228263
-22.350245
-20.54899707
-18.84570738
-17.25743251
-15.79107959
-14.44836593
-13.2257074
-12.11417311
-11.11439429
-10.20971793
-9.390505168
-8.64579774
-7.967940061
-7.355244743
-6.805479802
-6.312811203
-5.867595836
-5.462839132
-5.089933227
-4.742443852
-4.418329562
-4.115907142
-3.836022928
-3.577965605
-3.340353471
-3.120613035
-2.916567453
-2.72635667
-2.548599141
-2.38283216
-2.228138011
-2.0839291
-1.948454341
-1.821761229
-1.702553471
-1.590269531
-1.484779865
-1.385369089
-1.291989851
-1.204372754
-1.122267253
-1.045211775
-0.9725302883
-0.9037843794
-0.8386591972
-0.7772783978
-0.7194206422
-0.6649911018
-0.6137272285
-0.565291519
-0.5195342894
-0.4764205221
-0.435983966
-0.3980909538
-0.3623531732
-0.3287635834
-0.2975495979
-0.2686963398
-0.2419008256
-0.2169382902
-0.1937002328
-0.1724259886
-0.1524902247
-0.1342778649
-0.1178272679
-0.1028994767
-0.08923148623
-0.07711179763
-0.06646013942
-0.05705169141
-0.04741820941
-0.03581506695
-0.06055351235
-0.09233451766
-0.1510585532
-0.2186982236
)


101
(
-0.0003333329936
-0.1079058053
-0.7091032846
-2.029648269
-4.057032105
-6.66688163
-9.704272713
-12.99177693
-16.38004991
-19.72997818
-22.92269882
-25.84682375
-28.41890248
-30.55888329
-32.21649291
-33.35878454
-33.97236015
-34.0656266
-33.67610184
-32.85746281
-31.68162552
-30.22711269
-28.58076396
-26.81826729
-25.00531693
-23.19957426
-21.44472945
-19.77044187
-18.19690483
-16.73394213
-15.38597516
-14.15180164
-13.02442626
-12.00697199
-11.08355109
-10.246142
-9.483984376
-8.787864293
-8.15452007
-7.581503923
-7.064557708
-6.596233569
-6.171712308
-5.782387431
-5.420756039
-5.083411615
-4.767136663
-4.472393357
-4.198695379
-3.945512312
-3.710669915
-3.492161744
-3.287784093
-3.095765753
-2.915180841
-2.745693331
-2.586971502
-2.436945666
-2.295882256
-2.162445365
-2.035800735
-1.915796416
-1.801900854
-1.693916581
-1.591634028
-1.494924533
-1.403827384
-1.317415559
-1.235244902
-1.156643719
-1.081718204
-1.010327203
-0.9426009502
-0.8783100571
-0.8171027103
-0.7586221487
-0.7028729083
-0.6500511188
-0.6000284545
-0.5524096168
-0.5070149674
-0.4642702476
-0.4242082674
-0.38676706
-0.3513692405
-0.3177927426
-0.2867945305
-0.2575384847
-0.2302332861
-0.2052790415
-0.1820679206
-0.1606918298
-0.1413865901
-0.1241137345
-0.1086012192
-0.09237693697
-0.07269654448
-0.1225557064
-0.184115246
-0.2912314135
-0.4023621714
)


101
(
-0.0003316714844
-0.1048176594
-0.687827041
-1.96908526
-3.936979574
-6.470946216
-9.421609758
-12.61850177
-15.91926836
-19.19186976
-22.3251295
-25.21354059
-27.77777325
-29.94237577
-31.65878158
-32.89317962
-33.62931875
-33.87044594
-33.64550916
-32.99927833
-31.99384599
-30.69921584
-29.19574601
-27.55518746
-25.84132455
-24.11171174
-22.41186914
-20.77428633
-19.22224198
-17.76844426
-16.41999094
-15.17806875
-14.03773279
-13.00497083
-12.06444975
-11.20991682
-10.43153502
-9.719344445
-9.068568824
-8.475795235
-7.937192066
-7.446734969
-7.002077554
-6.595659422
-6.21967421
-5.86972273
-5.540821346
-5.232532525
-4.944235266
-4.676128936
-4.42651584
-4.193777088
-3.975648649
-3.769847711
-3.574944066
-3.391176079
-3.217808833
-3.053095819
-2.897234177
-2.749309857
-2.608075159
-2.473125625
-2.34403042
-2.220527857
-2.102609831
-1.990035066
-1.883065073
-1.781321873
-1.684129009
-1.590528558
-1.500450402
-1.413632119
-1.330381321
-1.250635691
-1.174151994
-1.100442697
-1.029491648
-0.9615647319
-0.8963036014
-0.8336977105
-0.7734211676
-0.7157781526
-0.6610934639
-0.6095436473
-0.5602326596
-0.512598955
-0.4680085397
-0.4259515783
-0.386089471
-0.348794649
-0.3136604947
-0.2811486657
-0.2511675242
-0.2239452651
-0.1993106902
-0.1732381793
-0.1416248658
-0.2330545909
-0.3412085846
-0.5225554844
-0.7018384749
)


101
(
-0.0003300131291
-0.1017839837
-0.6669746544
-1.909776569
-3.819558124
-6.279630875
-9.146145695
-12.25546978
-15.47197578
-18.67046729
-21.74712057
-24.60212592
-27.15999146
-29.34953275
-31.12393398
-32.44878652
-33.30533773
-33.69226499
-33.63097026
-33.15795658
-32.32582751
-31.1962922
-29.84285947
-28.33263207
-26.72730139
-25.08370151
-23.44851943
-21.8566104
-20.3341647
-18.89666827
-17.55387999
-16.30943161
-15.16048622
-14.11607808
-13.16141715
-12.29201739
-11.49938137
-10.77357871
-10.10886292
-9.500785668
-8.944742504
-8.435139759
-7.971761226
-7.548737826
-7.158766599
-6.797172665
-6.457485121
-6.137971004
-5.837241598
-5.55598592
-5.292909962
-5.047026673
-4.816285747
-4.598036675
-4.390400028
-4.193385068
-4.006437097
-3.827603848
-3.657508274
-3.49541153
-3.340060441
-3.190569385
-3.04651985
-2.907461936
-2.773415728
-2.644570269
-2.520820335
-2.402360871
-2.288846766
-2.178871164
-2.072341433
-1.968653481
-1.867857374
-1.770249163
-1.675828756
-1.584299033
-1.49537993
-1.409243238
-1.325653283
-1.244418686
-1.165326214
-1.088794047
-1.015229504
-0.9450018439
-0.877558222
-0.8114447977
-0.7480514064
-0.688190726
-0.6310841709
-0.5765928808
-0.5244727959
-0.4762248965
-0.4309696964
-0.3891457009
-0.3510879592
-0.3106283513
-0.2620107164
-0.4189714392
-0.5944912133
-0.8780223139
-1.134849373
)


101
(
-0.0003283579201
-0.09880437483
-0.6465409506
-1.851702448
-3.704712317
-6.092808036
-8.877630929
-11.90225908
-15.03755185
-18.16489305
-21.18744197
-24.01103138
-26.56369864
-28.77822905
-30.60962647
-32.02313266
-32.99787419
-33.52847151
-33.62965943
-33.33038211
-32.67398891
-31.71430975
-30.51783984
-29.14652056
-27.6595525
-26.11245861
-24.55253697
-23.01649656
-21.53316776
-20.12058703
-18.79111704
-17.55093556
-16.39939833
-15.34861501
-14.38427322
-13.50363856
-12.699787
-11.96351378
-11.28886803
-10.67064066
-10.10273339
-9.578903734
-9.10031204
-8.662816007
-8.260277224
-7.888626195
-7.540544937
-7.213000367
-6.903325843
-6.612232194
-6.338287649
-6.081430154
-5.84039233
-5.612109543
-5.394238171
-5.18623794
-4.9882464
-4.797344603
-4.614904272
-4.440091725
-4.272236984
-4.109625344
-3.951832814
-3.798375429
-3.649291573
-3.504498807
-3.363950171
-3.228368344
-3.097441132
-2.970370262
-2.846505545
-2.725089097
-2.605412681
-2.487919942
-2.372826536
-2.260253289
-2.150294508
-2.042987913
-1.937313758
-1.833441901
-1.730877462
-1.630590934
-1.532744458
-1.438015903
-1.34667154
-1.25649293
-1.167774083
-1.08324099
-1.002304415
-0.9244940471
-0.8485211929
-0.7781096672
-0.7108740734
-0.6485871687
-0.5910540063
-0.5301497254
-0.4580252838
-0.7088712291
-0.9741779271
-1.394378416
-1.761159842
)


101
(
-0.0003267058553
-0.09587843011
-0.6265208224
-1.794843575
-3.59238834
-5.910355125
-8.615827675
-11.5584686
-14.61540978
-17.67433253
-20.64495746
-23.43882532
-25.98718661
-28.22651434
-30.11372633
-31.61393947
-32.70456543
-33.37664096
-33.63894848
-33.51369873
-33.0350403
-32.24949108
-31.2165559
-29.99273737
-28.6343132
-27.19485844
-25.72166944
-24.25273619
-22.8192405
-21.44163879
-20.13481286
-18.90739273
-17.76091061
-16.7107016
-15.74287219
-14.85636753
-14.04589273
-13.30345345
-12.62369635
-12.00110375
-11.4280104
-10.89671231
-10.40875695
-9.961083649
-9.549041798
-9.170071316
-8.816779607
-8.485211383
-8.171308413
-7.875073681
-7.594611877
-7.330731689
-7.083212453
-6.848726919
-6.624758401
-6.410144332
-6.205130752
-6.006236309
-5.814654996
-5.63018707
-5.452822565
-5.28018161
-5.111241463
-4.946031509
-4.784419167
-4.625451613
-4.469751144
-4.317465319
-4.169668771
-4.025283208
-3.883612667
-3.743978583
-3.604885876
-3.466389298
-3.328391816
-3.191299372
-3.056629864
-2.924099523
-2.792476955
-2.661468614
-2.529699382
-2.399164974
-2.270466379
-2.143987594
-2.020371425
-1.898391695
-1.776642819
-1.657977468
-1.544141336
-1.434792693
-1.325601307
-1.224719899
-1.125646388
-1.034509515
-0.9495014642
-0.8599955217
-0.7539885442
-1.130562768
-1.511079785
-2.117419626
-2.676615813
)


101
(
-0.0003250569349
-0.09300575624
-0.6069092733
-1.739181172
-3.482534167
-5.732154162
-8.360509667
-11.22371737
-14.20499613
-17.19802954
-20.11864644
-22.88417038
-25.42887743
-27.69261687
-29.63431694
-31.2191652
-32.42320646
-33.2343936
-33.65615748
-33.70463878
-33.40534432
-32.79789389
-31.93498859
-30.86724346
-29.64775621
-28.32766718
-26.95350789
-25.56391732
-24.19212906
-22.86095982
-21.58782247
-20.38355602
-19.25153573
-18.21064633
-17.2473422
-16.36222868
-15.55153932
-14.80873735
-14.12977284
-13.50940623
-12.93887463
-12.40838403
-11.91906977
-11.46815452
-11.05218556
-10.67048529
-10.31641996
-9.986085129
-9.673904313
-9.378845587
-9.098465082
-8.833714672
-8.585253101
-8.350311302
-8.126252233
-7.911272986
-7.705486332
-7.504847245
-7.309899166
-7.120874969
-6.938322031
-6.760534821
-6.585309611
-6.413161939
-6.243253484
-6.07392997
-5.90598867
-5.739691023
-5.576803057
-5.415918405
-5.256792455
-5.099014144
-4.940259631
-4.780556573
-4.618496707
-4.45358854
-4.289198386
-4.126052598
-3.963855692
-3.800083667
-3.632783961
-3.464226551
-3.2953903
-3.128128142
-2.962420094
-2.797479547
-2.631948305
-2.467521501
-2.307723982
-2.155322279
-2.000598579
-1.857273447
-1.714665671
-1.582432715
-1.459370637
-1.329495936
-1.175744845
-1.720850907
-2.257737652
-3.129526913
-3.858147904
)


101
(
-0.0003234111602
-0.09018596644
-0.5877014202
-1.684696911
-3.375099572
-5.558092276
-8.111461696
-10.89764315
-13.80578627
-16.73527898
-19.60758131
-22.34582688
-24.88730745
-27.17492079
-29.16966031
-30.83697118
-32.15177343
-33.09943432
-33.67864582
-33.89989009
-33.78124473
-33.35555166
-32.66908614
-31.76592537
-30.69586017
-29.50733696
-28.24524409
-26.94823685
-25.65131101
-24.37948323
-23.15256573
-21.98350944
-20.87728042
-19.85634154
-18.90757458
-18.03326799
-17.23096522
-16.49549962
-15.82465429
-15.21426358
-14.65483241
-14.13477173
-13.65437303
-13.20988652
-12.79829849
-12.42098299
-12.07281498
-11.75079955
-11.44786763
-11.16230183
-10.89089564
-10.63405511
-10.3926435
-10.16534876
-9.949233143
-9.741912029
-9.544185353
-9.350796688
-9.161072118
-8.975158042
-8.794750955
-8.618733371
-8.444667163
-8.27274271
-8.100467051
-7.927701042
-7.753003962
-7.576876862
-7.40190801
-7.22670154
-7.051961529
-6.876550947
-6.698567802
-6.517627259
-6.331092024
-6.136564739
-5.936715343
-5.736925623
-5.536515179
-5.333292663
-5.123870641
-4.908040919
-4.68721913
-4.467419313
-4.24677254
-4.025439783
-3.801670754
-3.57730788
-3.354441522
-3.143218103
-2.928513823
-2.725582824
-2.525249936
-2.335861615
-2.160254818
-1.976232416
-1.759963654
-2.534319855
-3.298851213
-4.574423473
-5.733141193
)


101
(
-0.0003217685256
-0.08741866328
-0.5688927482
-1.631372631
-3.270035413
-5.388060586
-7.868477975
-10.57990039
-13.4172677
-16.28540249
-19.11091295
-21.82266185
-24.36112427
-26.67192576
-28.71813028
-30.46563503
-31.88839373
-32.96967981
-33.70407966
-34.09650331
-34.15940061
-33.91874383
-33.41477688
-32.68453593
-31.77421904
-30.72960876
-29.5933006
-28.40323096
-27.19574685
-25.99775445
-24.83108824
-23.71080315
-22.64354418
-21.65513979
-20.73296984
-19.88115166
-19.09828126
-18.38019081
-17.72656884
-17.13508469
-16.59649006
-16.09790967
-15.6384585
-15.21275657
-14.81719389
-14.45465698
-14.12176784
-13.81726081
-13.53354733
-13.26827298
-13.01714197
-12.77979564
-12.55668294
-12.34779107
-12.15061463
-11.96195955
-11.78361561
-11.60894006
-11.43659932
-11.26520425
-11.0972403
-10.93248431
-10.76959814
-10.60746774
-10.4423666
-10.27500632
-10.10116738
-9.922186004
-9.740455369
-9.556075307
-9.368722914
-9.177017028
-8.980464017
-8.77813548
-8.566414322
-8.341552134
-8.104254441
-7.859565557
-7.611725378
-7.360371167
-7.100911947
-6.827164447
-6.542517422
-6.255375966
-5.96485314
-5.67082764
-5.370332926
-5.069174208
-4.763309292
-4.473412898
-4.182623287
-3.898737305
-3.622249821
-3.357918967
-3.110805155
-2.856596152
-2.560206186
-3.664394171
-4.781050045
-6.672598684
-8.50847225
)


101
(
-0.0003201290325
-0.08470346613
-0.5504780675
-1.57919084
-3.167294658
-5.221955527
-7.631363932
-10.27016368
-13.0389377
-15.84771844
-18.6278643
-21.31366378
-23.8491129
-26.1822371
-28.27812504
-30.10334425
-31.63106941
-32.84293445
-33.73011525
-34.29225766
-34.53717515
-34.48434445
-34.16809812
-33.61879498
-32.87833648
-31.98997714
-30.99364511
-29.92577926
-28.82356744
-27.71535194
-26.62451063
-25.56813106
-24.55480167
-23.6134548
-22.73196665
-21.91646915
-21.16651703
-20.4784634
-19.85369359
-19.29220503
-18.78571633
-18.32085136
-17.89613987
-17.50419709
-17.13974859
-16.80615746
-16.50126366
-16.22630013
-15.97478471
-15.74350912
-15.52695719
-15.3237889
-15.13354534
-14.95704532
-14.79281375
-14.6378095
-14.49367559
-14.35250311
-14.21339333
-14.07261134
-13.93053601
-13.79061826
-13.6513705
-13.51117549
-13.36575653
-13.21504302
-13.0534837
-12.88152375
-12.70153248
-12.51468097
-12.31862359
-12.11456738
-11.90161869
-11.67829627
-11.44165725
-11.18690314
-10.9093677
-10.61413285
-10.31028615
-10.00034108
-9.680056445
-9.338888016
-8.978125027
-8.608620677
-8.22957064
-7.847965356
-7.451406901
-7.053625533
-6.64364714
-6.252515412
-5.866085035
-5.479840992
-5.104706175
-4.744635945
-4.406896042
-4.06669558
-3.675202588
-5.267473574
-6.929341597
-9.733639616
-12.44503164
)


101
(
-0.0003184926825
-0.08203999903
-0.5324527266
-1.528134424
-3.066831834
-5.059677857
-7.399934605
-9.968125558
-12.67032382
-15.42158106
-18.15770914
-20.81790394
-23.35015658
-25.70458617
-27.84820087
-29.74846959
-31.37799145
-32.7171642
-33.75446106
-34.48491431
-34.91203185
-35.04948262
-34.92529786
-34.56447222
-34.00363969
-33.28358023
-32.44158856
-31.51191542
-30.53180174
-29.53056443
-28.53272494
-27.55706473
-26.61418354
-25.73636347
-24.91188144
-24.14884215
-23.4478031
-22.80531131
-22.22393721
-21.70598765
-21.24491727
-20.82777424
-20.45339019
-20.11264256
-19.79781532
-19.51141205
-19.25159873
-19.02217893
-18.81880944
-18.63828767
-18.47390391
-18.32345589
-18.18485569
-18.05836704
-17.94414187
-17.84073887
-17.7493744
-17.66105791
-17.57467233
-17.48423936
-17.38751643
-17.2900835
-17.19034218
-17.08730667
-16.97787425
-16.85844395
-16.72402785
-16.57277583
-16.4058508
-16.22506813
-16.02863688
-15.81820518
-15.5913288
-15.3480193
-15.08791343
-14.80467211
-14.48884777
-14.14206498
-13.77447976
-13.39525552
-13.00447906
-12.58851142
-12.14138426
-11.67325043
-11.19146433
-10.70460329
-10.19566711
-9.681845028
-9.147676966
-8.632716664
-8.129838642
-7.617457156
-7.125564888
-6.647528691
-6.202000818
-5.758600063
-5.260980508
-7.577970202
-10.06217866
-14.1616948
-18.25487569
)


101
(
-0.0003168594698
-0.07942787761
-0.5148120958
-1.478186453
-2.968602532
-4.901131758
-7.174013366
-9.67348958
-12.31097044
-15.00636995
-17.69968248
-20.33456473
-22.8631804
-25.23772964
-27.42695771
-29.39946011
-31.12747052
-32.5904415
-33.77484891
-34.67190541
-35.28106713
-35.61077022
-35.68272681
-35.51730833
-35.14549868
-34.60535847
-33.93194496
-33.15700541
-32.31670165
-31.4407181
-30.55454408
-29.67820897
-28.8239054
-28.02778712
-27.27870203
-26.58639865
-25.95268325
-25.37412621
-24.85383667
-24.39622343
-23.99676942
-23.64372345
-23.33729652
-23.06744266
-22.82383751
-22.60720784
-22.41459451
-22.25147196
-22.11554385
-22.00562423
-21.91476258
-21.83956145
-21.77670712
-21.72296598
-21.6800233
-21.64872748
-21.63164193
-21.61844326
-21.60812389
-21.59217359
-21.5664024
-21.53373956
-21.49415808
-21.44698615
-21.39389218
-21.3245169
-21.23562248
-21.12239973
-20.98402087
-20.82449963
-20.64129419
-20.43303208
-20.19816939
-19.93927109
-19.65819322
-19.34961271
-19.00059318
-18.60575193
-18.17236306
-17.71739465
-17.25217717
-16.75521411
-16.21585848
-15.6391803
-15.03996673
-14.43571022
-13.80297563
-13.15703863
-12.48147958
-11.82098388
-11.18243837
-10.52707674
-9.899497428
-9.283825778
-8.713433535
-8.15389458
-7.544317256
-10.91184816
-14.58702628
-20.46160958
-26.45470856
)


101
(
-0.0003152293986
-0.07686674229
-0.4975525021
-1.429330719
-2.872564402
-4.746226351
-6.953433857
-9.385979206
-11.9604529
-14.60150442
-17.25305489
-19.86289881
-22.38720107
-24.78047854
-27.01307392
-29.05487601
-30.87795464
-32.46098826
-33.78913746
-34.85063683
-35.64134048
-36.16477175
-36.436712
-36.47310928
-36.29933694
-35.95034971
-35.45935961
-34.85563354
-34.17323445
-33.44171933
-32.68741649
-31.93117698
-31.18585702
-30.49118691
-29.8373226
-29.23577731
-28.69005062
-28.19666243
-27.75848454
-27.38173333
-27.06367054
-26.79408115
-26.57567032