/*--------------------------------*- C++ -*----------------------------------*\
| =========                 |                                                 |
| \\      /  F ield         | OpenFOAM: The Open Source CFD Toolbox           |
|  \\    /   O peration     | Version:  2.3.1                                 |
|   \\  /    A nd           | Web:      www.OpenFOAM.org                      |
|    \\/     M anipulation  |                                                 |
\*---------------------------------------------------------------------------*/
FoamFile
{
    version     2.0;
    format      ascii;
    class       dictionary;
    location    "constant";
    object      mu;
}
// * * * * * * * * * * * * * * * * * * * * * * * * * * * * * * * * * * * * * //

mu_table
101
(

101
(
1.588244891e-05
1.589125435e-05
1.590100293e-05
1.591127701e-05
1.592189903e-05
1.593277022e-05
1.594384183e-05
1.595510851e-05
1.596655783e-05
1.597819096e-05
1.599001261e-05
1.600202998e-05
1.601424476e-05
1.602667495e-05
1.603932049e-05
1.605218519e-05
1.606527635e-05
1.607860667e-05
1.60921515e-05
1.610595414e-05
1.611998147e-05
1.613423367e-05
1.61487366e-05
1.616347551e-05
1.617844305e-05
1.619363924e-05
1.620906162e-05
1.622470537e-05
1.62405726e-05
1.625665693e-05
1.627295638e-05
1.628946264e-05
1.630615334e-05
1.63230876e-05
1.634021238e-05
1.635753305e-05
1.637504229e-05
1.639272854e-05
1.641060487e-05
1.642867969e-05
1.644694222e-05
1.646536443e-05
1.648396774e-05
1.650274223e-05
1.652167318e-05
1.654077363e-05
1.656003004e-05
1.657945063e-05
1.659902473e-05
1.661875794e-05
1.663863919e-05
1.665867013e-05
1.667884792e-05
1.669916942e-05
1.671963087e-05
1.674023003e-05
1.67609765e-05
1.678184892e-05
1.68028613e-05
1.68240018e-05
1.684527434e-05
1.686667356e-05
1.688819731e-05
1.690984538e-05
1.693161499e-05
1.695350524e-05
1.697551305e-05
1.699763663e-05
1.701987675e-05
1.70422284e-05
1.706469159e-05
1.708726457e-05
1.71099481e-05
1.713273575e-05
1.715562475e-05
1.71786142e-05
1.720170876e-05
1.722490313e-05
1.724819387e-05
1.727157944e-05
1.729505807e-05
1.731863148e-05
1.734229448e-05
1.736604675e-05
1.738988805e-05
1.741381605e-05
1.743782884e-05
1.746192532e-05
1.748610425e-05
1.751036383e-05
1.753470501e-05
1.755912528e-05
1.758362308e-05
1.760819858e-05
1.763285003e-05
1.765757815e-05
1.768300343e-05
1.886148206e-05
1.99926233e-05
2.108025671e-05
2.212775897e-05
)


101
(
1.58828377e-05
1.590246246e-05
1.59227387e-05
1.594406207e-05
1.596647905e-05
1.598992018e-05
1.601421992e-05
1.603955327e-05
1.606564691e-05
1.609253158e-05
1.612013011e-05
1.614845324e-05
1.617733392e-05
1.620711406e-05
1.623737761e-05
1.626820858e-05
1.629974007e-05
1.63320673e-05
1.63642618e-05
1.639808305e-05
1.64315331e-05
1.646533754e-05
1.65004253e-05
1.653557638e-05
1.657089988e-05
1.660659189e-05
1.66426128e-05
1.667886613e-05
1.67155743e-05
1.675243521e-05
1.678955192e-05
1.68267124e-05
1.686333706e-05
1.690242243e-05
1.694025844e-05
1.697828709e-05
1.701635708e-05
1.705416386e-05
1.70924733e-05
1.713161987e-05
1.717079408e-05
1.720897161e-05
1.724798649e-05
1.7286999e-05
1.732553309e-05
1.736463934e-05
1.740345582e-05
1.744271786e-05
1.748177361e-05
1.752113902e-05
1.756026009e-05
1.759948598e-05
1.763873107e-05
1.76779278e-05
1.771702613e-05
1.77560767e-05
1.779566876e-05
1.78345098e-05
1.787382836e-05
1.79128286e-05
1.795198311e-05
1.799097924e-05
1.802987399e-05
1.806877231e-05
1.810757408e-05
1.814633032e-05
1.818493552e-05
1.822341891e-05
1.826190819e-05
1.83001565e-05
1.833832148e-05
1.83763579e-05
1.841438476e-05
1.845211225e-05
1.848959061e-05
1.852673593e-05
1.856384709e-05
1.860072037e-05
1.863724649e-05
1.867347015e-05
1.870937087e-05
1.874509391e-05
1.878038684e-05
1.881536328e-05
1.884985835e-05
1.888394083e-05
1.891755338e-05
1.89507463e-05
1.898344042e-05
1.901578231e-05
1.904740835e-05
1.90786854e-05
1.910950228e-05
1.913983271e-05
1.916978727e-05
1.920087715e-05
1.923443289e-05
2.035797866e-05
2.143870698e-05
2.247958827e-05
2.348397844e-05
)


101
(
1.588322649e-05
1.591367108e-05
1.594447008e-05
1.597681286e-05
1.601096761e-05
1.604689384e-05
1.608431174e-05
1.61235612e-05
1.616413083e-05
1.620606278e-05
1.624920655e-05
1.629356774e-05
1.633883177e-05
1.638559658e-05
1.643313314e-05
1.648154171e-05
1.653106172e-05
1.658187056e-05
1.66323554e-05
1.668542829e-05
1.673791069e-05
1.679072754e-05
1.684555092e-05
1.690051179e-05
1.695557494e-05
1.701105941e-05
1.706694398e-05
1.712307201e-05
1.717978249e-05
1.723663881e-05
1.729373875e-05
1.735075935e-05
1.740674789e-05
1.746621814e-05
1.752418774e-05
1.758205124e-05
1.763978281e-05
1.769692629e-05
1.775455005e-05
1.781334756e-05
1.787226224e-05
1.792960035e-05
1.798770896e-05
1.804580623e-05
1.810308253e-05
1.816087447e-05
1.821820762e-05
1.827595337e-05
1.833335286e-05
1.839099119e-05
1.84482051e-05
1.850535601e-05
1.856239054e-05
1.861921163e-05
1.867572862e-05
1.873198841e-05
1.878880101e-05
1.884459684e-05
1.890070999e-05
1.895632513e-05
1.901192985e-05
1.906719655e-05
1.912214289e-05
1.917690095e-05
1.923137747e-05
1.928561039e-05
1.933947493e-05
1.939297973e-05
1.944629016e-05
1.949912014e-05
1.955162337e-05
1.960374615e-05
1.965563861e-05
1.970698409e-05
1.975778848e-05
1.980792742e-05
1.98577073e-05
1.990696774e-05
1.99555099e-05
2.000338033e-05
2.005053895e-05
2.009714779e-05
2.014294305e-05
2.01880048e-05
2.023213034e-05
2.027538829e-05
2.031762372e-05
2.03589475e-05
2.039922899e-05
2.043874353e-05
2.047690064e-05
2.051429712e-05
2.055067608e-05
2.05860974e-05
2.062072721e-05
2.065746928e-05
2.069836745e-05
2.177338719e-05
2.280942686e-05
2.380873422e-05
2.477469952e-05
)


101
(
1.588361528e-05
1.592488026e-05
1.596619731e-05
1.600953001e-05
1.605536592e-05
1.610369322e-05
1.61541205e-05
1.620713793e-05
1.626201691e-05
1.631879565e-05
1.637725708e-05
1.643739465e-05
1.649876434e-05
1.656216325e-05
1.662663038e-05
1.669224055e-05
1.675931588e-05
1.682811235e-05
1.689650827e-05
1.6968162e-05
1.70392253e-05
1.711055709e-05
1.718436892e-05
1.725850454e-05
1.733270897e-05
1.740733287e-05
1.748238827e-05
1.755768883e-05
1.763363126e-05
1.77097269e-05
1.778603542e-05
1.786215904e-05
1.793690109e-05
1.801548846e-05
1.809270425e-05
1.816960781e-05
1.824617868e-05
1.832189617e-05
1.839792318e-05
1.847520838e-05
1.855271743e-05
1.86284131e-05
1.870463047e-05
1.878074724e-05
1.885585041e-05
1.893128413e-05
1.900611339e-05
1.908122767e-05
1.91558807e-05
1.923064581e-05
1.930484886e-05
1.93788142e-05
1.945250287e-05
1.952581776e-05
1.959864635e-05
1.967101533e-05
1.974379227e-05
1.981541924e-05
1.988715221e-05
1.995821735e-05
2.002908166e-05
2.009943039e-05
2.016926034e-05
2.023869489e-05
2.03076605e-05
2.037618045e-05
2.044412852e-05
2.051149366e-05
2.057843963e-05
2.064468486e-05
2.071037379e-05
2.077543103e-05
2.084000452e-05
2.090379982e-05
2.096680187e-05
2.102886578e-05
2.109024418e-05
2.115082173e-05
2.12103477e-05
2.126885669e-05
2.132628734e-05
2.138278969e-05
2.143812134e-05
2.149232889e-05
2.154519115e-05
2.159679317e-05
2.164688225e-05
2.16955756e-05
2.17426994e-05
2.178866545e-05
2.183269202e-05
2.187560942e-05
2.191700335e-05
2.195697505e-05
2.19958146e-05
2.20376643e-05
2.20852612e-05
2.311716642e-05
2.411339822e-05
2.507559049e-05
2.600719331e-05
)


101
(
1.588400406e-05
1.593609009e-05
1.598792064e-05
1.604221416e-05
1.609967518e-05
1.616032036e-05
1.622364938e-05
1.629028899e-05
1.635931243e-05
1.643074107e-05
1.650429654e-05
1.657995454e-05
1.665715709e-05
1.673685285e-05
1.681791209e-05
1.690035883e-05
1.698457351e-05
1.707088407e-05
1.715679923e-05
1.724643485e-05
1.733559811e-05
1.742496843e-05
1.751710456e-05
1.760977946e-05
1.770253444e-05
1.779568233e-05
1.788925668e-05
1.798306144e-05
1.807751981e-05
1.817213217e-05
1.826691948e-05
1.836142769e-05
1.845430165e-05
1.855103144e-05
1.864656468e-05
1.874170333e-05
1.883633346e-05
1.892988934e-05
1.902352817e-05
1.91183415e-05
1.921340931e-05
1.930658442e-05
1.94000391e-05
1.949323777e-05
1.958527383e-05
1.96774338e-05
1.976882982e-05
1.986034066e-05
1.995125983e-05
2.004214153e-05
2.013232765e-05
2.022210751e-05
2.03114399e-05
2.040023278e-05
2.048836802e-05
2.05758549e-05
2.066354987e-05
2.074997146e-05
2.083629627e-05
2.092178326e-05
2.10068735e-05
2.10912662e-05
2.117494891e-05
2.125802953e-05
2.134045149e-05
2.142222634e-05
2.150323315e-05
2.158344622e-05
2.166301537e-05
2.174166707e-05
2.181954485e-05
2.189655129e-05
2.197281963e-05
2.204808051e-05
2.212231037e-05
2.219535584e-05
2.226741322e-05
2.233840532e-05
2.240804045e-05
2.247634385e-05
2.254322137e-05
2.260880209e-05
2.267287029e-05
2.273544575e-05
2.279629673e-05
2.285553047e-05
2.291281672e-05
2.296828207e-05
2.302166234e-05
2.307349939e-05
2.31228629e-05
2.31708047e-05
2.321678881e-05
2.326089868e-05
2.330357195e-05
2.335011984e-05
2.340388135e-05
2.439730742e-05
2.535794212e-05
2.628688679e-05
2.718766965e-05
)


101
(
1.588439284e-05
1.594730064e-05
1.600964034e-05
1.607486598e-05
1.614389662e-05
1.621677733e-05
1.629290158e-05
1.637301988e-05
1.645602466e-05
1.654190971e-05
1.663033948e-05
1.672126741e-05
1.68140349e-05
1.69097024e-05
1.700702037e-05
1.710594837e-05
1.720690222e-05
1.731027281e-05
1.741330871e-05
1.752038135e-05
1.762715421e-05
1.773409709e-05
1.784395862e-05
1.795455575e-05
1.806527793e-05
1.817636166e-05
1.828783981e-05
1.83995144e-05
1.85118184e-05
1.862426103e-05
1.873683513e-05
1.884904513e-05
1.895943367e-05
1.907350826e-05
1.91864906e-05
1.929905504e-05
1.94109882e-05
1.952166996e-05
1.963220175e-05
1.974372679e-05
1.98554474e-05
1.996523887e-05
2.007510845e-05
2.018454598e-05
2.02926779e-05
2.040072894e-05
2.050784826e-05
2.061489026e-05
2.072119003e-05
2.082728616e-05
2.09325481e-05
2.103723966e-05
2.114131145e-05
2.124467294e-05
2.134720765e-05
2.144891435e-05
2.155061565e-05
2.16509102e-05
2.175091097e-05
2.184990832e-05
2.194831599e-05
2.204584388e-05
2.214247422e-05
2.223829932e-05
2.233327539e-05
2.242740437e-05
2.252057494e-05
2.261275263e-05
2.270407047e-05
2.279425862e-05
2.288346281e-05
2.297156797e-05
2.305869075e-05
2.314458356e-05
2.322921839e-05
2.331243664e-05
2.339438127e-05
2.347501377e-05
2.355401095e-05
2.363139181e-05
2.370702877e-05
2.378101369e-05
2.38531566e-05
2.392345639e-05
2.399167565e-05
2.405794792e-05
2.412187768e-05
2.418360633e-05
2.424279243e-05
2.430004714e-05
2.435432195e-05
2.440688784e-05
2.445710414e-05
2.450505848e-05
2.4551273e-05
2.460220648e-05
2.466171243e-05
2.562066982e-05
2.65493684e-05
2.744842333e-05
2.832147035e-05
)


101
(
1.588478161e-05
1.595851198e-05
1.603135665e-05
1.610748611e-05
1.618803141e-05
1.627306612e-05
1.636188023e-05
1.645533594e-05
1.655216071e-05
1.665231195e-05
1.675540008e-05
1.686135267e-05
1.696942201e-05
1.708074724e-05
1.719399641e-05
1.730905917e-05
1.74263665e-05
1.754636151e-05
1.766611765e-05
1.77901234e-05
1.791401833e-05
1.803807423e-05
1.816511198e-05
1.829304218e-05
1.842115935e-05
1.854961163e-05
1.867840992e-05
1.880735271e-05
1.893687204e-05
1.90664947e-05
1.919619744e-05
1.93254582e-05
1.945275749e-05
1.958348871e-05
1.971314132e-05
1.98423533e-05
1.99708488e-05
2.009795938e-05
2.022470737e-05
2.03522253e-05
2.047980812e-05
2.060541364e-05
2.073092114e-05
2.085582164e-05
2.097927399e-05
2.110244612e-05
2.122451772e-05
2.134631018e-05
2.146719412e-05
2.158769436e-05
2.170721409e-05
2.182600107e-05
2.194399828e-05
2.206111364e-05
2.217723291e-05
2.229234929e-05
2.240724504e-05
2.252059363e-05
2.263345348e-05
2.274514838e-05
2.285606705e-05
2.296592844e-05
2.307471017e-05
2.318248905e-05
2.32892305e-05
2.339492593e-05
2.349947673e-05
2.360284525e-05
2.370515022e-05
2.380612325e-05
2.390590917e-05
2.400437823e-05
2.410163174e-05
2.419744312e-05
2.429178156e-05
2.438448499e-05
2.447564435e-05
2.456525687e-05
2.465297536e-05
2.473881926e-05
2.482263308e-05
2.490446722e-05
2.498414187e-05
2.506163819e-05
2.513671532e-05
2.520953544e-05
2.527965001e-05
2.534722059e-05
2.541184097e-05
2.547416559e-05
2.553302599e-05
2.55899012e-05
2.564406824e-05
2.569563893e-05
2.574517582e-05
2.580025274e-05
2.586518296e-05
2.679314983e-05
2.769310405e-05
2.856523014e-05
2.941327229e-05
)


101
(
1.588517038e-05
1.59697242e-05
1.605306984e-05
1.614007522e-05
1.623208084e-05
1.632918882e-05
1.643058851e-05
1.653724256e-05
1.664772781e-05
1.676195815e-05
1.687949239e-05
1.700022944e-05
1.712334233e-05
1.725002152e-05
1.737888079e-05
1.750974004e-05
1.764302845e-05
1.777922967e-05
1.791530737e-05
1.80557739e-05
1.819631318e-05
1.833702838e-05
1.848073097e-05
1.862543654e-05
1.877039215e-05
1.891566335e-05
1.906122431e-05
1.920686392e-05
1.935300457e-05
1.949919237e-05
1.964539784e-05
1.979108638e-05
1.993470756e-05
2.008147793e-05
2.02271089e-05
2.037224366e-05
2.051658746e-05
2.065944574e-05
2.080175932e-05
2.094461336e-05
2.108735864e-05
2.122804974e-05
2.13684715e-05
2.150811583e-05
2.164616972e-05
2.178374993e-05
2.192006456e-05
2.205589747e-05
2.21906461e-05
2.232481956e-05
2.245785656e-05
2.258999829e-05
2.272118453e-05
2.285132005e-05
2.298029199e-05
2.310808981e-05
2.323545467e-05
2.336112566e-05
2.34861143e-05
2.360977933e-05
2.373248882e-05
2.385397102e-05
2.397419963e-05
2.40932361e-05
2.421105176e-05
2.432762483e-05
2.4442869e-05
2.455674828e-05
2.466937282e-05
2.478047586e-05
2.48901989e-05
2.499839782e-05
2.510515884e-05
2.52102752e-05
2.531371574e-05
2.541531761e-05
2.551512184e-05
2.56131551e-05
2.570905008e-05
2.58028331e-05
2.589432678e-05
2.59835448e-05
2.607030686e-05
2.615457213e-05
2.623609516e-05
2.631506635e-05
2.63909879e-05
2.646405472e-05
2.653380106e-05
2.660093299e-05
2.666412741e-05
2.672507742e-05
2.67829819e-05
2.683799714e-05
2.689070653e-05
2.694971757e-05
2.701984979e-05
2.791988138e-05
2.879390101e-05
2.964169108e-05
3.046712116e-05
)


101
(
1.588555915e-05
1.598093736e-05
1.607478017e-05
1.617263397e-05
1.62760461e-05
1.638514744e-05
1.649902951e-05
1.661874493e-05
1.674273296e-05
1.687085834e-05
1.700263005e-05
1.713791616e-05
1.727581901e-05
1.741755781e-05
1.756171291e-05
1.770803812e-05
1.785694737e-05
1.800895296e-05
1.816095797e-05
1.831743818e-05
1.84741574e-05
1.863108446e-05
1.879096946e-05
1.895192378e-05
1.911318054e-05
1.927473768e-05
1.943652609e-05
1.95983181e-05
1.976051853e-05
1.992269044e-05
2.008480413e-05
2.024632479e-05
2.040569547e-05
2.056793221e-05
2.072892202e-05
2.088931811e-05
2.104883663e-05
2.120678335e-05
2.136403055e-05
2.152160307e-05
2.167887719e-05
2.183399503e-05
2.198866631e-05
2.214238966e-05
2.229437893e-05
2.244570485e-05
2.259560529e-05
2.274482648e-05
2.28927861e-05
2.303997323e-05
2.318585783e-05
2.333067964e-05
2.347438342e-05
2.361687411e-05
2.375803786e-05
2.389786072e-05
2.403704444e-05
2.417438585e-05
2.431085123e-05
2.444583461e-05
2.457968855e-05
2.471215336e-05
2.484320072e-05
2.497287812e-05
2.510116019e-05
2.522800854e-05
2.535334496e-05
2.54771376e-05
2.559949389e-05
2.572015383e-05
2.583925465e-05
2.595663547e-05
2.607236617e-05
2.61862587e-05
2.629828378e-05
2.640828037e-05
2.651624479e-05
2.662222701e-05
2.672583945e-05
2.682711857e-05
2.692587216e-05
2.702208121e-05
2.711556236e-05
2.720624761e-05
2.729388554e-05
2.737869317e-05
2.746012064e-05
2.75384084e-05
2.761303314e-05
2.76847654e-05
2.775211358e-05
2.781696679e-05
2.787845843e-05
2.793679113e-05
2.79925807e-05
2.80554164e-05
2.813055275e-05
2.90053355e-05
2.985589567e-05
3.068162561e-05
3.148654207e-05
)


101
(
1.588594791e-05
1.599215157e-05
1.609648794e-05
1.620516308e-05
1.631992848e-05
1.644094407e-05
1.656720642e-05
1.669984831e-05
1.683718331e-05
1.697902259e-05
1.712482667e-05
1.727443112e-05
1.742687502e-05
1.75833878e-05
1.774253154e-05
1.790399967e-05
1.806818072e-05
1.823560413e-05
1.84031489e-05
1.857521605e-05
1.874766594e-05
1.89203652e-05
1.909597252e-05
1.927267778e-05
1.944972015e-05
1.96270473e-05
1.980454738e-05
1.99819712e-05
2.015969898e-05
2.033730582e-05
2.0514764e-05
2.069154741e-05
2.086611261e-05
2.104327369e-05
2.121905747e-05
2.139411507e-05
2.156818405e-05
2.174059153e-05
2.191216161e-05
2.208386113e-05
2.225507555e-05
2.242401906e-05
2.25923307e-05
2.275952101e-05
2.292483069e-05
2.308928842e-05
2.32521642e-05
2.341417013e-05
2.357474077e-05
2.373434224e-05
2.389246993e-05
2.404936082e-05
2.420496858e-05
2.435920569e-05
2.451196048e-05
2.466321463e-05
2.481363195e-05
2.496206108e-05
2.510942222e-05
2.525514221e-05
2.539956223e-05
2.55424365e-05
2.568373846e-05
2.58235058e-05
2.596171652e-05
2.609831324e-05
2.623321894e-05
2.636640378e-05
2.649797503e-05
2.662768509e-05
2.675567282e-05
2.688175999e-05
2.700599884e-05
2.712821428e-05
2.724837885e-05
2.736633667e-05
2.748204703e-05
2.759558015e-05
2.770652377e-05
2.781492476e-05
2.792058479e-05
2.802345656e-05
2.812335176e-05
2.822017061e-05
2.831365733e-05
2.840405448e-05
2.849075579e-05
2.857404548e-05
2.865336083e-05
2.872953027e-05
2.880090913e-05
2.886954644e-05
2.893452771e-05
2.89960964e-05
2.905491837e-05
2.912150225e-05
2.92015105e-05
3.005341229e-05
3.088269658e-05
3.168836759e-05
3.247460274e-05
)


101
(
1.588633667e-05
1.600336688e-05
1.611819338e-05
1.623766318e-05
1.636372917e-05
1.649658069e-05
1.663512225e-05
1.678055774e-05
1.693108571e-05
1.708646053e-05
1.72460953e-05
1.740979185e-05
1.75765325e-05
1.774754171e-05
1.792137408e-05
1.809766934e-05
1.827678341e-05
1.845925234e-05
1.864195742e-05
1.882920208e-05
1.901694876e-05
1.920498922e-05
1.93958767e-05
1.958786086e-05
1.978019597e-05
1.997279494e-05
2.016550858e-05
2.03580644e-05
2.055081283e-05
2.07433349e-05
2.093560373e-05
2.112710741e-05
2.131633056e-05
2.150789592e-05
2.169794812e-05
2.18871203e-05
2.207516803e-05
2.226144888e-05
2.244675693e-05
2.26320142e-05
2.281661187e-05
2.299882404e-05
2.318021607e-05
2.336031041e-05
2.353837335e-05
2.371539446e-05
2.389067844e-05
2.406490965e-05
2.423753833e-05
2.44090053e-05
2.457882675e-05
2.474723472e-05
2.491419111e-05
2.507961845e-05
2.524341477e-05
2.540555935e-05
2.556668008e-05
2.572567273e-05
2.5883411e-05
2.603934998e-05
2.619382007e-05
2.634659156e-05
2.649764153e-05
2.664700347e-05
2.679466206e-05
2.694054236e-05
2.708456166e-05
2.7226686e-05
2.736702119e-05
2.75053362e-05
2.764177832e-05
2.777615645e-05
2.790850301e-05
2.803865221e-05
2.816657572e-05
2.829212433e-05
2.841522442e-05
2.85359691e-05
2.865392233e-05
2.876913276e-05
2.888139933e-05
2.89906594e-05
2.909671808e-05
2.919943973e-05
2.929855786e-05
2.939435074e-05
2.948615314e-05
2.957427599e-05
2.965813977e-05
2.973862636e-05
2.981395887e-05
2.988630315e-05
2.995471869e-05
3.001948197e-05
3.008132228e-05
3.015161338e-05
3.023642195e-05
3.106752212e-05
3.187745023e-05
3.266482631e-05
3.343406802e-05
)


101
(
1.588672542e-05
1.601458339e-05
1.61398968e-05
1.627013499e-05
1.640744947e-05
1.655205939e-05
1.670278017e-05
1.686087835e-05
1.702444718e-05
1.719318191e-05
1.736644907e-05
1.754401583e-05
1.772481343e-05
1.791004918e-05
1.809827735e-05
1.828909104e-05
1.848280896e-05
1.867996444e-05
1.887745939e-05
1.907948738e-05
1.928211225e-05
1.948507271e-05
1.969081298e-05
1.98976263e-05
2.010478376e-05
2.031217521e-05
2.051962137e-05
2.072682791e-05
2.093411271e-05
2.114105705e-05
2.134763131e-05
2.155333947e-05
2.175670457e-05
2.196217224e-05
2.216599535e-05
2.236877665e-05
2.257027974e-05
2.276989104e-05
2.296838584e-05
2.316665602e-05
2.33641036e-05
2.355905874e-05
2.375301186e-05
2.394549095e-05
2.413578564e-05
2.432484721e-05
2.451201402e-05
2.469794915e-05
2.488212334e-05
2.506495126e-05
2.524596585e-05
2.542539036e-05
2.560319307e-05
2.577930726e-05
2.595364272e-05
2.612618217e-05
2.629752325e-05
2.646660569e-05
2.663425664e-05
2.679995338e-05
2.696401487e-05
2.712622674e-05
2.728657203e-05
2.744508325e-05
2.760175576e-05
2.775650236e-05
2.790923568e-05
2.805990785e-05
2.820861821e-05
2.835515022e-05
2.849966497e-05
2.864196699e-05
2.878207299e-05
2.891982212e-05
2.905518079e-05
2.918800407e-05
2.931818881e-05
2.944585355e-05
2.957054491e-05
2.969230743e-05
2.981093013e-05
2.992634715e-05
3.003836393e-05
3.014680505e-05
3.02513843e-05
3.035241523e-05
3.044919146e-05
3.05420265e-05
3.063032816e-05
3.071505333e-05
3.079428791e-05
3.087030341e-05
3.094213248e-05
3.101008492e-05
3.107495803e-05
3.114895032e-05
3.123851921e-05
3.205065879e-05
3.284292649e-05
3.361354501e-05
3.436716858e-05
)


101
(
1.588711418e-05
1.602580119e-05
1.616159848e-05
1.630257921e-05
1.645109066e-05
1.660738225e-05
1.677018328e-05
1.694081518e-05
1.711727461e-05
1.729919626e-05
1.748590081e-05
1.767712009e-05
1.78717393e-05
1.807093878e-05
1.827327711e-05
1.847830751e-05
1.868630906e-05
1.889780434e-05
1.910972854e-05
1.932615922e-05
1.954325849e-05
1.976072856e-05
1.998090712e-05
2.020211918e-05
2.042364991e-05
2.064537368e-05
2.086708827e-05
2.108848108e-05
2.130983744e-05
2.15307347e-05
2.175113602e-05
2.197055934e-05
2.218757157e-05
2.2406457e-05
2.262357413e-05
2.283948997e-05
2.30539661e-05
2.326640989e-05
2.347757878e-05
2.368834475e-05
2.389813202e-05
2.410532971e-05
2.431135599e-05
2.451573796e-05
2.47177829e-05
2.491840348e-05
2.511696976e-05
2.531412655e-05
2.550936817e-05
2.570308907e-05
2.589483689e-05
2.608482323e-05
2.627301814e-05
2.645936349e-05
2.664378237e-05
2.6826265e-05
2.700738404e-05
2.718612436e-05
2.736326804e-05
2.753831064e-05
2.771155553e-05
2.788280229e-05
2.805203964e-05
2.821930121e-05
2.83845972e-05
2.854783253e-05
2.87089207e-05
2.886779836e-05
2.90245494e-05
2.917896505e-05
2.933122033e-05
2.948112227e-05
2.962868086e-05
2.977374036e-05
2.991625815e-05
3.005608793e-05
3.019309972e-05
3.032743701e-05
3.045863258e-05
3.058673232e-05
3.071150833e-05
3.083288772e-05
3.095069084e-05
3.10647084e-05
3.117462038e-05
3.128076298e-05
3.138241585e-05
3.147988605e-05
3.157255076e-05
3.16614593e-05
3.174457448e-05
3.182425233e-05
3.18994992e-05
3.197066427e-05
3.203860776e-05
3.211633049e-05
3.221064206e-05
3.300543338e-05
3.378153282e-05
3.453677064e-05
3.527609699e-05
)


101
(
1.588750292e-05
1.603702038e-05
1.618329871e-05
1.633499657e-05
1.649465403e-05
1.666255133e-05
1.68373347e-05
1.702037325e-05
1.720957486e-05
1.740451299e-05
1.760446315e-05
1.780912133e-05
1.801733116e-05
1.823023827e-05
1.844640814e-05
1.866536047e-05
1.888733377e-05
1.911283347e-05
1.933883622e-05
1.956930174e-05
1.980048581e-05
2.003206622e-05
2.026628048e-05
2.050147743e-05
2.073695195e-05
2.097256681e-05
2.120810289e-05
2.144323363e-05
2.167821395e-05
2.191261529e-05
2.214638944e-05
2.23790646e-05
2.260925252e-05
2.284108883e-05
2.307103987e-05
2.329963805e-05
2.352663674e-05
2.375145452e-05
2.397482499e-05
2.419760413e-05
2.441924643e-05
2.463820713e-05
2.485584174e-05
2.507167548e-05
2.528502514e-05
2.549676175e-05
2.570628278e-05
2.591421564e-05
2.612008229e-05
2.632426143e-05
2.652631642e-05
2.672644676e-05
2.692462138e-05
2.712078658e-05
2.731487654e-05
2.750689225e-05
2.769738506e-05
2.788538702e-05
2.807164059e-05
2.825565729e-05
2.843772123e-05
2.861764333e-05
2.87954162e-05
2.897107368e-05
2.914464155e-05
2.931602471e-05
2.948514229e-05
2.965191909e-05
2.981642047e-05
2.997843416e-05
3.013814513e-05
3.02953644e-05
3.045010366e-05
3.060221858e-05
3.075165837e-05
3.089827075e-05
3.104189381e-05
3.11826944e-05
3.132019709e-05
3.14544528e-05
3.158521704e-05
3.171240094e-05
3.183584617e-05
3.195532387e-05
3.207047629e-05
3.218163966e-05
3.228809143e-05
3.239014772e-05
3.248713873e-05
3.258019175e-05
3.266718548e-05
3.275054275e-05
3.282923582e-05
3.290365774e-05
3.297472613e-05
3.305622047e-05
3.31552846e-05
3.39341588e-05
3.469541717e-05
3.54365178e-05
3.616267245e-05
)


101
(
1.588789167e-05
1.604824104e-05
1.620499781e-05
1.63673878e-05
1.65381409e-05
1.671756878e-05
1.690423759e-05
1.709955757e-05
1.730135481e-05
1.750914149e-05
1.772214867e-05
1.794003603e-05
1.816160975e-05
1.838797472e-05
1.861770449e-05
1.885029077e-05
1.908593189e-05
1.932511117e-05
1.956485173e-05
1.980899606e-05
2.005388899e-05
2.029919219e-05
2.054705071e-05
2.079583315e-05
2.104483968e-05
2.129392273e-05
2.154285045e-05
2.179128638e-05
2.203945869e-05
2.228693314e-05
2.253364742e-05
2.277913514e-05
2.302205053e-05
2.326639079e-05
2.35087319e-05
2.374957727e-05
2.398867125e-05
2.422543675e-05
2.446057544e-05
2.469492156e-05
2.492796353e-05
2.515823089e-05
2.53870288e-05
2.561388612e-05
2.583812398e-05
2.606056615e-05
2.628063332e-05
2.649893383e-05
2.671501541e-05
2.692924902e-05
2.714121672e-05
2.735110511e-05
2.755888057e-05
2.77644922e-05
2.796788028e-05
2.816905624e-05
2.836855506e-05
2.856545662e-05
2.876046991e-05
2.895312225e-05
2.914367754e-05
2.933195372e-05
2.951794642e-05
2.970168696e-05
2.988321571e-05
3.006244048e-05
3.023929098e-05
3.041368925e-05
3.058568143e-05
3.075504752e-05
3.092197222e-05
3.108626744e-05
3.124794911e-05
3.140689248e-05
3.156304572e-05
3.17162506e-05
3.186630748e-05
3.201340055e-05
3.215704455e-05
3.229730301e-05
3.243392191e-05
3.256678887e-05
3.269575834e-05
3.282059845e-05
3.294092574e-05
3.305705363e-05
3.316824626e-05
3.327485749e-05
3.337616484e-05
3.347334822e-05
3.356423415e-05
3.365130297e-05
3.373349027e-05
3.381123192e-05
3.388549353e-05
3.397081469e-05
3.407466685e-05
3.483891593e-05
3.558653794e-05
3.631463606e-05
3.702860974e-05
)


101
(
1.588828041e-05
1.605946328e-05
1.622669606e-05
1.639975361e-05
1.658155257e-05
1.677243663e-05
1.697089502e-05
1.717837302e-05
1.739262116e-05
1.761309088e-05
1.783896953e-05
1.806988023e-05
1.830459523e-05
1.854417423e-05
1.878719898e-05
1.903313795e-05
1.928215059e-05
1.953469435e-05
1.978784193e-05
2.004532038e-05
2.030355918e-05
2.056220921e-05
2.082333115e-05
2.108531239e-05
2.134745506e-05
2.160960068e-05
2.187150706e-05
2.213283106e-05
2.239377805e-05
2.265391022e-05
2.291315043e-05
2.317103373e-05
2.342625194e-05
2.368266961e-05
2.393697415e-05
2.418964641e-05
2.444042565e-05
2.468873648e-05
2.493524215e-05
2.518074601e-05
2.542476666e-05
2.566590965e-05
2.590544488e-05
2.614291462e-05
2.63776471e-05
2.661041362e-05
2.684064868e-05
2.706894044e-05
2.729486117e-05
2.75187748e-05
2.774028651e-05
2.795957565e-05
2.817660368e-05
2.839131954e-05
2.860366816e-05
2.88136664e-05
2.902183636e-05
2.922730648e-05
2.943075813e-05
2.963173698e-05
2.983048781e-05
3.002682968e-05
3.022076012e-05
3.041230688e-05
3.06015233e-05
3.078831852e-05
3.097263633e-05
3.115440159e-05
3.133364913e-05
3.151015101e-05
3.168408321e-05
3.185525081e-05
3.202367228e-05
3.218924446e-05
3.235192415e-05
3.251155545e-05
3.266790093e-05
3.282115042e-05
3.297080084e-05
3.31169352e-05
3.325929745e-05
3.33977547e-05
3.353216278e-05
3.366228596e-05
3.378773507e-05
3.390880072e-05
3.402470423e-05
3.413585154e-05
3.424148687e-05
3.43428127e-05
3.443761797e-05
3.452844843e-05
3.461418481e-05
3.469532411e-05
3.477286016e-05
3.486207266e-05
3.49707658e-05
3.572156041e-05
3.645664812e-05
3.717280712e-05
3.787582905e-05
)


101
(
1.588866914e-05
1.607068716e-05
1.624839375e-05
1.643209471e-05
1.662489031e-05
1.682715693e-05
1.703731e-05
1.725682436e-05
1.748338053e-05
1.771637013e-05
1.795493766e-05
1.819866957e-05
1.844630729e-05
1.86988621e-05
1.895492344e-05
1.921394042e-05
1.947603561e-05
1.9741638e-05
2.000787132e-05
2.027835013e-05
2.054958415e-05
2.082121674e-05
2.109523174e-05
2.137003641e-05
2.164493331e-05
2.191975196e-05
2.219424051e-05
2.246805107e-05
2.274136955e-05
2.301375783e-05
2.328512553e-05
2.355500665e-05
2.382212533e-05
2.409021576e-05
2.435607544e-05
2.462016915e-05
2.488223725e-05
2.51417088e-05
2.539920539e-05
2.565549053e-05
2.591010299e-05
2.616172134e-05
2.641158986e-05
2.665927684e-05
2.690412568e-05
2.714685635e-05
2.738690877e-05
2.762484492e-05
2.786025824e-05
2.809350686e-05
2.83242207e-05
2.855257636e-05
2.877853433e-05
2.900204025e-05
2.922304107e-05
2.944155732e-05
2.965809401e-05
2.987182963e-05
3.00834246e-05
3.029244597e-05
3.049912109e-05
3.07032688e-05
3.090488424e-05
3.110399133e-05
3.130065552e-05
3.149478241e-05
3.168633182e-05
3.187523587e-05
3.206152525e-05
3.224496722e-05
3.242572691e-05
3.260359655e-05
3.277858914e-05
3.29506213e-05
3.311966227e-05
3.32855696e-05
3.344807944e-05
3.360737683e-05
3.376293379e-05
3.391484205e-05
3.406285367e-05
3.420682964e-05
3.434661934e-05
3.448197038e-05
3.461250386e-05
3.47384974e-05
3.485911006e-05
3.497479013e-05
3.50847794e-05
3.519028451e-05
3.528904566e-05
3.538370766e-05
3.547305846e-05
3.555768239e-05
3.563859002e-05
3.573178252e-05
3.584536377e-05
3.65837913e-05
3.730737181e-05
3.801257077e-05
3.870539238e-05
)


101
(
1.588905787e-05
1.608191283e-05
1.627009127e-05
1.646441195e-05
1.666815559e-05
1.688173197e-05
1.710348585e-05
1.73349167e-05
1.75736399e-05
1.781898858e-05
1.807006533e-05
1.832642003e-05
1.858676591e-05
1.885206365e-05
1.912090958e-05
1.939273652e-05
1.966763234e-05
1.994599619e-05
2.022500325e-05
2.050815904e-05
2.079204942e-05
2.107631224e-05
2.136286036e-05
2.165012382e-05
2.19374054e-05
2.222452206e-05
2.251121201e-05
2.279712313e-05
2.308242411e-05
2.336667981e-05
2.364979013e-05
2.393128777e-05
2.420992452e-05
2.448930476e-05
2.476633127e-05
2.504145742e-05
2.531443125e-05
2.558469112e-05
2.585281975e-05
2.611953638e-05
2.638438674e-05
2.664611341e-05
2.690593727e-05
2.716346317e-05
2.741806291e-05
2.767041334e-05
2.7919954e-05
2.816721292e-05
2.841179983e-05
2.865406483e-05
2.889366369e-05
2.913077546e-05
2.936536247e-05
2.959736786e-05
2.982673838e-05
3.005349442e-05
3.027812377e-05
3.049985048e-05
3.071931711e-05
3.093611788e-05
3.115046777e-05
3.13621852e-05
3.157125822e-05
3.177770666e-05
3.198160509e-05
3.218285526e-05
3.238143086e-05
3.257727086e-05
3.277040907e-05
3.296061235e-05
3.314803937e-05
3.333246611e-05
3.351389241e-05
3.369224825e-05
3.386751256e-05
3.403956145e-05
3.420811926e-05
3.437337801e-05
3.453476883e-05
3.469237887e-05
3.484596733e-05
3.499540601e-05
3.514053965e-05
3.528108972e-05
3.541668453e-05
3.554761097e-05
3.567295746e-05
3.579318713e-05
3.59075667e-05
3.601730773e-05
3.612007559e-05
3.621865182e-05
3.631170312e-05
3.639990374e-05
3.648429592e-05
3.658155884e-05
3.670010006e-05
3.74271714e-05
3.814020351e-05
3.883534518e-05
3.951884617e-05
)


101
(
1.58894466e-05
1.609314038e-05
1.62917889e-05
1.649670604e-05
1.67113497e-05
1.69361638e-05
1.716942562e-05
1.741265474e-05
1.766340585e-05