/*--------------------------------*- C++ -*----------------------------------*\
| =========                 |                                                 |
| \\      /  F ield         | OpenFOAM: The Open Source CFD Toolbox           |
|  \\    /   O peration     | Version:  2.3.1                                 |
|   \\  /    A nd           | Web:      www.OpenFOAM.org                      |
|    \\/     M anipulation  |                                                 |
\*---------------------------------------------------------------------------*/
FoamFile
{
    version     2.0;
    format      ascii;
    class       dictionary;
    location    "constant";
    object      PM10;
}
// * * * * * * * * * * * * * * * * * * * * * * * * * * * * * * * * * * * * * //

PM10_table
101
(

101
(
-0.3155187685
-0.1695428333
-0.1482416249
-0.1138276907
-0.08443143489
-0.06242252737
-0.04581395044
-0.0328187664
-0.0225432314
-0.01473253345
-0.008415858189
-0.003603776176
1.83270754e-05
0.002830111293
0.004769287086
0.00597640889
0.006592903653
0.006701546346
0.006426819244
0.005849889578
0.005176191232
0.004470499959
0.003708325523
0.003035850047
0.002459636539
0.001968793549
0.001560786226
0.001230930866
0.0009619084832
0.0007520776738
0.0005878255221
0.0004625683747
0.0003701700954
0.0002778471871
0.0002151066849
0.0001642299884
8.507885274e-05
1.448174791e-05
4.720117049e-05
4.319775638e-05
3.458674453e-05
2.843276821e-05
2.28572984e-05
1.872185543e-05
1.581544888e-05
1.320847306e-05
1.124706732e-05
9.433389047e-06
8.018213467e-06
6.755827424e-06
5.755312975e-06
4.904722452e-06
4.189651981e-06
3.553841936e-06
3.002053588e-06
2.551463755e-06
2.132894991e-06
1.823628557e-06
1.535676679e-06
1.303121297e-06
1.093227573e-06
9.211191341e-07
7.760898689e-07
6.478911626e-07
5.306981872e-07
4.384857435e-07
3.60079207e-07
2.931936073e-07
2.356912367e-07
1.888312679e-07
1.496709333e-07
1.17969184e-07
9.17498096e-08
7.000148056e-08
4.578749479e-08
3.168651271e-08
2.5780929e-08
1.985599172e-08
1.488877011e-08
1.096365031e-08
7.900588747e-09
5.472114553e-09
3.734862639e-09
2.179327589e-09
1.346922166e-09
9.473634614e-10
6.352219545e-10
4.009110417e-10
2.429070995e-10
1.234987892e-10
7.439740302e-11
4.481896111e-11
2.418503951e-11
1.185486444e-11
5.839459151e-12
2.484436098e-12
4.404532646e-13
6.078646084e-13
9.156619453e-13
2.031044052e-12
4.104479848e-12
)


101
(
-0.315518769
-0.1689277823
-0.1475363832
-0.1130629977
-0.08353650086
-0.06133226233
-0.04451573857
-0.03133015143
-0.02088359158
-0.01292201695
-0.006508295138
-0.001632077307
0.00200953558
0.004789737896
0.006675042055
0.00780104795
0.008311712813
0.008298817518
0.007893154001
0.00717978265
0.006359792655
0.005511765853
0.00462252076
0.003821778769
0.003128719317
0.002535486939
0.002037741493
0.001629770105
0.001294851143
0.001028190501
0.0008165583202
0.0006517514314
0.000526467434
0.0004114739462
0.0003253476885
0.0002563703957
0.0001743888
9.748108459e-05
0.0001006597811
8.998842905e-05
7.537797638e-05
6.275587954e-05
5.180049053e-05
4.300277032e-05
3.611407242e-05
3.030915688e-05
2.563780517e-05
2.16044289e-05
1.827889875e-05
1.542286114e-05
1.305238513e-05
1.105227334e-05
9.37648241e-06
7.954150394e-06
6.732956028e-06
5.696780955e-06
4.781787812e-06
4.03704102e-06
3.391940966e-06
2.852289661e-06
2.389783224e-06
2.001066799e-06
1.672057879e-06
1.391876066e-06
1.149950055e-06
9.482874634e-07
7.778560806e-07
6.344456943e-07
5.14379958e-07
4.140139589e-07
3.304625283e-07
2.615049893e-07
2.057241126e-07
1.60110046e-07
1.187876087e-07
8.822082662e-08
6.751339506e-08
5.105711745e-08
3.820890584e-08
2.821132965e-08
2.051788115e-08
1.459373578e-08
1.023008726e-08
6.82650893e-09
4.510630724e-09
2.999589927e-09
1.992310843e-09
1.304501104e-09
8.228589831e-10
4.958815425e-10
2.989936158e-10
1.753673396e-10
1.042060717e-10
5.81401621e-11
3.246394789e-11
1.673945761e-11
5.021886509e-12
9.101630166e-12
1.619544827e-11
3.865311129e-11
6.972019986e-11
)


101
(
-0.315518769
-0.1677034776
-0.1461436127
-0.1115647856
-0.08179336984
-0.05921522752
-0.04199877173
-0.02844660286
-0.01766957926
-0.009415132561
-0.002808521127
0.002197852548
0.005885148578
0.008616056146
0.01040691724
0.01138832811
0.01170853044
0.01147387382
0.01082183674
0.009855531913
0.008755911879
0.007632636984
0.006496083946
0.005444288235
0.004518245465
0.003719022369
0.003039759051
0.00247256063
0.002002150133
0.001618201526
0.001307705892
0.001059990771
0.0008652096931
0.0007011382415
0.00056731582
0.0004561119944
0.0003602680183
0.0002682330705
0.0002215281403
0.0001916250712
0.0001633207619
0.0001376550873
0.0001155182379
9.688902057e-05
8.15541842e-05
6.888889232e-05
5.839513231e-05
4.95832648e-05
4.212980474e-05
3.580278491e-05
3.041787142e-05
2.585601696e-05
2.200667862e-05
1.875875222e-05
1.598722669e-05
1.36184404e-05
1.155743212e-05
9.799583141e-06
8.301248836e-06
7.019784879e-06
5.932510007e-06
5.007919069e-06
4.219649497e-06
3.549136127e-06
2.975133576e-06
2.481807406e-06
2.06204167e-06
1.704584856e-06
1.406183908e-06
1.154001107e-06
9.402141642e-07
7.597376871e-07
6.107467839e-07
4.878028894e-07
3.849519301e-07
3.00138819e-07
2.31957628e-07
1.778057594e-07
1.35299769e-07
1.021721862e-07
7.639282479e-08
5.615655112e-08
4.073339542e-08
2.902586563e-08
2.024906405e-08
1.383267028e-08
9.293442809e-09
6.269936333e-09
4.161117493e-09
2.663887395e-09
1.662931361e-09
1.026661517e-09
6.402395206e-10
3.862483779e-10
2.313975046e-10
1.29111825e-10
4.290535295e-11
1.080661977e-10
2.343898262e-10
7.525930887e-10
1.675887844e-09
)


101
(
-0.315518769
-0.1664896114
-0.144784874
-0.1101276375
-0.08014267864
-0.05722482176
-0.03964127208
-0.02575268761
-0.01467030061
-0.006143507835
0.0006509474401
0.005787811615
0.00953278748
0.0122377119
0.0139599125
0.01483108548
0.0150007256
0.01458575724
0.01372497885
0.01254130247
0.01119427357
0.009818235553
0.008448739077
0.00716077096
0.00600806036
0.005003024247
0.004139859425
0.003409413727
0.002797405565
0.002290040994
0.001873065297
0.001534972665
0.001263358377
0.001041287282
0.0008577507082
0.0007056058158
0.0005739242067
0.000458720006
0.0003756273392
0.000317479299
0.0002707612798
0.0002304678559
0.0001957100408
0.0001659712173
0.0001409099848
0.0001200150515
0.0001025209577
8.78420233e-05
7.535556559e-05
6.472920223e-05
5.55909939e-05
4.775161432e-05
4.105269265e-05
3.535199992e-05
3.046949655e-05
2.625604567e-05
2.261778017e-05
1.945581244e-05
1.672850296e-05
1.435070708e-05
1.230579096e-05
1.055243978e-05
9.039873401e-06
7.740390638e-06
6.616543715e-06
5.629747182e-06
4.773126713e-06
4.032503599e-06
3.399427365e-06
2.860276606e-06
2.389824649e-06
1.984768319e-06
1.638391512e-06
1.346468542e-06
1.099204215e-06
8.899346416e-07
7.1212893e-07
5.648551676e-07
4.438446033e-07
3.462004168e-07
2.681806077e-07
2.047929294e-07
1.543197941e-07
1.149261626e-07
8.412845056e-08
6.026605859e-08
4.215984606e-08
2.922973511e-08
2.024427783e-08
1.370023043e-08
8.914744314e-09
5.702559881e-09
3.601316875e-09
2.268151441e-09
1.427304924e-09
8.346924985e-10
3.366302408e-10
1.171382735e-09
2.863580631e-09
1.047688869e-08
2.024652761e-08
)


101
(
-0.3155187401
-0.1652853276
-0.1434590359
-0.1087497369
-0.07858136804
-0.0553562361
-0.0374359176
-0.0232368399
-0.01186986238
-0.003086340855
0.003895757199
0.009169312503
0.01298841081
0.01569435914
0.01737731869
0.01817390895
0.01823334451
0.01767959277
0.0166494694
0.01528322363
0.01372100545
0.01211499902
0.01052700649
0.00901593162
0.007642691385
0.00643114954
0.005379683448
0.004479713082
0.003717919834
0.003078567304
0.002546430336
0.002107275839
0.001748581064
0.001457280206
0.001215937586
0.001019049825
0.0008426318204
0.0006937833651
0.0005757084826
0.0004851191064
0.0004137998873
0.0003544750611
0.0003040360917
0.0002607882874
0.0002237486298
0.0001923630882
0.0001658142211
0.0001434537106
0.0001244208152
0.0001081205648
9.399972078e-05
8.172521466e-05
7.109031207e-05
6.194768371e-05
5.407427143e-05
4.720293428e-05
4.123267911e-05
3.599761573e-05
3.144546961e-05
2.74160337e-05
2.387257465e-05
2.080817352e-05
1.812002213e-05
1.578601636e-05
1.375667791e-05
1.195618173e-05
1.035714402e-05
8.943797289e-06
7.696874256e-06
6.630260445e-06
5.683938748e-06
4.849938329e-06
4.113191012e-06
3.473967684e-06
2.919948073e-06
2.441542169e-06
2.027460327e-06
1.669039845e-06
1.358181207e-06
1.097272664e-06
8.810916877e-07
7.034979955e-07
5.530195311e-07
4.307891181e-07
3.312364235e-07
2.506699999e-07
1.849625095e-07
1.345143304e-07
9.702394672e-08
6.950708579e-08
4.797638328e-08
3.231835537e-08
2.161147703e-08
1.402225935e-08
9.181926771e-09
5.571408876e-09
2.600420208e-09
1.050168385e-08
2.797670139e-08
1.148163184e-07
2.246391848e-07
)


101
(
-0.3155187692
-0.1640898822
-0.1421650334
-0.1074293899
-0.0771065961
-0.05360498469
-0.03537609972
-0.02088898983
-0.009254544862
-0.0002261544268
0.006946677714
0.01236830875
0.01628029897
0.01901750832
0.02069330544
0.02145112112
0.0214417831
0.02079088115
0.01963053908
0.01811695462
0.01637237107
0.01456006443
0.01276838782
0.01104670222
0.009458656732
0.00804010281
0.006795633531
0.005718468562
0.004797120755
0.004015247302
0.003357372255
0.002806199374
0.002348762393
0.001975370594
0.001664656064
0.001407318848
0.001185234209
0.0009943848353
0.0008364007125
0.0007095685671
0.0006076076127
0.0005233588153
0.0004525442629
0.0003920760358
0.000339919728
0.0002951314537
0.000256776133
0.0002242846691
0.0001965858038
0.0001727319495
0.0001519924105
0.0001337671612
0.0001177650035
0.0001038164327
9.17448787e-05
8.114096405e-05
7.179609444e-05
6.354206115e-05
5.627489027e-05
4.980487537e-05
4.405456143e-05
3.89979801e-05
3.450802733e-05
3.053110457e-05
2.704302291e-05
2.394790051e-05
2.115963396e-05
1.864694031e-05
1.637737178e-05
1.437485785e-05
1.260413742e-05
1.102375591e-05
9.600001847e-06
8.32272478e-06
7.183425936e-06
6.175820569e-06
5.29520167e-06
4.509135651e-06
3.803508198e-06
3.183042768e-06
2.64679349e-06
2.197222898e-06
1.804014493e-06
1.466529641e-06
1.183547511e-06
9.431768952e-07
7.383180906e-07
5.669668161e-07
4.326056392e-07
3.283417065e-07
2.427122949e-07
1.73856642e-07
1.249439024e-07
8.727559599e-08
6.080173244e-08
3.869867092e-08
2.014284034e-08
9.910305527e-08
2.475858116e-07
8.47920732e-07
1.549867404e-06
)


101
(
-0.315518769
-0.1629021837
-0.1409017251
-0.1061648808
-0.07571484957
-0.05196460956
-0.03345180809
-0.01869632856
-0.006811798563
0.00245077004
0.009819405798
0.01540191053
0.01942766515
0.02222618423
0.02392845265
0.02468329353
0.02464510037
0.02393857687
0.02268827582
0.02106382882
0.01917114787
0.01717836056
0.01519926549
0.01328000085
0.01148389853
0.009858623935
0.008417262243
0.007155822167
0.006065209698
0.005129633004
0.004333650645
0.003659533826
0.003091327957
0.002622545015
0.002230544587
0.001902983045
0.00162319519
0.001381913161
0.001177568496
0.00100824931
0.0008690012016
0.0007529156142
0.0006556612067
0.0005729146973
0.0005014764732
0.0004397099034
0.0003861655708
0.000340269833
0.000300956777
0.0002670208245
0.0002374732911
0.0002113451003
0.0001882271644
0.0001678198804
0.0001499383293
0.0001341667321
0.0001202045563
0.0001077280867
9.66102924e-05
8.66178092e-05
7.766034853e-05
6.967392066e-05
6.252558676e-05
5.612743593e-05
5.042523586e-05
4.534912581e-05
4.074496218e-05
3.657138999e-05
3.274152969e-05
2.925927134e-05
2.615034739e-05
2.333779113e-05
2.078635922e-05
1.844739636e-05
1.631351107e-05
1.437025996e-05
1.26408339e-05
1.108189637e-05
9.663641301e-06
8.363470881e-06
7.185520439e-06
6.154450607e-06
5.254727099e-06
4.439533664e-06
3.734332841e-06
3.114851564e-06
2.568368982e-06
2.079807879e-06
1.677021713e-06
1.341234182e-06
1.059577757e-06
8.105333275e-07
6.236542256e-07
4.718684574e-07
3.519279994e-07
2.491262002e-07
1.477690863e-07
6.448974776e-07
1.481647936e-06
4.340663764e-06
7.619457462e-06
)


101
(
-0.315518769
-0.16172137
-0.1396680242
-0.1049546157
-0.07440261262
-0.05042779844
-0.03165027036
-0.01664164399
-0.004527696849
0.004958842764
0.012529899
0.01828824856
0.02245047922
0.02534027783
0.02710297434
0.02789047389
0.02786115119
0.02713913836
0.02583923929
0.02414131397
0.02213647772
0.01999168456
0.01784257335
0.01573986613
0.01374430606
0.01191399458
0.01027293016
0.008821407378
0.007552831959
0.006452669814
0.005506488147
0.004696910437
0.004005620025
0.003427917158
0.002940982009
0.002531186827
0.002181381518
0.001879230419
0.001620322996
0.001400945003
0.001216831849
0.001061552298
0.0009306534669
0.0008191283089
0.0007229106786
0.0006395889712
0.0005668332533
0.0005037163978
0.0004492458145
0.0004020142065
0.0003606489053
0.0003241066645
0.000291674499
0.0002626614299
0.0002369896633
0.000214294938
0.0001940621052
0.0001758481608
0.0001595433544
0.0001447647362
0.0001313663816
0.0001192885472
0.0001083146761
9.84546595e-05
8.957456384e-05
8.164204509e-05
7.44622314e-05
6.788446725e-05
6.179100595e-05
5.610189733e-05
5.093898283e-05
4.620840068e-05
4.195033006e-05
3.801817331e-05
3.433949796e-05
3.091628761e-05
2.778524297e-05
2.493163189e-05
2.231545216e-05
1.985830645e-05
1.758244032e-05
1.549077756e-05
1.365318653e-05
1.19367913e-05
1.03948893e-05
8.981437582e-06
7.740341861e-06
6.563647569e-06
5.543769489e-06
4.651312752e-06
3.863434372e-06
3.143329494e-06
2.565143586e-06
2.075860038e-06
1.648684097e-06
1.283144887e-06
8.585108526e-07
3.033273306e-06
6.382329555e-06
1.608433554e-05
2.78862473e-05
)


101
(
-0.3155187105
-0.1605465891
-0.138462769
-0.1037964499
-0.07316695541
-0.04899006053
-0.02996372016
-0.01471299564
-0.002391017023
0.007309427885
0.01508969483
0.02104103618
0.02536324402
0.02837479467
0.03023150413
0.03108734172
0.0311039429
0.03040549298
0.02909617349
0.02736323642
0.02528415551
0.02301946655
0.02072023817
0.01845075678
0.01626795952
0.01423759182
0.01239544707
0.01074836965
0.009293222916
0.008017280953
0.006907887849
0.005949160577
0.005121663468
0.004421420392
0.003824554421
0.003318459378
0.002885723257
0.002511458286
0.002188555149
0.0019106007
0.001672938413
0.001469768476
0.001297008532
0.001149118925
0.001021437277
0.0009108442923
0.0008139758652
0.0007293542234
0.0006555135151
0.0005910156157
0.000534326305
0.000484393222
0.0004399206524
0.0003998679884
0.000364053657
0.0003320555981
0.000303512399
0.0002775766762
0.0002543774855
0.0002333379381
0.0002140602784
0.0001965583702
0.0001804688565
0.0001658473733
0.0001525552292
0.0001405554418
0.0001297472315
0.0001197832633
0.0001105432725
0.0001018622966
9.382971844e-05
8.640025562e-05
7.957718411e-05
7.32971072e-05
6.74114091e-05
6.187273181e-05
5.664141979e-05
5.179702324e-05
4.735610875e-05
4.311746493e-05
3.908648894e-05
3.534347704e-05
3.19182332e-05
2.87637712e-05
2.574975487e-05
2.291328019e-05
2.042603975e-05
1.799908487e-05
1.577921022e-05
1.376702734e-05
1.190274398e-05
1.018951439e-05
8.701771667e-06
7.41357203e-06
6.19844499e-06
5.096856212e-06
3.815419249e-06
1.095754642e-05
2.110095108e-05
4.558791312e-05
7.755972388e-05
)


101
(
-0.3155187109
-0.1593768349
-0.1372846767
-0.1026874631
-0.07200366851
-0.04764713832
-0.02838845062
-0.01290575793
-0.0003911084231
0.00951532689
0.01750944627
0.02366908102
0.0281738906
0.03133699648
0.03332121611
0.03428119006
0.03438043229
0.03374433832
0.03246586749
0.03073746507
0.02862417021
0.02627698779
0.02385472131
0.02143789463
0.01908417518
0.01686310746
0.01482078576
0.01297298787
0.01132229621
0.00985907687
0.008572694882
0.007449273511
0.006470244436
0.00563349102
0.004911596163
0.004294230566
0.003765002821
0.003306701758
0.002908828683
0.002562545743
0.002261860727
0.002000936186
0.001777312331
0.001584749568
0.001418064214
0.001273575873
0.00114661857
0.001035017322
0.0009365883983
0.0008501541092
0.0007740714878
0.0007070673199
0.0006473401327
0.0005935170685
0.000544563349
0.0005005775053
0.0004613528701
0.0004255404859
0.0003933537551
0.0003641976373
0.0003373245254
0.0003126899481
0.0002900769469
0.0002692351167
0.0002500251946
0.0002323881455
0.0002165934713
0.0002020904147
0.0001887460644
0.0001761806887
0.0001643503694
0.0001532565105
0.0001429475658
0.0001334180872
0.0001245285937
0.0001160515599
0.0001079496122
0.0001003525541
9.326835205e-05
8.652026336e-05
7.997844325e-05
7.384652182e-05
6.802924897e-05
6.270914079e-05
5.749918102e-05
5.238639532e-05
4.780945236e-05
4.339154373e-05
3.91599748e-05
3.527840525e-05
3.147087062e-05
2.795558429e-05
2.475720613e-05
2.188937079e-05
1.912518954e-05
1.638476792e-05
1.312090316e-05
3.192999516e-05
5.666397813e-05
0.0001055618729
0.0001599782551
)


101
(
-0.3155184451
-0.1582111941
-0.1361325472
-0.1016254604
-0.07090911019
-0.0463949189
-0.02692090579
-0.01121642848
0.001481709255
0.01159019506
0.01979972489
0.02618046139
0.03088854269
0.03423174786
0.03637664785
0.03747661254
0.03769440938
0.03715867483
0.03595174643
0.03426879346
0.03216307003
0.02977544478
0.02726633433
0.02472509265
0.0222208101
0.01982252023
0.01758361165
0.01553139681
0.01367720049
0.01201604389
0.01053967224
0.00923597744
0.008088450873
0.007100237904
0.006238486988
0.005494166291
0.004852813325
0.004296220759
0.003810619924
0.003385020842
0.003011572124
0.00268319716
0.002398846124
0.002152447993
0.001938250541
0.001752103147
0.001587916666
0.001442640196
0.001313670951
0.001199916485
0.001099339045
0.001010502714
0.0009314893913
0.0008602435098
0.0007949885176
0.0007365220197
0.0006835591195
0.0006353509638
0.0005915207298
0.0005520282758
0.0005156974741
0.0004820654197
0.0004510929353
0.0004223110474
0.000395698304
0.0003709662893
0.0003483976688
0.0003279612978
0.0003092557287
0.000291696499
0.0002751042017
0.00025933449
0.0002445576597
0.0002307486026
0.000217838009
0.0002055058946
0.0001937561775
0.0001826449979
0.0001719147713
0.0001617839205
0.0001520071271
0.0001425765298
0.0001335447303
0.0001251280028
0.0001168970672
0.000108550598
0.0001007919068
9.352894621e-05
8.639639635e-05
7.952553467e-05
7.270998338e-05
6.638007034e-05
6.036612106e-05
5.480832498e-05
4.948048883e-05
4.392393472e-05
3.728978095e-05
7.680120366e-05
0.0001263708576
0.0002108795465
0.0003017646662
)


101
(
-0.3155170999
-0.1570486547
-0.1350049872
-0.1006088527
-0.06988137599
-0.04523118916
-0.02555871892
-0.009641305594
0.003234947431
0.01354295383
0.02196715206
0.02858163776
0.03351268713
0.03706341118
0.03940180091
0.04067757123
0.04105016262
0.04065198723
0.03955774544
0.03796297929
0.03590622248
0.03352071869
0.0309640875
0.02832516851
0.02569101209
0.02313165062
0.02070596661
0.01845196513
0.01639143593
0.01452508885
0.01284839585
0.0113517954
0.01002080567
0.008865348621
0.007847995297
0.006960095002
0.006188897698
0.005516788459
0.004928697533
0.004412097407
0.003955431813
0.00354943751
0.003193503386
0.002882690677
0.002610858887
0.002373713488
0.002164257072
0.001978275029
0.001812246538
0.001664992183
0.001533959698
0.001417725573
0.001314425166
0.001221417855
0.001136664484
0.001060020672
0.000990125092
0.0009261208722
0.0008677498963
0.0008150744997
0.0007669830448
0.00072237785
0.000681094008
0.0006425548935
0.0006066831485
0.0005735374542
0.0005425357909
0.0005143150711
0.0004886381061
0.0004646787905
0.0004422559147
0.0004209210354
0.0004004614632
0.0003811357796
0.0003629977055
0.0003459207655
0.0003296199611
0.0003139726056
0.0002988693835
0.0002843288229
0.0002702461839
0.0002565566966
0.0002433477355
0.0002306418516
0.0002185066622
0.0002061265604
0.0001938555493
0.0001825091939
0.0001713946967
0.000160271057
0.0001492396626
0.0001389207628
0.0001288535955
0.0001191491743
0.0001099859822
0.0001002275966
8.885086363e-05
0.0001602844519
0.0002455706461
0.0003723642706
0.000505574037
)


101
(
-0.315516138
-0.1558881864
-0.1339006294
-0.09963617039
-0.06891865462
-0.04415411051
-0.02430158333
-0.008179259766
0.00487843182
0.01538454213
0.02401600411
0.03087708518
0.03604998142
0.03983279067
0.04239628939
0.04388395385
0.04445130003
0.0442309332
0.04329090068
0.04182703363
0.0398568264
0.03751201389
0.03494570542
0.03224209183
0.02950276328
0.02680237574
0.02420653477
0.0217610875
0.01949813468
0.01742416948
0.01553999897
0.01384071643
0.01231438235
0.01097685773
0.009787349833
0.008738079758
0.007817906322
0.007011203626
0.006303842073
0.005682819426
0.00513142968
0.004636931837
0.004198103617
0.003810909634
0.003469564357
0.003170386396
0.002906216667
0.002671609377
0.002461420295
0.002274110978
0.00210586314
0.001955766863
0.001822586364
0.001702869665
0.001594150489
0.001494631505
0.001404680033
0.001321390293
0.001245531765
0.001176326774
0.001113700553
0.001055555648
0.001001644969
0.0009514269861
0.000904600165
0.000861023555
0.0008199846342
0.000782125476
0.0007472624709
0.0007153041282
0.0006855443094
0.0006575575143
0.00063032872
0.0006042149584
0.0005793710229
0.0005559702953
0.0005338841956
0.0005127699206
0.0004921265397
0.0004720861051
0.0004523500564
0.0004332712724
0.0004144992087
0.000396044954
0.0003786798207
0.0003612892838
0.0003431334821
0.0003259719642
0.0003093568878
0.0002928476392
0.000276055525
0.0002602151371
0.0002445179993
0.0002293393517
0.0002146762093
0.000199218468
0.0001816767735
0.0002947880935
0.0004232378889
0.0005903275401
0.0007596147192
)


101
(
-0.3155160202
-0.1547286806
-0.1328183192
-0.09870611912
-0.06801940153
-0.04316159582
-0.02314835134
-0.006829531972
0.006419369035
0.01712582613
0.02595069235
0.03307044522
0.03850344475
0.04253991447
0.04535847901
0.04709374402
0.04789848587
0.04790051439
0.04715709767
0.04586884498
0.04402087663
0.04175198198
0.03921251038
0.03648282179
0.03367250425
0.03085862381
0.02811351
0.02548993056
0.02303093637
0.02075034547
0.01865540379
0.01674604476
0.01501335231
0.01348045233
0.01210317571
0.01087533622
0.009787481578
0.008826923688
0.007982397823
0.007240774175
0.006581513869
0.005987176436
0.005454482092
0.00497861331
0.004554850464
0.004181212235
0.003850807602
0.003557509328
0.003294785483
0.003059603151
0.002846802837
0.002655890668
0.002486491863
0.002334183261
0.002196257969
0.002069988449
0.001955770292
0.001850034335
0.001752611087
0.00166332173
0.001582796572
0.001508297397
0.001438712505
0.001374440009
0.001314891593
0.001258406929
0.001205537451
0.001155667231
0.001109742145
0.001067590784
0.001028275744
0.0009917483628
0.0009565072941
0.0009223620415
0.000889174646
0.0008571841551
0.0008274448382
0.0007990415876
0.0007712484813
0.0007442271393
0.0007170097086
0.000690504315
0.0006644785921
0.0006385512457
0.0006133035325
0.0005889035414
0.0005637249273
0.0005384270102
0.0005142627232
0.0004907453932
0.0004660519114
0.0004429748087
0.000419107369
0.00039677516
0.0003748333875
0.0003520002987
0.0003257673375
0.0004826645768
0.0006530091117
0.0008534679236
0.001066715936
)


101
(
-0.3155159027
-0.153569161
-0.1317570984
-0.09781745593
-0.06718259661
-0.0422523282
-0.02209635466
-0.005590316498
0.007860637897
0.01877374885
0.02778099995
0.03516363561
0.04087591441
0.04518833102
0.04829153014
0.05030889893
0.05138938409
0.05165604256
0.05114967881
0.05007588358
0.04839090555
0.04623977442
0.04377238435
0.04105916064
0.03821726825
0.03532519406
0.03245724654
0.02967177285
0.02702460424
0.02454079123
0.02223635122
0.02011382233
0.01816478145
0.01642437489
0.01484514317
0.01342330162
0.0121505054
0.01101699361
0.01001604477
0.00913533042
0.008353123248
0.007646094711
0.00700803608
0.006431815243
0.005913121338
0.00545182676
0.005041915494
0.004678207399
0.004352365964
0.004059625314
0.003794759032
0.003555873364
0.003342410188
0.003150819509
0.002977982304
0.002820350626
0.00267698944
0.002544940006
0.002421860185
0.002308423045
0.002205072184
0.002110822833
0.002022666026
0.001941729116
0.001866450846
0.001794727249
0.001727327254
0.001663230812
0.001604133802
0.00154870676
0.001496913382
0.001448960348
0.001403184383
0.001359280672
0.0013160265
0.001272844143
0.001231943453
0.001192745556
0.001155707424
0.001118892591
0.001081718286
0.001044936286
0.001008429117
0.0009724768684
0.0009366244345
0.0009014709451
0.0008665000487
0.0008304622958
0.0007952351439
0.0007616959306
0.0007262165666
0.0006930565259
0.0006586724636
0.0006261437959
0.0005948948067
0.0005618672307
0.0005235150416
0.0007205619926
0.0009247018732
0.001148466316
0.001354828114
)


101
(
-0.3155161374
-0.1524086934
-0.1307160372
-0.09696917492
-0.06640701824
-0.04142493114
-0.0211430782
-0.00446027498
0.009204398956
0.02033411248
0.02951907719
0.03715720189
0.04316820443
0.04778203369
0.05119987864
0.05353356152
0.05492176361
0.05548730732
0.05525426531
0.05442129094
0.05294709738
0.05096519461
0.0486285477
0.04598096269
0.04315101649
0.04022271952
0.03726465543
0.03433958651
0.03151830243
0.02883891114
0.02632759121
0.02399080976
0.02181924685
0.01986146322
0.01806818029
0.01643928516
0.01496642785
0.01364136354
0.01246324811
0.01142335071
0.01049935286
0.00966409947
0.008908589828
0.008220670983
0.0075945401
0.007032065382
0.00652920439
0.006082690917
0.005681269045
0.005320354349
0.004994784392
0.004699986159
0.004433633986
0.004195195868
0.00397996768
0.003783560781
0.003605979649
0.003442888
0.003290313435
0.003147995001
0.003017192956
0.002898363577
0.002788577859
0.002687681437
0.002592180989
0.002503235486
0.002418004458
0.002336635434
0.00226018841
0.002187719793
0.00212014731
0.002056597566
0.001996461514
0.001939181723
0.001882920538
0.001825818822
0.001768617627
0.001714563374
0.001662971683
0.001612245636
0.001561939975
0.001510816531
0.001458610286
0.001408129592
0.001357587203
0.001307233582
0.001257200825
0.001206793407
0.001155500178
0.001107023265
0.001057330698
0.00100906655
0.0009614476601
0.0009146187426
0.0008705692929
0.0008240520319
0.0007711391655
0.0009996015135
0.001226706385
0.001470713742
0.001683668393
)


101
(
-0.3155161374
-0.1512461725
-0.1296849049
-0.09616016753
-0.06569113788
-0.04067697512
-0.02028582712
-0.003438186208
0.01044800917
0.02180825629
0.03117420954
0.03905430602
0.04538037463
0.05032199499
0.05408351408
0.05676767297
0.05849396484
0.05938922573
0.05946616773
0.05889508299
0.05768199704
0.05592361946
0.05377841822
0.05125123349
0.04847879809
0.04555890718
0.04255150876
0.0395200225
0.03654994084
0.03369113022
0.03097738826
0.0284244469
0.02602771515
0.02384573408
0.0218291883
0.01998336799
0.01829878519
0.01676589667
0.01538897047
0.01416654621
0.01307860987
0.01209731091
0.01121002285
0.01039838279
0.009652771525
0.008976176495
0.00836671715
0.007823305907
0.007333931866
0.006893858632
0.006496789308
0.006136827685
0.005809133479
0.005514742223
0.005248956189
0.005005812371
0.004787045393
0.004586312395
0.004399786081
0.004224117064
0.004061292237
0.003911839718
0.003775696181
0.003649770128
0.003529955665
0.003419555449
0.003312182599
0.003209106003
0.003110412601
0.003017243764
0.002928898401
0.002843943401
0.002763834089
0.002687034954
0.002611939359
0.002536848496
0.002460130999
0.002384190821
0.002310523546
0.002239777461
0.002170699043
0.002098864283
0.002025666029
0.001953539548
0.001881653043
0.001810053763
0.001737924506
0.001667088391
0.001593929913
0.001524041416
0.001455525962
0.001385916496
0.001319604598
0.001254060975
0.001191697107
0.001127689904
0.001056304398
0.001308495817
0.001552648096
0.001828392997
0.002096609997
)


101
(
-0.3155159027
-0.1500808061
-0.1286714445
-0.09538936074
-0.06503358215
-0.04000620641
-0.01952194918
-0.002522299224
0.01158195514
0.02318523587
0.03275402332
0.04086282025
0.04751591268
0.05280598296
0.05693227419
0.05999429382
0.06208887247
0.06334752114
0.06377854131
0.06351446509
0.06261055279
0.06112715608
0.05921973855
0.05687046247
0.0542036048
0.05133814997
0.0483294417
0.0452348264
0.0421513338
0.03913791639
0.0362331984
0.03346564019
0.03084349653
0.02843359194
0.02618656581
0.02411523175
0.02220958137
0.02045608304
0.01886158135
0.01743352524
0.01615803556
0.01500852558
0.01397139317
0.0130229844
0.01214715109
0.01134469037
0.01061391723
0.009957828315
0.009368666252
0.008838015848
0.008357681463
0.007921587462
0.007523087234
0.007162247203
0.006836620788
0.006540337086
0.006272436799
0.006025860542
0.005799849517
0.005587138274
0.005385020963
0.005199185261
0.005029103715
0.004870944814
0.004722021921
0.004582560483
0.004447733219
0.004317657576
0.004191551267
0.004071662841
0.00395441911
0.003841856252
0.003734432509
0.003630122253
0.003528473344
0.003428458393
0.003325867741
0.003220249846
0.003116899612
0.003016990374
0.002919453421
0.002819592757
0.002718231126
0.002616262156
0.002513760847
0.002413663678
0.002311476563
0.00221164985
0.002109539649
0.002010609091
0.001915728151
0.001818736308
0.001725988821
0.001635753598
0.001549362858
0.001462735684
0.001367494091
0.00164623651
0.001914772396
0.002248067058
0.002551744148
)


101
(
-0.315516138
-0.148911653
-0.1276836218
-0.0946558559
-0.06443283979
-0.03941057977
-0.01884891067
-0.001710139699
0.01260097911
0.02445411843
0.03426377664
0.04258961027
0.04957910957
0.05523362869
0.05973832905
0.06319778884
0.06568837721
0.06734342513
0.06817380728
0.06828980226
0.06774607134
0.06659234259
0.06495405799
0.06284021436
0.06033114173
0.05756693195
0.05460815323
0.05150075589
0.04834535901
0.04520886738
0.04213545833
0.03916391931
0.03631809418
0.03368050717
0.03120028381
0.02889705248
0.02676275778
0.02477959782
0.02295382649
0.0212999002
0.01981216892
0.01846901476
0.01726112463
0.01616090548
0.0151438264
0.01420466826
0.01333961192
0.01255604136
0.01185226655
0.01121770293
0.01064168042
0.01011821046
0.009638559067
0.009199417293
0.008801324462
0.008442382451
0.008117035291
0.007817727004
0.007544189653
0.007287841817
0.007041071859
0.00681220924
0.006598743986
0.006399313357
0.006213880179
0.006036888859
0.005867969451
0.00570366106
0.005542452819
0.00538557992
0.005231510079
0.005082978274
0.004937856907
0.004795795929
0.004658413128
0.004523759832
0.004386142757
0.004244326726
0.004101352598
0.003960926378
0.003824008808
0.003687747484
0.003548466979
0.003406389487
0.003264353241
0.003125758631
0.002985528208
0.002847135858
0.002707692521
0.002571264931
0.002440799134
0.002308744327
0.002183033386
0.002060469264
0.001944665824
0.001829166251
0.001705247231
0.00202857334
0.002345134113
0.002774541086
0.003170562325
)


101
(
-0.3155161377
-0.1477370974