/*--------------------------------*- C++ -*----------------------------------*\
| =========                 |                                                 |
| \\      /  F ield         | OpenFOAM: The Open Source CFD Toolbox           |
|  \\    /   O peration     | Version:  2.3.1                                 |
|   \\  /    A nd           | Web:      www.OpenFOAM.org                      |
|    \\/     M anipulation  |                                                 |
\*---------------------------------------------------------------------------*/
FoamFile
{
    version     2.0;
    format      ascii;
    class       dictionary;
    location    "constant";
    object      PM14;
}
// * * * * * * * * * * * * * * * * * * * * * * * * * * * * * * * * * * * * * //

PM14_table
101
(

101
(
-12807.04044
-478.3527221
-249.3332322
-165.1610105
-121.0269458
-93.72230691
-75.1592685
-61.37937439
-50.88702678
-42.56130872
-35.82372591
-30.2561243
-25.65903826
-21.69082629
-18.37655027
-15.56159346
-13.12723167
-10.9996708
-9.286750805
-7.659694559
-6.37534412
-5.281983615
-4.271469108
-3.437906559
-2.739898283
-2.142780222
-1.632856325
-1.200250119
-0.824686352
-0.5074591125
-0.2360814727
-0.008226445167
0.1723812398
0.3669767
0.5096268719
0.6317617556
0.7343299444
0.8177141018
0.8931011251
0.9625233953
1.020248303
1.061701447
1.100798747
1.132880708
1.156888142
1.178582731
1.194829983
1.208952748
1.219158967
1.227445491
1.232679082
1.236110321
1.237807247
1.237903525
1.236567375
1.234096761
1.231395183
1.226976239
1.2224349
1.217019024
1.211285209
1.205049223
1.198450153
1.191633396
1.184574816
1.177376075
1.170027738
1.162595312
1.155163025
1.14768531
1.140226744
1.132822393
1.125527863
1.118291304
1.11117011
1.104108727
1.097215414
1.090482166
1.083941973
1.07759183
1.071455582
1.065564983
1.059906084
1.054526103
1.049357875
1.044443517
1.039868437
1.03558491
1.031650464
1.027991007
1.024667687
1.021577355
1.018831148
1.016338313
1.014111171
1.0121898
1.010689969
1.018119697
1.02494407
1.031340157
1.037179674
)


101
(
-12807.04046
-478.2463434
-249.2825979
-165.1785126
-121.0886218
-93.81563299
-75.27528769
-61.52089403
-51.04206182
-42.7287725
-35.9987417
-30.43666661
-25.83877972
-21.87642596
-18.55647786
-15.73650104
-13.29883616
-11.16826618
-9.437088666
-7.816509043
-6.512375062
-5.407979803
-4.396999379
-3.551201179
-2.841872057
-2.236015409
-1.717992783
-1.277397607
-0.895672184
-0.5714906692
-0.2941760651
-0.06031968353
0.1275837586
0.319683122
0.4695819901
0.5960465243
0.7024541573
0.7897433593
0.8670618401
0.937603214
0.9975076383
1.042551167
1.082869622
1.116594707
1.142691169
1.165404666
1.183098782
1.198087759
1.20942605
1.21849739
1.224699832
1.228892746
1.231290781
1.232054687
1.231348188
1.229431501
1.227039628
1.223221421
1.21899177
1.213976749
1.20853916
1.202610808
1.196290944
1.189708501
1.182870912
1.175865748
1.168701464
1.161432975
1.154134762
1.146791514
1.139445709
1.132139315
1.124922919
1.117766892
1.110711945
1.103728849
1.096898159
1.090208501
1.083703795
1.077384711
1.071274863
1.065402246
1.059758598
1.054385995
1.049248512
1.044347043
1.039771639
1.035489278
1.031553525
1.027882263
1.024584739
1.021491014
1.018733721
1.016252097
1.014015273
1.012123369
1.010621198
1.01804248
1.024858071
1.031241839
1.037069064
)


101
(
-12807.04046
-478.0315985
-249.1797536
-165.211991
-121.2105002
-94.00078555
-75.50587242
-61.80219554
-51.35102315
-43.06273507
-36.34831094
-30.79766036
-26.19900747
-22.24797527
-18.91831958
-16.08857629
-13.64438259
-11.50812103
-9.743097281
-8.131780448
-6.792680176
-5.665008078
-4.651029053
-3.783222155
-3.051395342
-2.427482581
-1.893049036
-1.436430628
-1.04189996
-0.7039216655
-0.4143910957
-0.1684036609
0.03380831569
0.2238497254
0.3856601602
0.5212276627
0.6356447447
0.7308785176
0.8128638739
0.886148255
0.9501403924
1.001792814
1.045349226
1.082415383
1.112552835
1.137729426
1.158283003
1.175259034
1.188842035
1.199643631
1.207766469
1.213580263
1.217447294
1.219593195
1.220190614
1.219444114
1.217815008
1.215121766
1.211635209
1.207430095
1.202645508
1.197355146
1.191621677
1.185545505
1.179176057
1.172586755
1.165811309
1.158893369
1.151890867
1.144831271
1.13773206
1.130641543
1.123602745
1.116617711
1.109708872
1.102881883
1.096185927
1.089601755
1.08318232
1.076934184
1.070884784
1.065057616
1.059451354
1.054100272
1.049012277
1.044147113
1.039583529
1.035306106
1.031373476
1.027690622
1.024420344
1.02133619
1.018564626
1.016093162
1.013855502
1.012004243
1.010501476
1.017911431
1.02471573
1.031087199
1.036901927
)


101
(
-12807.04046
-477.8128313
-249.0738038
-165.242469
-121.329559
-94.18315256
-75.7337822
-62.08021988
-51.65775151
-43.39453295
-36.69637626
-31.15752318
-26.55938267
-22.61848608
-19.28183359
-16.44270254
-13.991761
-11.84996331
-10.05626526
-8.447011519
-7.081113494
-5.928838111
-4.907432422
-4.021747294
-3.268387006
-2.625639249
-2.074446639
-1.601854256
-1.193776086
-0.8423055335
-0.5401846665
-0.2819948422
-0.06627345222
0.1270955252
0.2968806815
0.4415707103
0.5642578142
0.6674826449
0.7554406806
0.8325880677
0.9003868022
0.9574486273
1.005293667
1.04590449
1.079790876
1.108033758
1.131429001
1.150781627
1.166599869
1.179368884
1.18938665
1.196945533
1.202382101
1.205973398
1.20792523
1.208427592
1.207798395
1.206122449
1.203539331
1.200165468
1.196124405
1.19151188
1.186404663
1.180890738
1.175029974
1.168900286
1.162545317
1.156011078
1.149347822
1.142595757
1.135774483
1.128931421
1.122106943
1.115312175
1.108570429
1.10189942
1.095349764
1.088895125
1.082584139
1.076424002
1.070447866
1.064681739
1.05912524
1.053809265
1.048756332
1.043932816
1.039401029
1.035137395
1.031213642
1.027534244
1.02426732
1.021200294
1.018433593
1.015960912
1.013736683
1.011903992
1.010399282
1.017808808
1.024613209
1.030989063
1.036808737
)


101
(
-12807.03928
-477.5899167
-248.9646686
-165.2698865
-121.4457505
-94.36270133
-75.95898216
-62.35495193
-51.96214272
-43.72412433
-37.04285339
-31.51619224
-26.91975119
-22.98805085
-19.64665282
-16.79879572
-14.34097994
-12.19372555
-10.3757037
-8.763470017
-7.376210789
-6.199685198
-5.1672589
-4.265938247
-3.49253217
-2.830704276
-2.262362335
-1.773723047
-1.351577556
-0.9866758577
-0.6717908144
-0.4012743617
-0.1725002083
0.02755920439
0.2042601051
0.3572709428
0.4882053119
0.5994507817
0.6941666626
0.776237233
0.8481483396
0.9099902773
0.9623704403
1.006869032
1.04447032
1.076046217
1.102445112
1.124423907
1.142610079
1.157508686
1.169503732
1.178900786
1.186014031
1.19113611
1.19450559
1.196322264
1.196838384
1.196219378
1.194610978
1.19213126
1.188903025
1.185029013
1.180597483
1.175697004
1.170391188
1.164764227
1.158867631
1.152752342
1.146466975
1.140055184
1.133541399
1.12697536
1.120397205
1.113821089
1.107272195
1.100772804
1.09437921
1.088067847
1.081884903
1.075833296
1.069946572
1.064254965
1.058761805
1.053496203
1.048482853
1.043696721
1.039203904
1.034968412
1.031059499
1.027389849
1.02412967
1.021069855
1.018316819
1.015847522
1.013630475
1.011811955
1.010307265
1.017725156
1.024536537
1.030910518
1.036727965
)


101
(
-12807.04046
-477.3629219
-248.8523563
-165.2942443
-121.5590739
-94.53943179
-76.18146565
-62.62639869
-52.26411511
-44.05147459
-37.38767022
-31.8736116
-27.27997513
-23.35674405
-20.012474
-17.15674042
-14.69203765
-12.53935774
-10.70065572
-9.08205624
-7.677004699
-6.477462872
-5.431372227
-4.515401553
-3.723450527
-3.042756343
-2.456976878
-1.952133286
-1.515522169
-1.137119834
-0.8093879959
-0.5264444364
-0.2848581412
-0.07598604214
0.1079106705
0.2685969621
0.4075466593
0.5267370669
0.6286428858
0.7164831
0.7930747416
0.8595579025
0.9164952642
0.9651185085
1.006537229
1.041614555
1.071194349
1.096009258
1.116734866
1.133918328
1.148008464
1.159346593
1.168245527
1.17500056
1.17987075
1.183073492
1.184837556
1.185353079
1.184786088
1.183265427
1.18091645
1.177845629
1.174148318
1.169916485
1.165216672
1.160138532
1.154741601
1.14908349
1.143214456
1.137179523
1.13100598
1.124747227
1.118445212
1.112116617
1.105788482
1.099484782
1.09326474
1.087110186
1.081070235
1.075145643
1.069366813
1.063764838
1.05834786
1.053146449
1.048184704
1.043440361
1.03898621
1.034787429
1.030903852
1.027250225
1.024001654
1.020949833
1.018206483
1.015744926
1.013533222
1.011730963
1.010233387
1.017652439
1.024464875
1.030839951
1.036658779
)


101
(
-12807.04046
-477.1315625
-248.7367336
-165.3154486
-121.6694589
-94.71329033
-76.40118359
-62.8945321
-52.56356118
-44.37651829
-37.73073487
-32.22970148
-27.63991189
-23.72460943
-20.37903001
-17.51639498
-15.04491381
-12.88682399
-11.03046129
-9.403375201
-7.982870531
-6.761912277
-5.700420331
-4.770020352
-3.960789804
-3.261752313
-2.65843558
-2.137209573
-1.685789723
-1.293736593
-0.9531044372
-0.6576913703
-0.4034376269
-0.1843993338
0.007528552795
0.1757801349
0.3224266992
0.4493769921
0.5586480161
0.6528531703
0.7347333984
0.8060409753
0.867596245
0.9205054812
0.9658815989
1.004609961
1.037539344
1.065382434
1.088829003
1.108458324
1.124774732
1.13816653
1.148963196
1.157462282
1.163933456
1.16861033
1.171716252
1.173451002
1.173998589
1.173503538
1.172098922
1.169896157
1.166995757
1.16349264
1.159455412
1.154977207
1.150124979
1.144964602
1.139551263
1.13393196
1.128135112
1.122217071
1.116222317
1.110170524
1.104091345
1.098010479
1.0919881
1.086008994
1.080127183
1.074345933
1.068693403
1.063198756
1.057872166
1.05274813
1.047851112
1.043159149
1.03874814
1.034588762
1.0307388
1.027108514
1.023876248
1.02083626
1.018102629
1.015650395
1.013445364
1.011669469
1.010169627
1.017585073
1.024396396
1.030787915
1.03662501
)


101
(
-12807.04046
-476.8957866
-248.6177593
-165.3334651
-121.7768783
-94.88425699
-76.61811485
-63.15934721
-52.86039604
-44.69920217
-38.07196924
-32.58439331
-27.99942956
-24.09167578
-20.74608554
-17.87759371
-15.39956937
-13.23608867
-11.36456007
-9.727778658
-8.293392937
-7.052718782
-5.974841938
-5.029842416
-4.204279291
-3.487578266
-2.866828956
-2.329091265
-1.86255696
-1.456643432
-1.103033337
-0.7951456121
-0.5283578761
-0.2983192919
-0.09740250479
0.07872730001
0.2329517715
0.3674595513
0.4840917207
0.5850153775
0.6727131932
0.7491888581
0.8155342538
0.8728918186
0.9223764172
0.964900552
1.001337246
1.032388622
1.058743126
1.080992901
1.099679357
1.115242505
1.12804805
1.138404116
1.146585344
1.152837165
1.157384975
1.160432205
1.162176397
1.162778597
1.162384401
1.161114308
1.159074342
1.156363088
1.15304996
1.149229221
1.144972443
1.140354059
1.135437325
1.130273858
1.124893182
1.11935291
1.113699658
1.107956099
1.102155253
1.096325438
1.090527906
1.084748253
1.079044126
1.073423233
1.06791496
1.06254615
1.057326478
1.052293644
1.047474671
1.042847647
1.038488931
1.034373772
1.030562743
1.026963144
1.023752657
1.020728076
1.018005744
1.015563908
1.013366343
1.011605174
1.010112799
1.01753617
1.024359912
1.030790101
1.036671486
)


101
(
-12807.03808
-476.6554248
-248.4953171
-165.3482107
-121.8812692
-95.05228389
-76.83221635
-63.42082114
-53.1545235
-45.01945694
-38.4112827
-32.9376065
-28.358392
-24.45795355
-21.11343905
-18.24015644
-15.75594612
-13.58711699
-11.70247929
-10.05545781
-8.608285675
-7.349539744
-6.254906034
-5.295008787
-4.453744215
-3.720086031
-3.082180294
-2.527896261
-2.045998265
-1.625980876
-1.259272394
-0.9389031971
-0.6597084385
-0.4182050813
-0.2074477272
-0.02285871627
0.1390903433
0.2810507018
0.4049648275
0.5127684087
0.6066733731
0.6886993768
0.7600970649
0.8221078339
0.8758788522
0.9223533535
0.9624478759
0.9968731419
1.026316723
1.051371364
1.072595081
1.090464269
1.105389533
1.117710848
1.127712427
1.13564568
1.141741264
1.146205331
1.149240244
1.151021484
1.151709861
1.15143873
1.150322947
1.148467424
1.145943345
1.142843995
1.139241335
1.135215909
1.130840079
1.126174006
1.121250889
1.116128783
1.110855089
1.105454681
1.099964033
1.094414994
1.088871154
1.083318572
1.077816276
1.072375666
1.067030222
1.061806496
1.056712141
1.051785965
1.047058601
1.042509777
1.038215271
1.03415227
1.030385256
1.026822326
1.023639496
1.020634423
1.017924724
1.015493596
1.013303314
1.011543953
1.010067183
1.017518803
1.024380096
1.030897225
1.036887849
)


101
(
-12807.0381
-476.4104903
-248.369427
-165.3596916
-121.9826344
-95.21737447
-77.04348638
-63.67896516
-53.44587994
-45.33723348
-38.74860537
-33.28927569
-28.71668085
-24.82344651
-21.48092571
-18.60390972
-16.11397643
-13.9398845
-12.04381538
-10.38647852
-8.927342657
-7.652044228
-6.54074356
-5.565677643
-4.709086058
-3.959119259
-3.304460599
-2.733715351
-2.236276978
-1.801903199
-1.421926375
-1.089041409
-0.7975619521
-0.5443738768
-0.3231317409
-0.1294098717
0.04065132657
0.1901432193
0.3212860626
0.4360119835
0.5363664634
0.62428327
0.7010342296
0.7679482026
0.8262179728
0.8768205706
0.9207297496
0.9586897884
0.9913948323
1.019434609
1.043375512
1.06371182
1.080887862
1.095283529
1.107212187
1.11693472
1.124686508
1.130676648
1.135106923
1.138161991
1.140015762
1.140816475
1.140691337
1.139755464
1.138085629
1.135775229
1.13289286
1.129520072
1.125736297
1.121612198
1.117189053
1.112527649
1.107675108
1.102656895
1.097512057
1.092276287
1.087016503
1.081720677
1.076448238
1.071211982
1.066049776
1.060991471
1.056042672
1.0512414
1.046620529
1.042163656
1.037946943
1.033946723
1.030231079
1.026710593
1.023560786
1.020579583
1.017885367
1.01546488
1.013281783
1.011533096
1.01005714
1.017574057
1.024513647
1.031170364
1.037285829
)


101
(
-12807.0422
-476.1609529
-248.2400598
-165.3678804
-122.0809518
-95.37951343
-77.25190884
-63.93377896
-53.73439646
-45.65247204
-39.08386119
-33.63932675
-29.0741789
-25.18813244
-21.84838976
-18.96867545
-16.4735725
-14.29435389
-12.38824476
-10.72080001
-9.250384535
-7.959926507
-6.832378474
-5.842001783
-4.970288497
-4.204548795
-3.533605402
-2.946605216
-2.433547157
-1.98458274
-1.591122015
-1.245631061
-0.9419504669
-0.6770245809
-0.4448742341
-0.2413963291
-0.06269114714
0.09460598199
0.2330314482
0.3546966198
0.4616264409
0.5556855593
0.6380895489
0.7101825001
0.7731973718
0.8281398228
0.8760373959
0.9176897354
0.9538256783
0.9850287193
1.011868806
1.034846705
1.054429673
1.071028919
1.084994245
1.096612428
1.106126948
1.113754106
1.119690607
1.124124664
1.127238832
1.129194702
1.130133501
1.130183319
1.12943164
1.127976655
1.125884599
1.123232283
1.120101018
1.11657019
1.112691972
1.108534613
1.104146852
1.099553542
1.094794442
1.08990823
1.084965389
1.079957438
1.074945453
1.069942262
1.064987486
1.060116302
1.055335475
1.050680579
1.046184276
1.041834417
1.037710449
1.033787036
1.030133448
1.026663096
1.023552796
1.020601632
1.017927436
1.015518578
1.013343412
1.011605884
1.010127568
1.017755729
1.024822479
1.031672863
1.037982195
)


101
(
-12807.03995
-475.9063542
-248.1069496
-165.3725935
-122.1760835
-95.53859457
-77.45739432
-64.18520168
-54.01995688
-45.96506727
-39.41693499
-33.98764974
-29.43074424
-25.55196028
-22.21567334
-19.33425751
-16.83461198
-14.65047506
-12.73547273
-11.05832868
-9.577240627
-8.272862133
-7.129733718
-6.124087867
-5.23738571
-4.456288829
-3.769531325
-3.166578331
-2.637934219
-2.174197554
-1.767009796
-1.408763714
-1.09290864
-0.8162666972
-0.5729812922
-0.3592596563
-0.171348811
-0.005811284206
0.1401089611
0.2687735347
0.3823464605
0.4827108135
0.5710227276
0.6485717288
0.7165981122
0.7761237839
0.8282173225
0.873733317
0.9134589491
0.9479967168
0.9779181045
1.003720804
1.02588183
1.044836006
1.060965588
1.074589798
1.085972997
1.095345357
1.102900594
1.108825517
1.113304958
1.116510661
1.118596644
1.119704599
1.119936344
1.119400626
1.118167149
1.116307257
1.113897608
1.111020229
1.107737857
1.104129982
1.100251519
1.096128003
1.091798392
1.087302432
1.082713563
1.078026729
1.07330744
1.068569051
1.063850547
1.059190908
1.054602006
1.050117649
1.045768953
1.041544512
1.037529652
1.033699837
1.030122827
1.02671411
1.023652796
1.020740466
1.018094102
1.015700972
1.013536733
1.011805929
1.010330666
1.018123118
1.025366372
1.032438977
1.038972722
)


101
(
-12807.03836
-475.6466926
-247.9701039
-165.3738291
-122.2680255
-95.69461635
-77.6599387
-64.43324349
-54.30250835
-46.27496366
-39.74775372
-34.33417213
-29.78626472
-25.91489835
-22.58266122
-19.70047994
-17.19697569
-15.00820494
-13.08526378
-11.39893524
-9.907750901
-8.590572519
-7.432677334
-6.41198924
-5.510432557
-4.714305771
-4.012163608
-3.393614434
-2.849525667
-2.37091965
-1.949771171
-1.578556952
-1.250472983
-0.962150481
-0.7076505327
-0.4833649913
-0.2857479975
-0.1114554658
0.04231757518
0.1781545927
0.2984522325
0.405220458
0.4996191319
0.5828802065
0.6561900474
0.7205610697
0.7770891478
0.8266686772
0.8701539672
0.90819172
0.9413663114
0.9701758765
0.9950976444
1.016575018
1.035015681
1.050771661
1.064135287
1.07535826
1.084642675
1.092172325
1.098128393
1.102689071
1.10601723
1.108266283
1.109552448
1.110000204
1.109689605
1.108692257
1.107077131
1.104922353
1.10229557
1.099287765
1.095964343
1.092356128
1.088502136
1.084441215
1.080247846
1.075919721
1.07152685
1.067086655
1.062637064
1.058217686
1.053845673
1.049557616
1.045382963
1.041307167
1.037420178
1.033702572
1.030220308
1.026889412
1.023890419
1.021028111
1.01842016
1.016052866
1.013905181
1.01218812
1.01072286
1.018720228
1.026171965
1.03345033
1.040178808
)


101
(
-12807.03358
-475.3816422
-247.8293426
-165.3714594
-122.3566805
-95.84750415
-77.85947905
-64.67786592
-54.58196086
-46.5820705
-40.07621312
-34.67879074
-30.14060979
-26.27688257
-22.94922604
-20.06715586
-17.56052167
-15.36746595
-13.43742447
-11.74246824
-10.24174036
-8.912777232
-7.741014938
-6.705692155
-5.789462439
-4.978570296
-4.261420031
-3.627657903
-3.068363863
-2.574895963
-2.139600886
-1.755176004
-1.414724687
-1.11471067
-0.8489881416
-0.6139759458
-0.4062839319
-0.2227393743
-0.06063778847
0.08268282145
0.2098522713
0.3231082641
0.4237076951
0.5128856264
0.5917405962
0.6612255706
0.7224468519
0.7763199366
0.823755919
0.8654647441
0.9020644926
0.9340551467
0.9619173608
0.9860981909
1.007012345
1.025042483
1.040510159
1.053696251
1.06481841
1.074064897
1.081612362
1.087639403
1.092314839
1.095800214
1.098223176
1.099724161
1.100400082
1.100330602
1.099581906
1.098223844
1.096320686
1.09397128
1.091252602
1.088205731
1.08487395
1.081295436
1.077543573
1.073615809
1.069586295
1.065478944
1.061332925
1.057186362
1.053059293
1.048994028
1.045019637
1.041118955
1.037383093
1.033797293
1.030430536
1.027197003
1.02427646
1.021479403
1.018921094
1.016593365
1.014472263
1.012783618
1.011332854
1.01953557
1.027187545
1.034626588
1.041574139
)


101
(
-12807.02881
-475.1112392
-247.6846665
-165.3654767
-122.4420398
-95.99725239
-78.05600902
-64.91907768
-54.85826808
-46.88633001
-40.40223764
-35.02142556
-30.49367078
-26.63785847
-23.31525797
-20.43412132
-17.92510364
-15.72818806
-13.79178179
-12.08879659
-10.57905409
-9.239208886
-8.054521115
-7.005129211
-6.074489916
-5.249068178
-4.517233772
-3.868638061
-3.294449891
-2.786238156
-2.336688426
-1.938811317
-1.58579003
-1.274003297
-0.9970501393
-0.7512561586
-0.5332670842
-0.3400650464
-0.1691315183
-0.01790200687
0.1164095491
0.236279731
0.3431636292
0.4383907092
0.523016639
0.5978849673
0.6640655255
0.7224860533
0.7740924992
0.819654869
0.8598509439
0.8952011129
0.9261819882
0.953245842
0.9768112194
0.9972709928
1.014978977
1.030250451
1.043322737
1.0543991
1.063654207
1.071262089
1.077395638
1.082222425
1.085878038
1.088514037
1.090245311
1.091167453
1.091352661
1.090864751
1.089759249
1.088135111
1.086077813
1.083640812
1.080877063
1.077828115
1.074566017
1.071084137
1.067459303
1.063720141
1.059912991
1.056074731
1.052223536
1.04840837
1.044661647
1.040962985
1.03740277
1.033970233
1.030738981
1.027622646
1.024798596
1.022082554
1.019589705
1.017314247
1.015233324
1.013585658
1.012155117
1.020535304
1.028345373
1.035865934
1.042788893
)


101
(
-12807.03834
-474.8358213
-247.5362555
-165.3559934
-122.5241832
-96.14392501
-78.24957948
-65.15693536
-55.13142855
-47.18771936
-40.72578237
-35.3620213
-30.84536093
-26.99778368
-23.68067503
-20.80123508
-18.29058214
-16.09029501
-14.14820862
-12.43779305
-10.91954938
-9.569632736
-8.372951039
-7.310185475
-6.365511392
-5.525802955
-4.779559315
-4.116468972
-3.527733961
-3.005003148
-2.541205021
-2.129680354
-1.763831981
-1.440113863
-1.151881817
-0.8952948578
-0.6669103352
-0.4637743087
-0.2835697529
-0.1239367462
0.01790556067
0.144611409
0.2578828591
0.3592429375
0.4497991089
0.5302955766
0.6017075501
0.6649404372
0.720964758
0.7705899751
0.814560372
0.8534434811
0.8877255715
0.9178549151
0.9442535306
0.9673167917
0.9874141118
1.004899867
1.020041379
1.033062855
1.044142652
1.05344973
1.06115695
1.06743635
1.072429653
1.076296494
1.079163763
1.081146485
1.082330304
1.082781823
1.082549581
1.08172438
1.080394328
1.078621678
1.07647215
1.0739981
1.071272452
1.068286302
1.065110201
1.061777138
1.058343905
1.054849325
1.051307153
1.047770431
1.044277592
1.040808455
1.037447906
1.034190539
1.031113372
1.028131967
1.025423731
1.022801131
1.020390965
1.018180003
1.016150703
1.014548821
1.013158115
1.021658551
1.029559663
1.03708052
1.04394778
)


101
(
-12807.03834
-474.5543281
-247.3834748
-165.342626
-122.6028229
-96.28729765
-78.44000758
-65.39130068
-55.40127958
-47.48607637
-41.04668057
-35.70041348
-31.19550398
-27.35652941
-24.04533287
-21.16828863
-18.65676191
-16.45364096
-14.50653887
-12.78929932
-11.26305981
-9.903776918
-8.696010933
-7.620658085
-6.662464098
-5.808769859
-5.048364985
-4.371069231
-3.768129498
-3.231182584
-2.753268063
-2.328003382
-1.949080522
-1.613187243
-1.313554027
-1.046143735
-0.8073351093
-0.5941282843
-0.4043348431
-0.2358207929
-0.08597835813
0.04792061591
0.1677583382
0.2753277554
0.3719039428
0.4582153473
0.5351237404
0.6034431605
0.6641460867
0.7180685919
0.7660128073
0.808606671
0.8463696217
0.8797503447
0.9091680334
0.9350175574
0.9576732316
0.977517503
0.994852494
1.009934382
1.022955371
1.034083136
1.043484053
1.051332375
1.057774815
1.062977524
1.067074811
1.070197391
1.072449035
1.073907948
1.074621135
1.074671199
1.074142181
1.07309788
1.071613611
1.069758196
1.067614508
1.065171675
1.062492043
1.059607536
1.056582586
1.053463446
1.050266168
1.04703734
1.043822218
1.040607369
1.037470706
1.034408212
1.031502932
1.02867239
1.02609741
1.023579773
1.021261691
1.019127783
1.017155731
1.015606444
1.014265906
1.022809109
1.030722645
1.03819185
1.045077167
)


101
(
-12807.02881
-474.2665856
-247.2262901
-165.3252952
-122.6778958
-96.42732136
-78.62725349
-65.6221541
-55.66776189
-47.78132552
-41.36483866
-36.03650003
-31.54397537
-27.71400674
-24.40913361
-21.53512437
-19.02346986
-16.81810235
-14.86662627
-13.14316828
-11.60944137
-10.24142181
-9.023416898
-7.936310612
-6.965235095
-6.097959676
-5.32364745
-4.632383551
-4.015537633
-3.464712493
-2.972926827
-2.533951752
-2.141773999
-1.793427523
-1.482178863
-1.203858139
-0.9546185715
-0.7313056873
-0.531738014
-0.3539655384
-0.1956258918
-0.05407924221
0.07262447361
0.1865364667
0.289197261
0.3814366294
0.4640586892
0.5377412413
0.6033963568
0.6618713896
0.7140101481
0.7605041586
0.8019279858
0.838746511
0.8713756304
0.9002026087
0.9255993527
0.9479640906
0.9676299065
0.9848935867
0.9999718754
1.013040257
1.024257741
1.03379495
1.041802462
1.048452075
1.053884075
1.058238616
1.061636711
1.064173465
1.065901137
1.066901495
1.067251197
1.067009201
1.066252583
1.065063061
1.063542004
1.061685246
1.059551249
1.057161591
1.054581125
1.051868221
1.049048209
1.046159187
1.043245453
1.040306502
1.037416966
1.034567618
1.031849443
1.029183679
1.026752617
1.024352631
1.022129764
1.020079832
1.018169594
1.016679114
1.015385208
1.023900853
1.031762695
1.039158252
1.045927547
)


101
(
-12807.03836
-473.9734454
-247.0652139
-165.3042882
-122.7496099
-96.56416043
-78.81144867
-65.84962256
-55.93094458
-48.0735005
-41.68025781
-36.37025852
-31.89072143
-28.0701847
-24.77203332
-21.90165143
-19.39057107
-17.18357203
-15.22837055
-13.49928949
-11.95858118
-10.58240224
-9.354908018
-8.256892636
-7.273658708
-6.393319516
-5.605415948
-4.900399346
-4.269884576
-3.705498219
-3.200160113
-2.747641637
-2.342139411
-1.981098734
-1.657948165
-1.368541071
-1.108817032
-0.8753965351
-0.6659936135
-0.4787302686
-0.3114636134
-0.1617705591
-0.02777032773
0.09273312578
0.2015667429
0.2997943601
0.3882727689
0.4675650987
0.5384563636
0.6017575762
0.6583366753
0.7089376349
0.7542040396
0.7946450828
0.830679521
0.862686501
0.8910215675
0.9160880655
0.9382391168
0.9578134952
0.9750685662
0.9901960709
1.003354817
1.014705512
1.024398162
1.03261063
1.039488638
1.04517798
1.049812023
1.053502687
1.056315861
1.058338586
1.059642755
1.060281709
1.060327142
1.059862347
1.059006248
1.05777525
1.056230292
1.05438236
1.052288909
1.050015949
1.047600457
1.045081854
1.04249772
1.039853231
1.037231947
1.034614544
1.032096647
1.029607234
1.027327467
1.025053859
1.022931771
1.020966614
1.019122593
1.017686149
1.016436103
1.024879418
1.032658377
1.039991735
1.046708077
)


101
(
-12807.03835
-473.6736328
-246.8995019
-165.2791495
-122.8176217
-96.69754545
-78.9923723
-66.07353714
-56.19064934
-48.36242141
-41.99275377
-36.70150305
-32.23554591
-28.42490015
-25.13387804
-22.26768098
-19.75784666
-17.54984413
-15.59157025
-13.85750576
-12.31034141
-10.92651941
-9.690206252
-8.58208906
-7.587487396
-6.694715021
-5.89363905
-5.175115731
-4.531117047
-3.953420661
-3.434869192
-2.969088585
-2.550346322
-2.176462998
-1.841116138
-1.540351562
-1.270007495
-1.026457478
-0.8072310122
-0.6103757317
-0.4338847731
-0.2755782372
-0.1337827722
-0.006306778286
0.1088895878
0.2131632914
0.3075688362
0.3926483554
0.4690504584
0.5374646028
0.5987523261
0.653691818
0.7029926455
0.7472335588
0.7868640357
0.8222534147
0.8537399566
0.8817122103
0.906527631
0.9285584646
0.9481127213
0.9654170483
0.9806393967
0.993933334
1.005438346
1.015333769
1.023772599
1.030907027
1.036876697
1.041808251
1.045783634
1.048899313
1.051230289
1.052827915
1.053755151
1.054087102
1.053951477
1.053386445
1.052468393
1.051206317
1.049647383
1.047852189
1.045869667
1.043750194
1.041526271
1.03919707
1.036861998
1.03449632
1.032192379
1.029889273
1.02777008
1.025631244
1.023615041
1.021736055
1.019958408
1.018573572
1.01735818
1.025725044
1.033432206
1.040742604
1.047474639
)


101
(
-12807.03834
-473.3672814
-246.7289839
-165.2499093
-122.8819493
-96.82749065
-79.17003735
-66.29392218
-56.44686516
-48.64805119
-42.30226575
-37.0301536
-32.57834395
-28.77806358
-25.49458366
-22.63309387
-20.12514185
-17.9167561
-15.95606206
-14.21766638
-12.66459848
-11.27363628
-10.02909851
-8.91161288
-7.90644814
-7.001967149
-6.188248073
-5.456533831
-4.799232495
-4.2084078
-3.676932001
-3.19824417
-2.766490739
-2.379746796
-2.031985756
-1.719539289
-1.438342239
-1.184557303
-0.9555094482
-0.7490697447
-0.5632106173
-0.3959315276
-0.2458437525
-0.1109072011
0.01098189871
0.1214290191
0.221801608
0.3127608583
0.3948915425
0.4687152079
0.5350030132
0.5945369312
0.648086585
0.6963063468
0.7397075006
0.7786774135
0.8135287299
0.8446297558
0.8723167025
0.8969806633
0.9189712301
0.9385715877
0.9559754092
0.9713388586
0.9847890305
0.9964959445
1.006616646
1.015311365
1.022725868
1.028996517
1.034219027
1.038502497
1.041932418
1.044562974
1.046451407
1.047660681
1.048314024
1.048465261
1.048215053
1.047579659
1.046600741
1.045326601
1.04381091
1.04212076
1.040287322
1.038302137
1.036272069
1.03417894
1.032106258
1.030001636
1.028054121
1.026061255
1.024156893
1.02236605
1.020656995
1.019320614
1.018137895
1.026455298
1.03413275
1.041482438
1.048268639
)


101
(
-12807.03608
-473.0520586
-246.5537506
-165.2164704
-122.9425163
-96.95393597
-79.34439501
-66.51075219
-56.69954254
-48.93032
-42.60870422
-37.35610417
-32.91898672
-29.12956103
-25.85404386
-22.99776058
-20.49229292
-18.28413181
-16.32167069
-14.57960252
-13.02121177
-11.62362673
-10.37139928
-9.245203562
-8.230245966
-7.314832452
-6.489118218
-5.74463857
-5.074259316
-4.470443438
-3.926238519
-3.434975951
-2.990556694
-2.59111233
-2.23083607
-1.906416731
-1.61404154
-1.349832665
-1.110899972
-0.8949048377
-0.6996550241
-0.5232034393
-0.3644137351
-0.2214934338
-0.09245325824
0.02443785008
0.130849383
0.227726177
0.3157105156
0.3951994754
0.4667999792
0.5312222346
0.589266378
0.6416596554
0.6889985128
0.7317227766
0.7701450499
0.8046015168
0.8353905652
0.8628948316
0.8874912789
0.9095204874
0.9292264159
0.9467802396
0.9623059078
0.975960439
0.987894041
0.9982702532
1.007245799
1.014963507
1.021529293
1.027064853
1.031667724
1.035402428
1.038328359
1.040497643
1.042020183
1.04295404
1.043421683
1.043455793
1.043100324
1.042395776
1.041388625
1.040161063
1.038751485
1.037143921
1.035444057
1.033647333
1.031829103
1.029941021
1.02818057
1.026345846
1.024565244
1.022869216
1.021237063
1.019954479
1.018807677
1.027124677
1.034831338
1.04228798
1.049191753
)


101
(
-12807.02426
-472.729375
-246.3737068
-165.1786112
-122.9991505
-97.07674503
-79.5153337
-66.72394828
-56.94858915
-49.20912083
-42.91194659
-37.67921863
-33.25731667
-29.47924583
-26.21212678
-23.36153448
-20.85911959
-18.65177959
-16.6881811
-14.94312542
-13.38003998
-11.97635827
-10.71693634
-9.582610211
-8.558571043
-7.633013112
-6.796043166
-6.039353716
-5.356208755
-4.739539244
-4.182728226
-3.67913999
-3.222422508
-2.810589828
-2.437866565
-2.101307047
-1.797422702
-1.522499539
-1.273518318
-1.047940305
-0.8433373502
-0.657659416
-0.4899037361
-0.338537319
-0.2018143333
-0.07806856641
0.03457971633
0.1374100488
0.2312922277
0.3166173405
0.3938217123
0.4634584417
0.5262836203
0.5830794424
0.6345334638
0.6811697373
0.7233429323
0.7613679338
0.7954981865
0.8260797814
0.8534890808
0.8781083684
0.9002446644
0.9201118869
0.9378399678
0.9535792066
0.9674635826
0.979653789
0.9903129048
0.9995942437
1.007611772
1.014496126
1.020355737
1.025268168
1.029304379
1.03251366
1.034991559
1.036787525
1.038037142
1.038793645
1.039109784
1.039026055
1.038577676
1.037853129
1.036905488
1.035713946
1.034378626
1.032907295
1.031372469
1.029725229
1.028173821
1.026515538
1.02487521
1.023287106
1.021742888
1.020522811
1.019422111
1.027803487
1.035606678
1.043233881