/*--------------------------------*- C++ -*----------------------------------*\
| =========                 |                                                 |
| \\      /  F ield         | OpenFOAM: The Open Source CFD Toolbox           |
|  \\    /   O peration     | Version:  2.3.1                                 |
|   \\  /    A nd           | Web:      www.OpenFOAM.org                      |
|    \\/     M anipulation  |                                                 |
\*---------------------------------------------------------------------------*/
FoamFile
{
    version     2.0;
    format      ascii;
    class       dictionary;
    location    "constant";
    object      PM18;
}
// * * * * * * * * * * * * * * * * * * * * * * * * * * * * * * * * * * * * * //

PM18_table
101
(

101
(
-3.915708519
-1.114265934
-0.8061927329
-0.553461222
-0.3919399143
-0.2860629675
-0.2107855941
-0.1530922961
-0.1078931447
-0.07204259987
-0.04229520319
-0.01818427562
0.001100170004
0.01717882893
0.0290257516
0.03728406814
0.04239706473
0.04455518785
0.04404207126
0.04160583968
0.03797565134
0.03375507147
0.02896432723
0.02444559327
0.02036082653
0.01674598592
0.01364640948
0.01105728852
0.008885481088
0.007139213354
0.005731707443
0.004623383003
0.00378397595
0.002952406495
0.002374859641
0.001907290525
0.001322697136
0.0008389940388
0.0009461517848
0.000825704845
0.000683423792
0.0005726546006
0.0004731548135
0.0003946664536
0.0003350761547
0.0002830457235
0.0002417992008
0.0002052927251
0.0001758511212
0.0001501972813
0.0001292490055
0.0001113312346
9.604059864e-05
8.273878943e-05
7.139416053e-05
6.186747684e-05
5.301039885e-05
4.621674436e-05
3.98695107e-05
3.465028355e-05
2.99606797e-05
2.590594164e-05
2.242879682e-05
1.927510381e-05
1.64643681e-05
1.413441876e-05
1.20786418e-05
1.025537718e-05
8.6260991e-06
7.245252503e-06
6.037602522e-06
5.009758912e-06
4.104502985e-06
3.308967593e-06
2.351024669e-06
1.784545678e-06
1.531545676e-06
1.246342237e-06
9.871439609e-07
7.682994795e-07
5.871848911e-07
4.33491055e-07
3.156113313e-07
1.982635448e-07
1.358038137e-07
1.023149149e-07
7.384997056e-08
5.052180383e-08
3.352299331e-08
1.877553597e-08
1.274934626e-08
8.830868465e-09
5.473106441e-09
3.289926069e-09
2.056186115e-09
1.301519104e-09
4.160855953e-10
4.126004809e-10
4.328205458e-10
6.41182465e-10
8.410274737e-10
)


101
(
-3.915708526
-1.112496339
-0.8045602594
-0.552485042
-0.391046469
-0.2850207242
-0.2095692631
-0.1517308131
-0.1063676202
-0.07035947174
-0.04051536966
-0.01630760722
0.003054758041
0.01913398832
0.0310529277
0.03936821895
0.04452426157
0.04672877539
0.04626432976
0.04383178398
0.04015208409
0.03583590063
0.03095982281
0.02627713003
0.02201064864
0.01821750954
0.01494252503
0.01218596377
0.009867256535
0.007981409121
0.006453634087
0.005239808178
0.004306510887
0.00343075863
0.002776608542
0.002251231829
0.001669882993
0.00115903452
0.001124408635
0.001000060015
0.0008503653905
0.0007208682558
0.0006051361154
0.0005100885888
0.0004350602925
0.0003712241362
0.0003192610264
0.0002741261384
0.0002366051403
0.0002041180661
0.0001768700614
0.0001535183564
0.0001335105717
0.0001162249578
0.0001012821732
8.840994033e-05
7.668262848e-05
6.701550172e-05
5.833147756e-05
5.090941094e-05
4.434315374e-05
3.859106101e-05
3.357298045e-05
2.910686401e-05
2.514506524e-05
2.171878764e-05
1.869200037e-05
1.601277867e-05
1.36392047e-05
1.156359714e-05
9.743715661e-06
8.162541027e-06
6.792851454e-06
5.597513876e-06
4.373862228e-06
3.44598922e-06
2.82097483e-06
2.281598767e-06
1.824285681e-06
1.440123014e-06
1.121413291e-06
8.555396282e-07
6.435077771e-07
4.578796861e-07
3.263276305e-07
2.352470945e-07
1.697478755e-07
1.205983868e-07
8.311503859e-08
5.464478965e-08
3.654172287e-08
2.405673228e-08
1.618827949e-08
1.047619777e-08
6.959535974e-09
4.490270031e-09
1.767396077e-09
2.308008823e-09
2.946828482e-09
4.581789718e-09
6.096715299e-09
)


101
(
-3.915708526
-1.108953084
-0.8013102843
-0.5505607255
-0.3893089523
-0.2830052506
-0.2072214499
-0.1491062851
-0.1034283164
-0.06711451249
-0.03707679337
-0.01267521155
0.006848157954
0.02294606527
0.03501298548
0.04346018922
0.04872606842
0.05104702583
0.05069810585
0.04830723635
0.0445546054
0.04007107124
0.03503822532
0.03005179129
0.02543062865
0.02128207783
0.01765525774
0.01455951942
0.01193862943
0.009767051328
0.0079883361
0.006553707248
0.005423583563
0.004442660496
0.003642716142
0.002986726161
0.002384713301
0.001821516832
0.001549835159
0.001375526647
0.001201041736
0.001036412565
0.0008878855721
0.000759212019
0.0006522995294
0.000562938339
0.0004882425273
0.0004246091916
0.0003701213134
0.0003230990705
0.0002825059301
0.0002474821266
0.000217215242
0.0001910193067
0.0001681688257
0.0001481822564
0.0001302679066
0.0001145637288
0.0001007490218
8.856986903e-05
7.785292063e-05
6.837971864e-05
6.000538125e-05
5.258682061e-05
4.598388025e-05
4.009732933e-05
3.487533818e-05
3.022533974e-05
2.612365998e-05
2.247794233e-05
1.924198954e-05
1.637828089e-05
1.387862897e-05
1.169555554e-05
9.71808681e-06
7.974934049e-06
6.524054835e-06
5.318300996e-06
4.312326128e-06
3.472920288e-06
2.773026715e-06
2.186465722e-06
1.702486919e-06
1.301689074e-06
9.763563879e-07
7.206392524e-07
5.260204651e-07
3.852048972e-07
2.776220266e-07
1.942640871e-07
1.335807179e-07
9.095591501e-08
6.315515789e-08
4.277357653e-08
2.916884445e-08
1.888066898e-08
7.407394831e-09
1.276402613e-08
1.885519018e-08
3.293389598e-08
4.737894213e-08
)


101
(
-3.915708526
-1.105398622
-0.7980879249
-0.548691336
-0.3876698665
-0.2811291097
-0.2050464534
-0.1466843209
-0.1007208621
-0.06412444472
-0.03389623642
-0.009305218754
0.01038680375
0.02653193996
0.03875202725
0.04736116586
0.05277616076
0.05525367338
0.05505860454
0.05276368174
0.04899371426
0.0443914789
0.039227142
0.0339881737
0.0290404075
0.02454586153
0.02057051567
0.01713382902
0.01419989408
0.01173464428
0.009689349524
0.008017824317
0.006675828543
0.005554754671
0.004620394004
0.003846269869
0.003155974747
0.002532167183
0.002101961249
0.001820279352
0.001594797431
0.001392835905
0.001209922744
0.001047182474
0.0009070209525
0.0007884159785
0.0006881308819
0.0006029333024
0.0005295396007
0.0004660396454
0.0004106197875
0.0003623053793
0.0003201720102
0.0002834517225
0.000251298206
0.0002229817486
0.0001978812951
0.0001754848775
0.0001556345164
0.0001379169771
0.0001222045993
0.0001082717869
9.588275019e-05
8.485671381e-05
7.498987057e-05
6.608990579e-05
5.811854899e-05
5.098451978e-05
4.462967665e-05
3.897039322e-05
3.38671822e-05
2.930384809e-05
2.523814356e-05
2.16536591e-05
1.846346508e-05
1.561526992e-05
1.309502966e-05
1.091156066e-05
9.03266437e-06
7.432106852e-06
6.078590405e-06
4.92606033e-06
3.95287127e-06
3.135886657e-06
2.452117389e-06
1.888002407e-06
1.427157225e-06
1.070215546e-06
8.026817972e-07
5.898475351e-07
4.232061625e-07
2.981905603e-07
2.080531792e-07
1.465994257e-07
1.029377601e-07
6.804164725e-08
3.077168454e-08
6.0965308e-08
9.391951408e-08
1.638802853e-07
2.287440246e-07
)


101
(
-3.915708167
-1.101830932
-0.7948917502
-0.5468751297
-0.3861266437
-0.2793890067
-0.2030397396
-0.1444571599
-0.09823461952
-0.06137593466
-0.03095798776
-0.006177699949
0.01369249685
0.02991372971
0.04229625816
0.05109402131
0.0566947417
0.05936705917
0.05936508876
0.05721549783
0.05348352545
0.048812008
0.04354603536
0.03810075727
0.03285982404
0.02803377965
0.02371460951
0.0199360454
0.01668016023
0.01391233467
0.011588741
0.009662187816
0.008090462659
0.006796805962
0.005716215884
0.00482548272
0.004024615236
0.003320167442
0.002767033377
0.002365446147
0.002061327995
0.001807601221
0.001584396477
0.001385276709
0.001209774723
0.001058211254
0.0009284962994
0.0008179779788
0.0007228719451
0.0006403587247
0.0005680075241
0.0005043674077
0.0004484064135
0.0003993591357
0.0003562755585
0.0003180906426
0.0002842930983
0.0002540284781
0.0002270825659
0.0002028434484
0.0001810968422
0.0001617438463
0.0001444065705
0.0001289311372
0.0001150792055
0.0001025401995
9.117722839e-05
8.091324895e-05
7.163603722e-05
6.337621075e-05
5.587793513e-05
4.909244226e-05
4.294162876e-05
3.743305719e-05
3.250094343e-05
2.807901808e-05
2.411352273e-05
2.057344829e-05
1.741826674e-05
1.465540087e-05
1.225993036e-05
1.020361729e-05
8.412040852e-06
6.879234091e-06
5.56286739e-06
4.446209006e-06
3.493314984e-06
2.707164329e-06
2.085895925e-06
1.600538554e-06
1.19809092e-06
8.828952816e-07
6.416323413e-07
4.606625981e-07
3.346490911e-07
2.290304165e-07
1.180386669e-07
2.196420636e-07
3.470002167e-07
7.192733582e-07
1.076929831e-06
)


101
(
-3.915708527
-1.098248578
-0.7917205846
-0.545110635
-0.3846770085
-0.277781854
-0.2011972558
-0.1424181749
-0.09596042238
-0.05885790736
-0.0282498969
-0.003276207056
0.0167815985
0.03310860436
0.04566613381
0.05467548245
0.06049718597
0.06340073029
0.06362859094
0.06167060358
0.05803124581
0.05334063052
0.04800603033
0.04239784743
0.03689915077
0.03176150242
0.02710708951
0.02298712934
0.01940194681
0.01632202585
0.0137087928
0.01151308394
0.00969469988
0.008199536726
0.006950168812
0.005910255338
0.005005186312
0.004206506117
0.003540855949
0.003022047333
0.002621874717
0.002298532971
0.002023961247
0.001782642642
0.001568461376
0.001380504283
0.001217373405
0.00107752712
0.0009571789462
0.0008526365676
0.0007608835307
0.0006796892297
0.0006077453517
0.0005442082142
0.0004882874647
0.0004386403152
0.0003944148468
0.0003547667949
0.0003192788588
0.0002873140562
0.0002584946828
0.0002326351542
0.0002093380401
0.0001883566884
0.0001695388421
0.0001525578828
0.0001370756943
0.0001229431894
0.0001100278082
9.836912403e-05
8.784243169e-05
7.826590782e-05
6.949659251e-05
6.149141543e-05
5.422234015e-05
4.764748254e-05
4.173278719e-05
3.634913687e-05
3.144820643e-05
2.704288478e-05
2.312027297e-05
1.97000392e-05
1.665656334e-05
1.398379632e-05
1.165332098e-05
9.615210251e-06
7.829132507e-06
6.285059308e-06
4.998692278e-06
3.968001032e-06
3.092723638e-06
2.365512963e-06
1.802226642e-06
1.347510077e-06
1.014103773e-06
7.046657166e-07
3.934526065e-07
8.380125931e-07
1.365662794e-06
2.731852279e-06
4.002903425e-06
)


101
(
-3.915708526
-1.094648249
-0.788572773
-0.5433960634
-0.383317313
-0.2763011077
-0.1995091537
-0.1405555612
-0.09388922059
-0.05656252089
-0.02576423812
-0.0005935365326
0.01966166271
0.03612047683
0.04886739715
0.05810805591
0.06418054006
0.0673491019
0.0678427273
0.06612027742
0.06262730436
0.057969307
0.05260238179
0.04687340347
0.04115477041
0.03573016462
0.03075410941
0.0262976039
0.02237952588
0.01897956301
0.01606470422
0.0135893605
0.01151008742
0.009789858654
0.008350851379
0.007147393545
0.006115037185
0.005209980033
0.004434206153
0.003799168169
0.003292864672
0.002883758789
0.002544007969
0.002251316286
0.001993086603
0.001764976711
0.001564448061
0.001390607765
0.001240426854
0.001110031426
0.0009957449609
0.0008943870709
0.0008042006258
0.0007239702849
0.0006528767036
0.0005897065071
0.0005334061683
0.0004827364646
0.0004371240198
0.0003958967807
0.0003586331974
0.0003249555662
0.0002945173812
0.0002669612629
0.00024206823
0.0002196125006
0.0001991221539
0.0001803776138
0.0001631177214
0.0001472707621
0.0001329195509
0.0001198188472
0.0001078030329
9.670278459e-05
8.649012198e-05
7.711800284e-05
6.86200513e-05
6.084921489e-05
5.371530486e-05
4.714430185e-05
4.113405995e-05
3.574944624e-05
3.094219286e-05
2.658650956e-05
2.273320475e-05
1.929181606e-05
1.621604075e-05
1.345251173e-05
1.10726601e-05
9.053430309e-06
7.34849489e-06
5.825579736e-06
4.607409784e-06
3.606120677e-06
2.795584037e-06
2.052777426e-06
1.257553622e-06
2.748197642e-06
4.472186628e-06
8.637094785e-06
1.248747958e-05
)


101
(
-3.915708526
-1.091027796
-0.7854469244
-0.5417298919
-0.3820438267
-0.2749386239
-0.1979608398
-0.1388499913
-0.09200858501
-0.0544789977
-0.02349035433
0.001882217268
0.02234531309
0.03895916245
0.0519100707
0.06139906785
0.06774583529
0.0712084461
0.07200104594
0.07055498444
0.06726063932
0.06268821027
0.05732678141
0.0515185691
0.0456202299
0.03993769915
0.03465825347
0.02987499585
0.02562515986
0.0219002688
0.01867505669
0.01590879734
0.01355646885
0.01159181441
0.009941269545
0.0085561255
0.007375428228
0.006348006888
0.005457694987
0.004705663723
0.004086879889
0.003579900467
0.003160875913
0.002805053737
0.002494769916
0.002221280491
0.001979175229
0.001766880926
0.001582146251
0.001421397136
0.001280371303
0.001155601658
0.001044481647
0.0009449273832
0.0008561418565
0.0007771380082
0.0007065943244
0.0006430094756
0.0005857056096
0.0005336994741
0.0004864467717
0.0004435155868
0.0004044362041
0.0003690158396
0.000336858454
0.0003078104058
0.000281381718
0.0002571317928
0.0002347076623
0.0002138466448
0.0001947506939
0.0001772263962
0.0001612492038
0.0001464562378
0.0001326643841
0.0001198472894
0.0001080625545
9.725017261e-05
8.728438049e-05
7.797393485e-05
6.932722878e-05
6.13572697e-05
5.420200424e-05
4.758065963e-05
4.159917281e-05
3.612621644e-05
3.123961176e-05
2.668160884e-05
2.264989372e-05
1.908021312e-05
1.597694815e-05
1.313480253e-05
1.078242462e-05
8.793510926e-06
7.072038961e-06
5.526843816e-06
3.669457065e-06
7.656912345e-06
1.219630971e-05
2.254874723e-05
3.263594328e-05
)


101
(
-3.915707799
-1.087384962
-0.7823412937
-0.5401094926
-0.3808535004
-0.2736901861
-0.1965446358
-0.1372891059
-0.09030890901
-0.0525994303
-0.02142203691
0.004158934614
0.0248400075
0.04163058794
0.05479920822
0.06455171981
0.07119258809
0.07497396037
0.07609536202
0.0749634919
0.07191812993
0.06748587185
0.0621705412
0.05632621825
0.05029247438
0.04438714114
0.03882696471
0.0337295799
0.02915176893
0.0250988043
0.02155520811
0.01848705844
0.01585017666
0.01362502188
0.0117416674
0.01015429015
0.008804841916
0.007637972015
0.006624194944
0.005751971317
0.005015515609
0.004400652862
0.003889457661
0.003457920148
0.003085590778
0.00275961915
0.002470830196
0.002215822397
0.001991772442
0.00179571281
0.00162349469
0.001471641347
0.001336371334
0.001214779018
0.00110566398
0.001007935715
0.0009205892425
0.0008416604551
0.0007706622431
0.0007062576936
0.0006474762461
0.0005938626033
0.0005447321042
0.0004999320043
0.0004590740864
0.0004219801939
0.0003883460693
0.0003574480967
0.000328897741
0.0003022462835
0.0002775603306
0.000254774006
0.0002338358429
0.0002145242389
0.0001964991613
0.0001796258008
0.0001638307054
0.0001492278818
0.0001357785045
0.0001231231785
0.000111199395
0.0001001041455
8.992244574e-05
8.053115145e-05
7.174264539e-05
6.355813743e-05
5.625588702e-05
4.931446841e-05
4.297149574e-05
3.723158949e-05
3.201567625e-05
2.726913423e-05
2.312010268e-05
1.952531623e-05
1.625991134e-05
1.321555879e-05
9.634939659e-06
1.867507638e-05
2.868307482e-05
4.915489779e-05
7.069495232e-05
)


101
(
-3.915707804
-1.083716849
-0.7792541394
-0.5385310374
-0.3797412237
-0.2725517616
-0.1952586545
-0.1358709577
-0.08878046179
-0.05091231559
-0.01955258354
0.006239254898
0.02714578746
0.04413182503
0.05753140472
0.06756120163
0.074513067
0.07863487536
0.08011188085
0.07932879411
0.07658042601
0.07234583111
0.06712568114
0.06128970688
0.0551682353
0.04908124078
0.04326781009
0.0378714779
0.03297129845
0.0285888956
0.02471990406
0.02133841282
0.01840432805
0.01590475642
0.01377010389
0.01196035158
0.01042215662
0.009098053603
0.007948111799
0.006949272239
0.006089917922
0.005358452865
0.004744040957
0.004224831045
0.003779653445
0.003392745313
0.003050757058
0.002747582569
0.002478887579
0.00224239623
0.002034317723
0.001850998207
0.00168790768
0.001541435711
0.001408865674
0.001289518722
0.001182712708
0.00108598499
0.0009988754967
0.0009199632639
0.0008478046773
0.0007817249074
0.0007211546443
0.0006654753836
0.0006142876736
0.000567379707
0.0005249269706
0.0004860754983
0.0004503742852
0.0004170862192
0.0003859463344
0.0003569460338
0.0003300746165
0.0003052737039
0.0002822353347
0.0002605374478
0.0002400507453
0.0002209506603
0.0002032353991
0.000186609697
0.0001707908417
0.0001559715411
0.0001420913443
0.000129340899
0.0001171814713
0.0001055834724
9.508754909e-05
8.522532528e-05
7.590635237e-05
6.741255681e-05
5.937295468e-05
5.203539048e-05
4.537499488e-05
3.946497873e-05
3.398939839e-05
2.849766856e-05
2.212491343e-05
4.020507559e-05
5.934991258e-05
9.254834609e-05
0.0001239142726
)


101
(
-3.915705372
-1.080020926
-0.776183719
-0.5369917639
-0.3787025914
-0.2715192735
-0.1941008713
-0.1345947735
-0.08741410466
-0.04940363799
-0.01787384895
0.008126602518
0.02926218255
0.0464589604
0.06010192747
0.07042153103
0.07769794593
0.08217815518
0.08403492094
0.08363240142
0.08122562986
0.07724683053
0.07218012544
0.06639873825
0.06023920758
0.05401555181
0.04798084869
0.04230497917
0.03709201032
0.03238237477
0.02818431986
0.02448035685
0.02123647933
0.01844961199
0.01604821656
0.01399703542
0.01224874377
0.01074700531
0.009444870543
0.008309775699
0.007321958376
0.006467464194
0.005740181174
0.005122070344
0.004592743254
0.004135028195
0.00373188428
0.003373925582
0.003055037781
0.002772837738
0.002523460752
0.002303333583
0.002107898654
0.001932608662
0.001773527142
0.001630210441
0.001500786535
0.001383589453
0.001277482796
0.001181580712
0.001094029623
0.001013545607
0.0009396488574
0.0008714076897
0.0008084391932
0.0007502587205
0.000697062777
0.0006486641867
0.0006043759747
0.0005632248745
0.0005246695787
0.0004884622258
0.000454721557
0.0004233853707
0.0003942831407
0.0003668965937
0.00034106136
0.0003167934389
0.0002938867424
0.0002725106053
0.0002522728126
0.0002330239543
0.0002148620725
0.0001980345981
0.0001820024215
0.0001663730918
0.0001518698614
0.0001385501776
0.0001258000502
0.0001137495398
0.0001022818766
9.171416506e-05
8.185793802e-05
7.288881157e-05
6.462648709e-05
5.599779256e-05
4.598122979e-05
7.623944536e-05
0.0001077487892
0.0001564670902
0.0002023248395
)


101
(
-3.915691722
-1.076293809
-0.7731273615
-0.5354895219
-0.3777356099
-0.2705912075
-0.19307063
-0.1334589083
-0.08620314296
-0.04806545485
-0.01638226009
0.009823615716
0.03118971627
0.04860957897
0.06250753877
0.07312831497
0.0807414104
0.08559435832
0.08785250362
0.08785996044
0.08583280414
0.08216191307
0.0773057792
0.07162700244
0.06547599913
0.05916192833
0.05294598994
0.04701979064
0.04151243007
0.03648432409
0.03195895475
0.02792918119
0.02436752746
0.02128159652
0.01859927329
0.01628879501
0.01430853721
0.01260629129
0.01113323297
0.009849926667
0.008726288852
0.007742537749
0.006893536987
0.006165584946
0.005540189012
0.005000389319
0.004527060489
0.004107463437
0.003732663111
0.003399199373
0.003102795402
0.00284015885
0.002607038917
0.002398340775
0.002209609625
0.002038798932
0.001883701928
0.001742626883
0.00161454366
0.00149862118
0.001393156873
0.00129620398
0.001206950864
0.001124342313
0.001047837492
0.0009771050397
0.0009114803507
0.0008515032996
0.0007967421261
0.0007461275092
0.0006989807513
0.0006546349214
0.0006127994019
0.0005736576036
0.0005372330669
0.0005032482517
0.0004712200587
0.0004408934604
0.0004121683595
0.0003851156598
0.0003595561141
0.0003351881876
0.0003120572074
0.0002903055979
0.0002698697312
0.0002498858267
0.0002306043442
0.0002129987367
0.000196347252
0.0001800892918
0.000164584946
0.0001503060893
0.0001367516488
0.0001239957381
0.0001123051148
0.0001000213433
8.607867525e-05
0.0001313530872
0.0001775718926
0.0002417092768
0.0003029603463
)


101
(
-3.915681963
-1.072532241
-0.7700829576
-0.534022715
-0.3768386378
-0.269766691
-0.1921703423
-0.1324653344
-0.08513685149
-0.04688605956
-0.01507663733
0.01133131197
0.03292785134
0.05057800139
0.06474058327
0.07567344758
0.08363880873
0.08888054913
0.091558867
0.09200068052
0.09038037926
0.08705782547
0.08246190834
0.07693782722
0.07084326536
0.06448702714
0.05813710738
0.05199974475
0.04622599825
0.04089581183
0.03605041693
0.03169637872
0.02781409507
0.02442046233
0.02144459277
0.01885835095
0.01662535663
0.01469952154
0.01303474016
0.01158800246
0.01031862455
0.009198516261
0.008219931775
0.007371569093
0.006637889524
0.006003840864
0.005449964353
0.004960822856
0.00452384776
0.004133588682
0.003784330597
0.003473268405
0.003196911985
0.002949772452
0.002726891205
0.002524183865
0.002340504704
0.0021723053
0.002019353887
0.001880060577
0.001753674825
0.001637524188
0.001530532133
0.001431558821
0.001339738455
0.001254498468
0.001174930572
0.00110144899
0.001033907434
0.0009719234572
0.0009144569572
0.0008607058529
0.0008096585129
0.0007614452201
0.0007162109075
0.0006740495533
0.0006346126352
0.0005973541725
0.0005618772529
0.0005282257786
0.0004962242858
0.000465904163
0.0004368674284
0.0004092203728
0.0003835347982
0.0003587643927
0.0003341273732
0.000311228768
0.0002898278226
0.0002691529949
0.0002489469531
0.0002303248084
0.000212482597
0.0001956242285
0.0001798211904
0.0001634067745
0.0001453141834
0.0002071022416
0.0002686796589
0.00034459934
0.0004164733347
)


101
(
-3.915680501
-1.068732376
-0.7670483699
-0.5325897235
-0.3760101852
-0.2690441591
-0.1914007505
-0.131616088
-0.08420787171
-0.04585317856
-0.01395450739
0.01265073231
0.03447651829
0.05235921918
0.06679348303
0.07804806209
0.08638305761
0.09203284524
0.09514789127
0.0960460465
0.09485226363
0.09190839214
0.08761524558
0.08230008802
0.07631696379
0.06997160209
0.06353715193
0.05723067909
0.05122253316
0.04561222364
0.04045985516
0.03578701482
0.03158372081
0.02787727784
0.02459858222
0.02172343656
0.01922024276
0.01704981975
0.01517193942
0.01354300006
0.01211493955
0.01085010018
0.009734992209
0.008757011875
0.007903584994
0.007163012765
0.006516701056
0.005947976831
0.005441263637
0.004987763435
0.004579753658
0.004214478473
0.003889163568
0.003597959569
0.00333579647
0.003097501835
0.002881363366
0.00268308478
0.002501578018
0.002335580689
0.002184867376
0.002046503935
0.001918722048
0.001800881685
0.001691786071
0.001589684024
0.001494379766
0.001405294338
0.001322998427
0.001247337215
0.001177253456
0.001112133023
0.001050575207
0.0009921031046
0.0009365709881
0.0008842198417
0.0008356285482
0.0007899674416
0.0007465058576
0.0007051873215
0.0006654713812
0.0006278104178
0.0005918490875
0.0005573310063
0.0005247982114
0.0004941673986
0.000463881055
0.0004346758686
0.0004074593874
0.0003818060007
0.0003561867787
0.0003326414551
0.000309355741
0.0002879785971
0.0002675650687
0.0002466564033
0.0002235035248
0.0002993042646
0.0003739810408
0.0004594449566
0.0005477314537
)


101
(
-3.915679043
-1.064891177
-0.7640221604
-0.5311892386
-0.3752497402
-0.2684232689
-0.1907601078
-0.130911298
-0.08341500412
-0.04495998734
-0.01300466785
0.01378149293
0.0358366001
0.05395475802
0.06866697349
0.08025028496
0.08896463025
0.0950359401
0.09859902773
0.09996488334
0.09921922129
0.09668665659
0.09274234521
0.08768880867
0.08187279849
0.07559487116
0.06912775381
0.06269615263
0.05648810102
0.05062396509
0.0451837855
0.04020298432
0.03568094365
0.03165954127
0.02807226869
0.02489929575
0.02211266084
0.01967952034
0.01756741192
0.01573542941
0.01413256515
0.01271204495
0.01145287705
0.01033781613
0.00935503911
0.008496305182
0.007745130194
0.007085536523
0.006499519795
0.005974897845
0.005502311979
0.005077210204
0.004696546412
0.004355390708
0.004048602291
0.003770396532
0.00351742918
0.003285521603
0.003071853942
0.00287554452
0.002696208288
0.002532255371
0.002380727384
0.002241231448
0.002111897807
0.001990654021
0.001877232151
0.001770586315
0.001671616019
0.00157959963
0.001494265313
0.001415196105
0.001340976502
0.001270812668
0.001203694343
0.001139306227
0.001079006264
0.001022484264
0.000969613474
0.0009190199401
0.0008702037114
0.0008235402476
0.00077895103
0.0007363589888
0.0006956084641
0.0006572228436
0.0006201802259
0.0005837487247
0.0005492125868
0.0005172394409
0.0004852329996
0.0004557627307
0.0004263461176
0.0003991926405
0.0003736638378
0.0003472940998
0.0003177864308
0.0004050422905
0.0004903277245
0.0005842771472
0.0006711252012
)


101
(
-3.915681956
-1.061005787
-0.7610032581
-0.5298205904
-0.3745565898
-0.2679035947
-0.1902467766
-0.1303515191
-0.0827577814
-0.04420098836
-0.01221199712
0.01472222589
0.03700711459
0.05536773241
0.07036442046
0.08228202107
0.09137557133
0.0978697756
0.1018848459
0.1037135188
0.1034415342
0.1013581157
0.097815776
0.09307694739
0.08748243041
0.08132967155
0.07488388624
0.06837513247
0.0620077183
0.0559214885
0.05021600565
0.04494173966
0.0401080192
0.03577311684
0.03187519201
0.02839956918
0.02532061266
0.02260999852
0.02024380179
0.0181873525
0.01639001467
0.01479940132
0.01338718472
0.01212825003
0.01100803593
0.01002073326
0.009153124224
0.008391338554
0.007715137522
0.007110763494
0.006566954709
0.006076081329
0.005633464524
0.00523620566
0.004878466978
0.004554129759
0.004259903148
0.003990287641
0.003741175846
0.003510726652
0.003298904307
0.003105204369
0.002926866942
0.002762538597
0.002609289212
0.002466702062
0.002332422866
0.002205889151
0.002087340239
0.00197632292
0.001873189751
0.001777156995
0.001687484459
0.001603230946
0.001522839555
0.001444982785
0.001370179977
0.001300324663
0.001235091212
0.001173200364
0.001113923252
0.001056446217
0.001000816292
0.000948245644
0.0008976819074
0.0008495855127
0.0008035625851
0.0007587243303
0.0007149721023
0.0006746377767
0.0006351391059
0.000597665356
0.0005615751709
0.0005270385632
0.0004951345714
0.000462241816
0.0004261861568
0.0005229548712
0.0006176609915
0.0007233631621
0.0008184760136
)


101
(
-3.915681956
-1.057070835
-0.7579701946
-0.528481797
-0.3739286587
-0.2674823028
-0.1898581509
-0.1299367675
-0.08224222213
-0.04357663217
-0.01156517285
0.01547633133
0.03798701015
0.05659788952
0.07188394705
0.08414043595
0.09360983152
0.1005226722
0.1049916937
0.1072718853
0.1074965158
0.105896576
0.1028034548
0.09843088498
0.09310910372
0.08713677439
0.08076913367
0.07423776093
0.06776002805
0.06149121441
0.0555467643
0.04999569894
0.04486209733
0.04021895085
0.03601209762
0.03223307069
0.0288576766
0.02585965669
0.02322224737
0.02091978754
0.01890629103
0.01712820365
0.01555110801
0.01414069144
0.01287621753
0.01175181323
0.01075722927
0.009881605332
0.009104691566
0.00841159463
0.007788465764
0.007225195214
0.006714686202
0.006254667398
0.005839587188
0.005462816177
0.005121754432
0.004809407213
0.004521284507
0.004253333769
0.004005598236
0.003777661579
0.00356859394
0.003375471882
0.003195065408
0.003027857537
0.002869705511
0.002720346912
0.002579322216
0.002447063788
0.002323214629
0.002206887627
0.002098470731
0.001996721643
0.001900209942
0.001807292558
0.001716860091
0.001630511012
0.001549339712
0.001473430816
0.001401515752
0.00133092716
0.001262314026
0.001196992419
0.0011342299
0.001074214879
0.00101644503
0.0009611213777
0.0009062270634
0.000855099247
0.000806584309
0.0007586902229
0.0007139677989
0.0006706272594
0.0006301432591
0.0005895431208
0.0005459628189
0.0006529271017
0.0007586441564
0.0008845989504
0.001010015788
)


101
(
-3.915679043
-1.053082912
-0.754938817
-0.5271715679
-0.3733645432
-0.2671570714
-0.1895917697
-0.1296661726
-0.08188426247
-0.0431048335
-0.01105522821
0.01605429402
0.0387805663
0.05764143026
0.07321181241
0.08580348868
0.09564514008
0.1029751952
0.1079063167
0.110649206
0.1113846786
0.1102924005
0.1076756439
0.1037158845
0.09871483753
0.09297461869
0.08674297578
0.08024759321
0.07371418751
0.06730897913
0.06115941405
0.05535385627
0.0499362645
0.04499402544
0.04048273907
0.03640209824
0.03272983537
0.02943973122
0.02651943857
0.02395270882
0.02170184652
0.0197159839
0.01795843819
0.01638718512
0.01497260356
0.0137046283
0.01257338191
0.01157225049
0.01068479748
0.009893764074
0.009182734082
0.008539659939
0.007955083459
0.007425445271
0.006946547715
0.006512193942
0.006118353914
0.005757583759
0.005426449541
0.005118272653
0.004830289576
0.004564324872
0.004319595077
0.004093077068
0.003882263433
0.00368591269
0.003500695734
0.003325592136
0.003159498126
0.003003141985
0.002854877924
0.002715398605
0.002584759287
0.002461772517
0.002345732809
0.002235173109
0.002127283886
0.002021875618
0.001921938444
0.001828327397
0.001740106789
0.001654146792
0.001570324523
0.00148939011
0.001411256165
0.00133702144
0.001264631481
0.001195763216
0.00112746753
0.001062824963
0.001002470547
0.0009421288354
0.0008856664982
0.0008314520047
0.0007802557834
0.0007301113697
0.0006770187214
0.0007998704552
0.0009221822702
0.001080079104
0.001224576955
)


101
(
-3.915681963
-1.049039634
-0.7519264512
-0.5258897148
-0.3728631343
-0.2669262381
-0.1894455056
-0.1295377928
-0.08169320025
-0.04280281002
-0.01067664699
0.01646539531
0.03939353923
0.05849759906
0.07433844848
0.08725262527
0.09746021422
0.1052050798
0.110606354
0.1138469204
0.115104655
0.1145392696
0.112407838
0.1088995641
0.1042645881
0.09880425084
0.09276386015
0.08636335353
0.07983021592
0.07333881879
0.06702684536
0.06099817512
0.05531700942
0.05008969838
0.04528249635
0.04090465805
0.0369377622
0.03335550443
0.03014730926
0.02730384349
0.02479669278
0.02258182003
0.02062569684
0.01888159452
0.01731027879
0.01589358191
0.01461864832
0.0134822753
0.01247336581
0.01157437924
0.01076671944
0.01003655293
0.009371652062
0.008765561367
0.008215339886
0.007717049312
0.007264704105
0.006850715018
0.006471567834
0.006119402819
0.005788371763
0.005480925715
0.005195554919
0.004930844372
0.004685595436
0.004455910793
0.004240392812
0.004036279626
0.003841953123
0.003657448587
0.003481906445
0.003316253248
0.00315946693
0.00301125442
0.002872105097
0.002740388871
0.002612327326
0.002486606308
0.002364942502
0.00224964628
0.002141199605
0.002037304047
0.001935281504
0.001835275266
0.001738801278
0.00164704525
0.001557395725
0.001471403912
0.001386832898
0.001305601897
0.001229721625
0.001154140834
0.001083381671
0.001015238457
0.0009513691089
0.0008891028
0.0008245178404
0.0009734172721
0.001122076807
0.001327541601
0.001515890816
)


101
(
-3.91568196
-1.044933752
-0.7489106163
-0.5246336145
-0.3724216462
-0.2667870019
-0.1894161985
-0.129552449
-0.08167212455
-0.04267677221
-0.0104481951
0.01672061142
0.03982121547
0.05915927099
0.0752576278
0.08848213307
0.09904845959
0.107200342
0.1130697399
0.116829785
0.1186238761
0.1186032591
0.1169755011
0.1139484283
0.1097216687
0.1045845097
0.09878659368
0.09254036294
0.08606476629