/*--------------------------------*- C++ -*----------------------------------*\
| =========                 |                                                 |
| \\      /  F ield         | OpenFOAM: The Open Source CFD Toolbox           |
|  \\    /   O peration     | Version:  2.3.1                                 |
|   \\  /    A nd           | Web:      www.OpenFOAM.org                      |
|    \\/     M anipulation  |                                                 |
\*---------------------------------------------------------------------------*/
FoamFile
{
    version     2.0;
    format      ascii;
    class       dictionary;
    location    "constant";
    object      PM20;
}
// * * * * * * * * * * * * * * * * * * * * * * * * * * * * * * * * * * * * * //

PM20_table
101
(

101
(
-13.44329459
-0.6420873729
-0.3755231644
-0.2368846041
-0.1562119026
-0.105159195
-0.07086349846
-0.04532216652
-0.02713403079
-0.01387084638
-0.004710104466
0.001329740824
0.004761939532
0.006397221225
0.006648443896
0.006142866551
0.005317330021
0.004476697299
0.003859104418
0.003438569175
0.003233551525
0.003129103206
0.003052821267
0.00292933135
0.00273197827
0.002461214716
0.002137716363
0.001794385602
0.001449389112
0.001131078803
0.0008490913801
0.0006150151015
0.0004377020677
0.0002692887614
0.0001696718175
0.0001136382248
0.0002013983808
0.0002488542581
-0.0001095403754
-0.0001983685104
-0.0002074433321
-0.0001931142475
-0.0001706994618
-0.0001457144763
-0.0001209532823
-9.293270475e-05
-6.401469577e-05
-3.17064629e-05
8.248951943e-07
3.533932345e-05
6.902346531e-05
0.0001031614608
0.0001372257783
0.0001710829776
0.0002042167187
0.000236300417
0.0002701942394
0.0002994960805
0.0003305197321
0.0003590806044
0.0003876452607
0.0004154401703
0.0004416411888
0.0004674539915
0.0004924735927
0.0005167292973
0.0005395559372
0.0005613485506
0.0005834996597
0.0006044525966
0.000625212284
0.0006464545284
0.000669594356
0.0006946568189
0.0007396586348
0.0007495830054
0.0007362186217
0.0007383769539
0.000748419525
0.0007606929658
0.0007736343772
0.0007887996305
0.0008071989728
0.0008394623826
0.0008285843864
0.0008204713164
0.0008260570947
0.0008354721686
0.0008491632695
0.0008818653674
0.0008658128054
0.0008677358103
0.0008898016401
0.0008937825893
0.0009119809541
0.000917133394
0.0009474142648
0.0009498913007
0.0009521702049
0.0009556280295
0.0009587717286
)


101
(
-13.44329462
-0.6418682271
-0.3755337713
-0.2372713613
-0.1567810005
-0.1058210311
-0.07157186955
-0.0460847544
-0.02787834294
-0.01458234148
-0.005351067722
0.0007734924301
0.004308093069
0.006034174865
0.006372061568
0.005925681135
0.005133689108
0.004304543625
0.003676409273
0.003246338414
0.003028823251
0.002922903815
0.002855313305
0.002750645484
0.002577152747
0.002331338113
0.002030425177
0.001704544919
0.001373100875
0.001062621275
0.000784837392
0.0005510321501
0.0003702616612
0.0002056657866
0.0001007710759
4.11539865e-05
0.0001009724662
0.0001503229702
-0.0001213393992
-0.0002394511266
-0.0002704473176
-0.0002642617421
-0.0002431734274
-0.000216909478
-0.0001900345735
-0.0001608659797
-0.0001309271336
-9.823882782e-05
-6.492944468e-05
-2.996477742e-05
4.609671049e-06
3.941454288e-05
7.405263918e-05
0.0001082301879
0.0001417413109
0.0001744132999
0.0002083300616
0.0002390143982
0.0002702763938
0.0002997390135
0.0003287514998
0.0003570345172
0.0003839754963
0.0004101640365
0.0004354214195
0.0004599938298
0.000483387306
0.0005057070264
0.0005278634439
0.0005491639227
0.0005699841984
0.0005909223439
0.0006129472026
0.0006367158609
0.0006751576821
0.0006932707875
0.0006908545985
0.000692698802
0.0007000866954
0.0007112706906
0.0007241035927
0.0007383714146
0.0007550351549
0.0007827288263
0.0007849185562
0.0007802969595
0.0007823895084
0.0007905032768
0.0008019838293
0.0008261660611
0.0008254996781
0.0008250684647
0.0008394772181
0.0008484135933
0.0008590528449
0.0008725350796
0.0009063543709
0.0009024029009
0.0008983322264
0.0008940088881
0.0008896118376
)


101
(
-13.44329461
-0.6414195633
-0.375546595
-0.2380353137
-0.1579104401
-0.1071364936
-0.07298097217
-0.04760197103
-0.0293631507
-0.01600319702
-0.006634355809
-0.0003420749096
0.003395865666
0.005305030809
0.005817835361
0.005494420133
0.004773911177
0.003971426107
0.003326331535
0.002875996899
0.002633566559
0.002521740272
0.002467701545
0.002397515781
0.002269956412
0.002073228758
0.001817708807
0.001527990784
0.001224709252
0.00093159486
0.0006635517172
0.0004316524191
0.0002453521476
8.513759173e-05
-2.886491243e-05
-9.309381182e-05
-7.91645649e-05
-3.376794271e-05
-0.0001675349195
-0.0003073066397
-0.0003759047345
-0.0003908623889
-0.0003770453479
-0.0003504567182
-0.0003201625469
-0.000288595536
-0.0002565095661
-0.0002230209965
-0.0001883711657
-0.0001525845901
-0.0001164498716
-8.033354907e-05
-4.443754596e-05
-9.148633764e-06
2.545248991e-05
5.927530459e-05
9.339661837e-05
0.0001262698276
0.0001583180598
0.0001893633404
0.0002194214632
0.0002486901282
0.0002769108387
0.000304073338
0.0003302271199
0.0003556806317
0.00038018268
0.0004036729513
0.0004262938782
0.0004482708127
0.0004694976649
0.0004902030275
0.0005108000154
0.0005322319833
0.0005604795061
0.0005871827724
0.0006019043727
0.0006083241619
0.0006136194434
0.0006222727855
0.000634282995
0.0006475769998
0.0006616733799
0.0006813113051
0.0006983419051
0.0007041499243
0.0007043969604
0.000709363614
0.0007186242039
0.0007323350144
0.0007462796727
0.0007502382912
0.0007539367435
0.0007656304926
0.0007718920075
0.0007925732293
0.0008319529036
0.0008190605612
0.0008064524797
0.0007939041681
0.0007814142935
)


101
(
-13.44329461
-0.6409497242
-0.3755427797
-0.2387804019
-0.1590223342
-0.1084349256
-0.07437333721
-0.04910044705
-0.03083607372
-0.01741440709
-0.007914133613
-0.00145726997
0.002480477304
0.004575109936
0.005264854143
0.005072282786
0.004431836451
0.003663707912
0.003009688776
0.002539147821
0.002271906935
0.002149078288
0.002101776097
0.002058864765
0.001972122452
0.001821648629
0.001610856511
0.00135865128
0.001085025438
0.0008119828131
0.000556248723
0.0003290618936
0.0001402829998
-1.948804259e-05
-0.0001411528419
-0.000216820372
-0.000224750742
-0.0001919906096
-0.0002501578269
-0.0003616389963
-0.000448083609
-0.0004868734643
-0.0004876611307
-0.0004661767716
-0.0004351585782
-0.0004013109213
-0.0003669146899
-0.0003320954232
-0.0002963166576
-0.0002596754329
-0.0002224087381
-0.0001850697925
-0.0001478885826
-0.0001111815758
-7.516413957e-05
-3.996087662e-05
-5.232933265e-06
2.888372288e-05
6.206341338e-05
9.437915304e-05
0.000125666773
0.0001559810872
0.0001852708968
0.0002135422423
0.0002408571378
0.00026738862
0.0002929460067
0.0003174934787
0.0003410686773
0.0003637972454
0.0003858598249
0.000407072675
0.0004276571654
0.0004478463812
0.0004707041874
0.0004960186762
0.0005183360854
0.0005334647546
0.0005422952545
0.0005498062484
0.000560191259
0.0005731562796
0.0005865200301
0.0006014637103
0.0006186241385
0.0006332524424
0.0006398307682
0.0006431386149
0.0006509664426
0.0006620144225
0.0006741940618
0.0006858142473
0.0006901990873
0.0006982128725
0.0007080572107
0.0007262425824
0.0007629523717
0.000748610754
0.0007350923826
0.000725189264
0.0007156719529
)


101
(
-13.44329338
-0.6404581557
-0.3755221121
-0.2395065245
-0.1601166504
-0.109716412
-0.07574915846
-0.05058067938
-0.03229747885
-0.01881701442
-0.009191731854
-0.002574338572
0.001559048194
0.003840275929
0.004708428175
0.004653441785
0.00410127062
0.00337522514
0.0027199576
0.002230788526
0.001938697269
0.001800748248
0.001753889647
0.001731059503
0.001679384319
0.001571673068
0.001404351817
0.001190384074
0.0009478032603
0.0006970877432
0.0004556624879
0.0002362612273
4.830666618e-05
-0.0001114137963
-0.0002384188466
-0.0003279818758
-0.0003510392039
-0.0003316249947
-0.0003507826509
-0.0004239316266
-0.0005063890974
-0.0005609450411
-0.0005787258766
-0.0005675631573
-0.0005396390162
-0.0005047654585
-0.0004681124699
-0.0004314324297
-0.0003944355968
-0.0003568279837
-0.0003185700246
-0.0002800699393
-0.0002416641131
-0.0002036850341
-0.000166318594
-0.0001296175381
-9.380036028e-05
-5.858778361e-05
-2.430341198e-05
9.171044742e-06
4.172117454e-05
7.319517741e-05
0.0001036532691
0.0001330298804
0.0001613819952
0.0001888718533
0.0002154436169
0.0002409669029
0.0002655773149
0.0002891627518
0.0003120620264
0.0003341473185
0.0003554895191
0.0003759090073
0.0003966336195
0.0004190482782
0.0004421548851
0.0004625635047
0.0004773215437
0.0004871153274
0.0004965370252
0.0005085076965
0.0005220513187
0.0005358021883
0.0005506058377
0.0005663757893
0.0005794511056
0.0005859821336
0.000592171245
0.0006019444783
0.0006130407508
0.0006248029999
0.0006343263832
0.0006413891495
0.0006513420925
0.0006677130419
0.0006979451332
0.0006883444604
0.0006786667287
0.0006672508067
0.0006560218944
)


101
(
-13.44329462
-0.6399445809
-0.3754844951
-0.2402136602
-0.1611934029
-0.1109810545
-0.07710862041
-0.05204308328
-0.03374761283
-0.02021179712
-0.01046811045
-0.003695092927
0.0006293045076
0.00309706567
0.004144525044
0.004232943594
0.003776725278
0.003100499506
0.00245174508
0.001946720274
0.001630003906
0.001473678467
0.001421734099
0.001412064736
0.001389563744
0.001320560448
0.001194744185
0.001019220499
0.0008089876171
0.0005827301368
0.0003577028199
0.0001483186156
-3.600966478e-05
-0.0001945355028
-0.0003239650591
-0.0004194901278
-0.0004615989781
-0.0004564204335
-0.00045703605
-0.0004975095215
-0.0005631263439
-0.0006217568271
-0.0006533604298
-0.0006550127238
-0.0006340612081
-0.0006006866272
-0.0005626302343
-0.0005240107762
-0.000485573937
-0.0004469059121
-0.0004077342047
-0.0003681856575
-0.0003286206634
-0.000289404875
-0.0002508287808
-0.0002128897964
-0.0001757432493
-0.0001393385615
-0.0001038560069
-6.92852997e-05
-3.563354628e-05
-3.013070863e-06
2.858965433e-05
5.915518856e-05
8.86232286e-05
0.0001170551681
0.0001445802327
0.0001711392244
0.000196764918
0.0002213613673
0.0002449995061
0.0002678416993
0.000289974449
0.0003112467727
0.0003318802636
0.000352759762
0.0003744594618
0.0003962652036
0.0004154162545
0.000429480711
0.0004400044588
0.0004509514281
0.0004641979231
0.000478154045
0.0004921296854
0.0005067187945
0.0005215525525
0.0005328508047
0.0005400042709
0.0005489019151
0.0005598592578
0.0005710422437
0.0005819597745
0.0005900723478
0.0005996241244
0.0006163114693
0.0006435442932
0.0006346171044
0.0006254189428
0.0006128331476
0.0006005886807
)


101
(
-13.44329461
-0.639408012
-0.3754296087
-0.240901646
-0.1622525941
-0.1122291273
-0.07845227046
-0.05348839832
-0.0351866676
-0.02159918999
-0.01174379859
-0.004820487144
-0.0003101949526
0.002343278989
0.003570436031
0.003807268166
0.003454457896
0.002835866065
0.002201430116
0.001684381949
0.001343845681
0.001166679941
0.001104925202
0.00110198632
0.001102668127
0.001067969755
0.0009810914129
0.0008434507455
0.0006663959166
0.0004664196807
0.0002602206881
6.254052033e-05
-0.0001159270094
-0.000271939436
-0.0004024907165
-0.0005029945201
-0.0005593005109
-0.0005690117872
-0.0005642028328
-0.0005808391797
-0.0006249956309
-0.0006774606897
-0.0007163725556
-0.0007300862911
-0.0007188106612
-0.0006900388815
-0.000652348281
-0.0006120924766
-0.000571864208
-0.0005318889192
-0.0004917648673
-0.0004512706938
-0.000410678181
-0.0003703233029
-0.0003305327953
-0.000291429329
-0.000253133481
-0.0002155474799
-0.0001788213037
-0.0001430597027
-0.0001083122898
-7.453889998e-05
-4.18326418e-05
-1.0143612e-05
2.048194754e-05
4.998023916e-05
7.849294166e-05
0.0001060052396
0.0001325648845
0.0001582229241
0.0001827603145
0.0002063819509
0.000229219345
0.0002513190235
0.0002726022104
0.0002933675328
0.0003141568785
0.0003354579478
0.0003562568136
0.0003740945346
0.0003875730064
0.0003988711821
0.0004113837301
0.0004254939109
0.0004396531179
0.0004537644798
0.0004683412493
0.0004819116322
0.0004916966375
0.0005004294592
0.0005111373941
0.0005226140461
0.0005339808731
0.0005431305344
0.0005529924795
0.0005691802169
0.0005929830639
0.0005817789953
0.0005710277397
0.0005615274936
0.0005527433465
)


101
(
-13.44329461
-0.6388479032
-0.3753572629
-0.2415703929
-0.1632942929
-0.1134610575
-0.07978102048
-0.05491791154
-0.03661507521
-0.02297977444
-0.013019456
-0.005951685982
-0.001261095232
0.001576513393
0.002983302809
0.003372771584
0.003130583359
0.002577579262
0.001965449281
0.00144116514
0.001078349548
0.0008786526338
0.000803272201
0.0008012245886
0.0008190661551
0.00081396713
0.0007630027798
0.0006619827788
0.0005183156839
0.0003459576871
0.0001604969409
-2.337682245e-05
-0.0001939689114
-0.0003459712159
-0.0004760775684
-0.000580132882
-0.0006472471188
-0.0006710575571
-0.0006688344476
-0.0006708547499
-0.0006944298953
-0.0007341986056
-0.0007730346244
-0.0007952776938
-0.0007943143385
-0.000772770878
-0.0007378520535
-0.0006970971136
-0.0006551748379
-0.0006136308248
-0.0005722844251
-0.0005308373585
-0.0004892999892
-0.0004478378517
-0.000406831405
-0.0003665729518
-0.0003271591678
-0.0002884529679
-0.0002506130358
-0.0002136894928
-0.0001777675343
-0.0001428292693
-0.0001089353546
-7.614587439e-05
-4.441281302e-05
-1.383624404e-05
1.565536914e-05
4.412242903e-05
7.16174118e-05
9.825651463e-05
0.000123829964
0.000148400403
0.0001719916589
0.0001948093685
0.0002168675009
0.000238186593
0.0002589817078
0.0002797484006
0.0003006358601
0.0003205094835
0.0003371745702
0.0003503401266
0.0003626320967
0.0003764937088
0.000391011605
0.0004053320014
0.0004196149834
0.0004338642646
0.0004459946091
0.0004555544375
0.0004661459637
0.0004778465342
0.0004896271792
0.0004997811312
0.0005101313401
0.0005249044168
0.0005468787316
0.0005360862524
0.0005255400078
0.0005147607716
0.0005039390434
)


101
(
-13.44329212
-0.6382635768
-0.3752671417
-0.2422198032
-0.1643184577
-0.1146769399
-0.08109524195
-0.05633236673
-0.03803303418
-0.02435384586
-0.01429532567
-0.007089423834
-0.00222450356
0.0007948648196
0.002380793902
0.002926345384
0.002801499823
0.00232204285
0.001740399154
0.001214484228
0.0008317222699
0.0006084997277
0.0005163941665
0.0005098667535
0.0005386860695
0.0005579537474
0.0005394367506
0.0004734002592
0.0003630223078
0.0002193987485
5.654924985e-05
-0.0001113531335
-0.0002720365556
-0.0004184029358
-0.0005462737946
-0.0006520371992
-0.0007271971918
-0.0007637651934
-0.0007688546484
-0.0007644481501
-0.0007714897781
-0.0007956822358
-0.0008280376547
-0.0008536947954
-0.0008615202475
-0.0008486020515
-0.0008188551829
-0.0007794607619
-0.0007365299755
-0.0006933453906
-0.0006505959958
-0.0006081562951
-0.0005657059661
-0.0005232322959
-0.0004810811114
-0.0004395804858
-0.0003989699813
-0.0003591034385
-0.0003201774809
-0.0002821871806
-0.0002451645796
-0.0002091210398
-0.0001740702225
-0.000140118368
-0.0001072562529
-7.555212236e-05
-4.502672256e-05
-1.554246527e-05
1.292020542e-05
4.050217403e-05
6.709639021e-05
9.265078338e-05
0.0001171613887
0.0001407555175
0.0001635674979
0.0001856031563
0.0002069604661
0.0002278096046
0.0002485193896
0.0002690513439
0.0002879631687
0.0003036168827
0.0003168235082
0.0003303747452
0.0003450914984
0.0003598912065
0.0003742340472
0.0003886849786
0.0004021911639
0.0004131930943
0.0004240902572
0.0004359567605
0.000447886689
0.0004590081332
0.0004696258786
0.0004841028046
0.0005044311431
0.0004938567207
0.0004833991524
0.0004718061131
0.0004596201535
)


101
(
-13.44329214
-0.6376543511
-0.375159148
-0.2428500079
-0.1653252906
-0.1158769199
-0.08239492814
-0.0577317789
-0.03944075963
-0.02572189771
-0.01557161298
-0.008233933707
-0.003200840936
-2.714575155e-06
0.001761355893
0.002465673481
0.002464308438
0.002066176492
0.001523306026
0.00100208197
0.0006025533025
0.0003554153296
0.0002436830681
0.0002278816717
0.0002615310433
0.0002994768832
0.0003094780194
0.0002764690078
0.000199047809
8.504518967e-05
-5.341851982e-05
-0.0002030344713
-0.0003514959711
-0.0004904974281
-0.0006144125002
-0.0007200005311
-0.0008007225636
-0.0008482934208
-0.0008630485848
-0.0008587260585
-0.0008548001973
-0.0008636944569
-0.0008852586025
-0.0009089564769
-0.0009223550793
-0.0009179231087
-0.000895128846
-0.0008591113547
-0.0008163452802
-0.0007718232219
-0.0007276082301
-0.0006840343768
-0.0006406798217
-0.0005973590072
-0.0005541159054
-0.0005113872203
-0.0004695802692
-0.0004285423217
-0.0003884874181
-0.0003494121827
-0.000311300525
-0.0002741593941
-0.000238044655
-0.0002029539696
-0.0001689106074
-0.0001359755477
-0.0001042977483
-7.375661269e-05
-4.4331364e-05
-1.586682104e-05
1.168394275e-05
3.823677501e-05
6.37689622e-05
8.827559868e-05
0.0001118677454
0.0001346851773
0.0001567910096
0.0001781661196
0.0001990401865
0.0002197148827
0.000239790201
0.0002576483525
0.0002726385757
0.0002864309912
0.0003011848661
0.0003164515851
0.0003312612563
0.0003458691251
0.0003601586278
0.0003725013945
0.0003838919628
0.0003959461464
0.0004082433292
0.000420142536
0.0004311302886
0.0004454452169
0.00046320339
0.0004524656747
0.0004420140882
0.0004311602007
0.0004212691944
)


101
(
-13.44329703
-0.6370195992
-0.3750330825
-0.2434609967
-0.1663148996
-0.1170611166
-0.08368006304
-0.05911606537
-0.04083841359
-0.02708453773
-0.01684855623
-0.009385391217
-0.004190366708
-0.0008170040782
0.001123685735
0.001988696046
0.002116363862
0.001807110645
0.001311303421
0.0008016399336
0.0003894161584
0.0001187765782
-1.530041832e-05
-4.453945944e-05
-1.189492667e-05
3.891234299e-05
7.312390192e-05
7.070612483e-05
2.541962486e-05
-5.853709697e-05
-0.0001712626478
-0.0003005472002
-0.0004344364949
-0.0005641900008
-0.0006825759707
-0.000786106212
-0.0008697421831
-0.0009258596243
-0.0009507529576
-0.0009511461927
-0.0009422274435
-0.0009387810464
-0.0009477388914
-0.0009648478354
-0.0009795403257
-0.0009817759735
-0.0009666139075
-0.0009357956508
-0.0008948601659
-0.0008497971569
-0.0008041530546
-0.0007592026359
-0.0007148172246
-0.000670628595
-0.000626438543
-0.0005826964282
-0.0005396778095
-0.0004974841141
-0.000456231288
-0.0004160247617
-0.0003768349948
-0.000338596322
-0.0003014027957
-0.000265203756
-0.000230030899
-0.000195905585
-0.0001629845756
-0.0001313230323
-0.0001008677466
-7.14513346e-05
-4.296524526e-05
-1.541861952e-05
1.110356363e-05
3.658543638e-05
6.106844648e-05
8.47175836e-05
0.000107592077
0.0001296826875
0.0001511460736
0.0001720914776
0.000192656431
0.0002120580173
0.0002290034507
0.0002437987038
0.0002586621567
0.0002743254916
0.0002898027285
0.0003046963541
0.0003194521764
0.000332971204
0.0003450708752
0.0003574412365
0.000370186459
0.0003826657392
0.0003940907198
0.000408077363
0.0004244472156
0.0004135119159
0.000402865844
0.0003918811077
0.0003820122515
)


101
(
-13.44329673
-0.6363581406
-0.3748883749
-0.2440524374
-0.167287027
-0.1182293271
-0.08495043474
-0.0604851365
-0.04222593153
-0.02844185562
-0.01812597895
-0.010543797
-0.005193279412
-0.001648722192
0.0004665220408
0.001493407203
0.001754905926
0.001541756344
0.001101197819
0.0006103431481
0.0001905292169
-0.0001019170425
-0.0002599420249
-0.0003060479504
-0.0002793041217
-0.0002211752905
-0.0001676722757
-0.0001428911668
-0.000157791795
-0.0002119993821
-0.0002982457601
-0.0004057887741
-0.0005232446185
-0.0006418116096
-0.000753004562
-0.0008526262775
-0.0009365096352
-0.0009982160875
-0.001032286544
-0.001040171676
-0.001031566865
-0.00102019024
-0.001017136864
-0.001024544758
-0.001036038693
-0.00104170705
-0.001033484248
-0.001009165077
-0.0009719177026
-0.0009275811409
-0.0008809159946
-0.0008344781175
-0.0007888354421
-0.0007436758509
-0.000698684784
-0.000653996865
-0.0006098535693
-0.0005664584116
-0.0005239899522
-0.0004825832882
-0.0004422749428
-0.0004029570423
-0.0003646749337
-0.0003273983076
-0.0002911388789
-0.0002559305694
-0.0002217757342
-0.0001888897919
-0.0001572852613
-0.0001268324255
-9.740846235e-05
-6.89206839e-05
-4.137306589e-05
-1.48510232e-05
1.061446247e-05
3.511171564e-05
5.878314846e-05
8.167897749e-05
0.0001038634193
0.0001253694267
0.0001463687011
0.0001667184164
0.000185347692
0.0002016398052
0.000216948048
0.000232851708
0.0002490195313
0.0002644638702
0.0002795835551
0.0002941264629
0.0003071101802
0.000319831966
0.0003330150389
0.0003460768997
0.0003580828843
0.0003716056633
0.0003864717539
0.0003755526792
0.0003647949266
0.0003530274555
0.0003417140565
)


101
(
-13.44329653
-0.6356691747
-0.3747248641
-0.244624258
-0.1682415956
-0.1193814471
-0.08620571887
-0.06183872258
-0.04360358138
-0.0297941937
-0.0194034958
-0.01170895539
-0.006209567629
-0.002498183121
-0.0002109242911
0.000978255925
0.001377271619
0.001266671678
0.0008893711994
0.0004250069131
3.930108266e-06
-0.0003070033131
-0.0004890263216
-0.0005548477092
-0.0005382992179
-0.0004781118143
-0.0004106876022
-0.000362984617
-0.0003501684357
-0.0003756779116
-0.0004352507352
-0.0005201062952
-0.0006197244306
-0.0007253326453
-0.0008276188
-0.000921553107
-0.001003262109
-0.001067549059
-0.001108757997
-0.001125002842
-0.001120659602
-0.001106154697
-0.001093691
-0.001090294082
-0.001094834569
-0.001099969239
-0.001096561227
-0.001078951292
-0.001046966633
-0.001004980799
-0.0009581763695
-0.0009104279193
-0.000863377628
-0.0008170917709
-0.0007712258176
-0.0007255708917
-0.0006804543458
-0.0006359158809
-0.0005922904837
-0.0005496403404
-0.0005081522889
-0.0004677014937
-0.0004283146658
-0.0003899767152
-0.0003526662859
-0.0003163920869
-0.000281105027
-0.0002469808183
-0.0002141200476
-0.000182536073
-0.0001520923798
-0.0001226633015
-9.412615539e-05
-6.65563477e-05
-4.003553861e-05
-1.457366105e-05
9.958806727e-06
3.367239727e-05
5.664198137e-05
7.887727955e-05
0.0001004793441
0.0001214916309
0.0001414264686
0.0001593564816
0.0001755389568
0.0001916972195
0.0002084520479
0.0002246663256
0.0002403016323
0.0002555222953
0.000269539638
0.000282733746
0.0002963392544
0.0003099359371
0.000322622595
0.0003359466752
0.0003495096588
0.0003377318326
0.0003263307581
0.0003144818296
0.0003033872739
)


101
(
-13.44329152
-0.6349515394
-0.3745420455
-0.2451761621
-0.1691783628
-0.1205173114
-0.08744563225
-0.06317649638
-0.04497135727
-0.0311418702
-0.02068074104
-0.01288056408
-0.007239131542
-0.003365569
-0.0009092749875
0.0004419240367
0.000981141717
0.0009786024898
0.0006722672918
0.0002421905133
-0.0001729892846
-0.0004977512456
-0.0007024506988
-0.0007901303235
-0.0007879803452
-0.000730960109
-0.0006549161583
-0.0005887084474
-0.0005511563991
-0.0005495064234
-0.0005827153168
-0.0006442299346
-0.0007247244022
-0.0008158016746
-0.0009076049658
-0.0009943019608
-0.001071860335
-0.001136039466
-0.001181823638
-0.001205617097
-0.001207736232
-0.001194402536
-0.001176383376
-0.001163197638
-0.001158594923
-0.00115938643
-0.001157560487
-0.001145448339
-0.001119489947
-0.001081422712
-0.001035775913
-0.0009873027827
-0.000938879215
-0.0008912890269
-0.0008443923748
-0.0007978312538
-0.0007517803183
-0.000706222811
-0.0006614520497
-0.0006175879373
-0.0005748834221
-0.0005332539481
-0.0004926921265
-0.0004532604805
-0.0004149277191
-0.0003775733506
-0.0003412183612
-0.0003058933798
-0.0002717796194
-0.0002389797021
-0.0002074019161
-0.0001769565616
-0.0001474661062
-0.0001188938035
-9.129381918e-05
-6.473539053e-05
-3.92456611e-05
-1.466425766e-05
9.148115136e-06
3.218362364e-05
5.454025386e-05
7.62316628e-05
9.713815868e-05
0.0001165434721
0.0001340255819
0.000150694789
0.0001678598102
0.000184872961
0.0002012127149
0.000216967923
0.0002319708478
0.0002457611483
0.0002600079801
0.000274076367
0.0002874722313
0.0003006867633
0.0003133099164
0.000301027732
0.0002891429913
0.0002770222524
0.0002636210319
)


101
(
-13.44328651
-0.6342045555
-0.3743396509
-0.2457080245
-0.17009715
-0.1216367616
-0.08867013675
-0.06449831615
-0.04632886435
-0.03248481165
-0.02195791397
-0.01405814592
-0.008281817868
-0.004251338245
-0.001629531458
-0.0001171918487
0.0005645593059
0.000675213914
0.0004473752385
5.995208446e-05
-0.0003421119942
-0.0006757056702
-0.0009012540342
-0.001011939885
-0.001027697153
-0.000978834202
-0.0008993849898
-0.0008191422684
-0.0007600244575
-0.0007331196522
-0.0007407935444
-0.0007787482233
-0.000838972173
-0.0009140558997
-0.0009939268003
-0.001072070819
-0.00114394604
-0.001205778082
-0.001253442942
-0.001282864965
-0.001291895007
-0.001282762006
-0.001263256942
-0.001242975776
-0.001228999532
-0.001222636918
-0.001218809145
-0.00120978716
-0.001189428276
-0.001156335371
-0.001113342986
-0.001065153163
-0.001015642757
-0.0009666738925
-0.0009186007432
-0.0008711035593
-0.0008241076906
-0.0007775888943
-0.0007317147382
-0.0006866708208
-0.0006426941277
-0.0005998621336
-0.000558107274
-0.000517539645
-0.0004781053147
-0.0004396820788
-0.0004022755789
-0.000365828884
-0.0003305364402
-0.0002964583382
-0.00026365101
-0.0002320789691
-0.0002015832551
-0.0001720567642
-0.0001434340644
-0.000115742478
-8.913950469e-05
-6.354188797e-05
-3.888500322e-05
-1.498473202e-05
8.215723818e-06
3.069612699e-05
5.245641184e-05
7.308063542e-05
9.197354822e-05
0.0001095186671
0.0001271161786
0.000144840385
0.0001620224285
0.0001784168864
0.000194315365
0.0002088089271
0.0002237250743
0.0002384130375
0.0002524690411
0.0002657700183
0.000277952608
0.0002652049094
0.0002529311949
0.0002407277576
0.0002296443193
)


101
(
-13.44329651
-0.6334277628
-0.3741176662
-0.2462198692
-0.1709979298
-0.122739743
-0.08987925857
-0.06580406569
-0.04767570965
-0.03382285672
-0.02323545075
-0.01524109047
-0.009337231022
-0.005155882281
-0.002372685077
-0.0007007391465
0.0001256607593
0.0003546295715
0.0002126880557
-0.0001229055206
-0.0005048000915
-0.0008421507188
-0.001086507272
-0.00122050871
-0.001256789387
-0.001220568483
-0.001142758499
-0.001053165163
-0.0009761515608
-0.0009263471171
-0.0009095667765
-0.000924028681
-0.000963227283
-0.00102103545
-0.0010876058
-0.001155994796
-0.001220956185
-0.001278655401
-0.001325696468
-0.0013583188
-0.001373213619
-0.001369673363
-0.001352080026
-0.001328211805
-0.001306392168
-0.001291628031
-0.001282719248
-0.001273729848
-0.001257366719
-0.001229484016
-0.00119041921
-0.001143768547
-0.001093809948
-0.001043584482
-0.0009941786016
-0.0009455553781
-0.0008975987113
-0.0008501287511
-0.0008032278859
-0.0007570319161
-0.0007118020224
-0.0006677242914
-0.0006247865456
-0.0005830436687
-0.0005424073612
-0.0005029205673
-0.0004644385967
-0.0004269261764
-0.0003904584018
-0.0003551179295
-0.0003210564622
-0.0002882562058
-0.0002566574377
-0.0002261379774
-0.0001965444891
-0.0001677829485
-0.0001399477807
-0.0001132414655
-8.758367142e-05
-6.277921852e-05
-3.874272211e-05
-1.538912165e-05
7.289698681e-06
2.896493774e-05
4.92012665e-05
6.786819295e-05
8.610938507e-05
0.0001044661216
0.000122560055
0.0001397681315
0.0001564618412
0.0001718943698
0.0001873267591
0.0002027860667
0.0002175385219
0.0002310370357
0.0002426944398
0.0002296280276
0.000217124401
0.0002050304331
0.0001949034798
)


101
(
-13.44329651
-0.6326188232
-0.373875827
-0.2467109484
-0.1718801737
-0.1238259437
-0.09107278376
-0.06709344254
-0.04901090938
-0.03515531658
-0.02451340558
-0.01642899309
-0.01040484941
-0.006079195335
-0.003139196096
-0.001309832076
-0.0003373608674
1.453911026e-05
-3.469418472e-05
-0.0003092982342
-0.0006638117244
-0.0009992719333
-0.0012593262
-0.001416005858
-0.001474352191
-0.001454383383
-0.001383044294
-0.001289122529
-0.001198543748
-0.001128835448
-0.001088984236
-0.001080165614
-0.001097933837
-0.001137436965
-0.001189450741
-0.001246942373
-0.001303957231
-0.0013561676
-0.001400487353
-0.001433786879
-0.001452580225
-0.001454516512
-0.001440946599
-0.001416864057
-0.001389902649
-0.001367193473
-0.001351262295
-0.001339229627
-0.001324437828
-0.001300990166
-0.001266498011
-0.001222626953
-0.001173224076
-0.001122122197
-0.001071366017
-0.001021456334
-0.000972431136
-0.0009239642196
-0.0008760794638
-0.0008287922902
-0.0007823774232
-0.0007370245563
-0.0006928762324
-0.0006499014282
-0.0006080344272
-0.000567414954
-0.0005278166376
-0.0004892192662
-0.0004516014617
-0.000415078174
-0.0003797598008
-0.0003456574547
-0.000312850587
-0.0002812180124
-0.0002506104924
-0.0002208691664
-0.0001919209671
-0.0001639850298
-0.0001371426266
-0.0001113618742
-8.646378688e-05
-6.216412404e-05
-3.856050922e-05
-1.585935474e-05
5.656492743e-06
2.558409085e-05
4.470151882e-05
6.372948533e-05
8.272003351e-05
0.0001008638607
0.0001182806635
0.0001348277081
0.0001508522567
0.0001670615648
0.0001826792673
0.0001963670337
0.000207467984
0.0001944415869
0.0001819576184
0.0001697945956
0.0001569910095
)


101
(
-13.44328651
-0.6317765553
-0.3736127458
-0.2471809705
-0.1727436542
-0.1248952602
-0.0922506668
-0.06836633359
-0.05033291011
-0.03648037246
-0.02579166776
-0.01762187825
-0.01148440435
-0.007020869934
-0.003928543805
-0.001944096266
-0.0008250024004
-0.0003466612325
-0.0002975666003
-0.0005040212326
-0.0008235062696
-0.001150537384
-0.001421303661
-0.001598919887
-0.001679820672
-0.001678723927
-0.0016182623
-0.001525096393
-0.001425663756
-0.001339592086
-0.00127866341
-0.001247219562
-0.001243427284
-0.00126384802
-0.001300129259
-0.001345508747
-0.001393542719
-0.001439207146
-0.00147925951
-0.001511058054
-0.00153150456
-0.001537628329
-0.001528707016
-0.001506938312
-0.001477944034
-0.001449133033
-0.001425665054
-0.00140816057
-0.001392202242
-0.001371468633
-0.001341361955
-0.001301169924
-0.001253460006
-0.001202158198
-0.001150249161
-0.001099036851
-0.001048814039
-0.0009992636775
-0.000950407864
-0.000902113574
-0.0008545167776
-0.000807920302
-0.0007624978586
-0.0007182350283
-0.0006751402426
-0.0006332650982
-0.0005924953458
-0.000552788008
-0.0005140574738
-0.0004763876178
-0.0004397863955
-0.0004043913581
-0.000370295079
-0.0003374279411
-0.0003057164171
-0.0002749999319
-0.000245035252
-0.0002158593681
-0.0001877718487
-0.0001608525471
-0.0001349456783
-0.0001097009048
-8.515455544e-05
-6.141966707e-05
-3.866822198e-05
-1.744821494e-05
2.743379619e-06
2.256795037e-05
4.243615627e-05
6.158489518e-05
7.983081908e-05
9.746529719e-05
0.0001143315873
0.0001312929749
0.0001478389765
0.0001617774359
0.0001724825574
0.0001596044484
0.0001472365713
0.0001350009487
0.0001236387911
)


101
(
-13.44329653
-0.6309010763
-0.3733278363