/*--------------------------------*- C++ -*----------------------------------*\
| =========                 |                                                 |
| \\      /  F ield         | OpenFOAM: The Open Source CFD Toolbox           |
|  \\    /   O peration     | Version:  2.3.1                                 |
|   \\  /    A nd           | Web:      www.OpenFOAM.org                      |
|    \\/     M anipulation  |                                                 |
\*---------------------------------------------------------------------------*/
FoamFile
{
    version     2.0;
    format      ascii;
    class       dictionary;
    location    "constant";
    object      PM21;
}
// * * * * * * * * * * * * * * * * * * * * * * * * * * * * * * * * * * * * * //

PM21_table
101
(

101
(
3.295314348e-14
1.535382097e-16
-1.030903166e-15
-6.191280586e-16
-4.532140062e-17
1.341850608e-16
-3.663271584e-17
1.502555335e-16
1.218227104e-16
-1.354615772e-16
-2.555670754e-16
-4.359476429e-16
-8.178864524e-16
-9.315052264e-16
-1.094474843e-15
-1.451209957e-15
-2.065374157e-15
-1.8262274e-15
-3.927135424e-15
-3.867012215e-15
-4.412247019e-15
-6.475095986e-15
-6.438550921e-15
-5.81731317e-15
-5.174313518e-15
-4.273673787e-15
-3.163812063e-15
-2.218640992e-15
-1.290280818e-15
-5.545721411e-16
-5.187377009e-17
-3.145692619e-17
9.33888906e-16
9.7732656e-16
1.251443134e-15
3.909747207e-15
3.274008519e-15
-7.064766075e-15
-4.576003145e-15
-1.956987989e-15
-1.815498313e-15
-1.852395427e-15
-2.00464416e-15
-2.210531789e-15
-2.138046168e-15
-2.075277618e-15
-1.955396851e-15
-1.881552134e-15
-1.768482314e-15
-1.692479119e-15
-1.601963783e-15
-1.500214058e-15
-1.414799653e-15
-1.333848831e-15
-1.255878302e-15
-1.172695115e-15
-1.045203754e-15
-9.178539059e-16
-7.660185566e-16
-6.204336885e-16
-3.845542258e-16
-2.062606214e-16
-2.651651394e-17
2.037426346e-16
4.430902101e-16
6.807483553e-16
9.138075153e-16
1.190375872e-15
1.488551093e-15
1.789742859e-15
2.140345e-15
2.51005485e-15
3.08273894e-15
6.621457983e-15
3.18302278e-15
-2.690815832e-15
-1.64592561e-15
8.43778436e-16
1.75881868e-15
2.34104188e-15
3.065537224e-15
4.119213216e-15
7.282459974e-15
1.59949018e-15
-9.133240671e-16
1.312904114e-15
2.747169758e-15
4.07123596e-15
8.298815236e-15
1.426016388e-15
1.203144896e-15
5.98329288e-15
4.70856286e-15
6.760132137e-15
3.458149277e-15
2.715669536e-15
2.639401581e-16
4.714642965e-22
-1.015483627e-31
-3.881110933e-32
1.66393605e-31
)


101
(
3.248720194e-14
5.156867156e-17
-1.023517487e-15
-5.391556921e-16
6.022499451e-17
2.664418152e-16
1.495429298e-16
3.761672548e-16
4.168668319e-16
2.671783591e-16
2.532067421e-16
1.931250965e-16
-2.616914836e-17
2.902724892e-18
2.20812192e-17
-6.228382565e-17
-2.831596138e-16
2.503480602e-16
-9.72361192e-16
-4.699505447e-16
-4.811767322e-16
-1.622964036e-15
-1.366163191e-15
-9.000574514e-16
-5.303601586e-16
-1.181401253e-16
3.245988111e-16
6.080493693e-16
8.821751223e-16
1.060022473e-15
1.147011773e-15
9.804255711e-16
1.434277116e-15
1.360064412e-15
1.542358935e-15
3.128423232e-15
2.970394104e-15
-2.440006217e-15
-9.848825453e-16
-3.390470688e-16
-8.040439302e-18
1.841603653e-16
2.389508545e-16
2.990095921e-16
5.075166529e-16
7.171035323e-16
9.802845429e-16
1.211061642e-15
1.470195342e-15
1.705542541e-15
1.955831727e-15
2.205513846e-15
2.44505007e-15
2.696286834e-15
2.968452431e-15
3.256825088e-15
3.558349046e-15
3.863580753e-15
4.185556844e-15
4.504492183e-15
4.869193938e-15
5.209172294e-15
5.551391142e-15
5.910035324e-15
6.3150467e-15
6.730676229e-15
7.115841452e-15
7.492060531e-15
7.888487658e-15
8.282951518e-15
8.665295071e-15
8.987116487e-15
9.354322669e-15
1.085468569e-14
9.960538633e-15
8.683554755e-15
8.689488526e-15
8.690958616e-15
8.911848918e-15
9.329248222e-15
9.819240327e-15
1.034473773e-14
1.171752282e-14
1.05024273e-14
1.02409139e-14
9.619708421e-15
9.515941163e-15
1.004842963e-14
1.159007586e-14
1.069480118e-14
1.136665454e-14
1.132086066e-14
1.176392498e-14
1.338907666e-14
1.272755604e-14
1.054643267e-14
8.116781474e-15
1.080397309e-14
1.12105444e-14
1.153123244e-14
1.136399246e-14
)


101
(
3.202203059e-14
-1.515273142e-17
-9.868952707e-16
-5.185146019e-16
2.602462846e-17
1.770968073e-16
7.686076666e-18
1.406932084e-16
1.331476453e-16
-3.698537215e-17
-7.173442664e-17
-1.076098762e-16
-2.479161652e-16
-1.644933314e-16
-2.663891801e-17
5.861926146e-17
4.860962761e-17
6.375576409e-16
2.676030329e-18
4.150263547e-16
7.223806945e-16
1.299533026e-16
3.078848521e-16
8.716456721e-16
1.429071306e-15
1.991876828e-15
2.575221679e-15
3.060630749e-15
3.508476091e-15
3.898653213e-15
4.219558474e-15
4.366060786e-15
4.822086767e-15
5.112065894e-15
5.418856904e-15
6.561695761e-15
7.315161657e-15
4.640166602e-15
4.083552152e-15
4.64149431e-15
5.172914501e-15
5.57502902e-15
5.870259254e-15
6.107513632e-15
6.406233878e-15
6.758227914e-15
7.14039837e-15
7.524907801e-15
7.914853054e-15
8.303615624e-15
8.694155509e-15
9.09425947e-15
9.50465795e-15
9.936542648e-15
1.038945818e-14
1.085724195e-14
1.133058933e-14
1.181949759e-14
1.231888006e-14
1.282406657e-14
1.335672352e-14
1.38931603e-14
1.444046014e-14
1.502453762e-14
1.564819738e-14
1.625744385e-14
1.684990943e-14
1.743567647e-14
1.804664962e-14
1.866281768e-14
1.926843656e-14
1.984650489e-14
2.041372354e-14
2.139519316e-14
2.194865617e-14
2.18208619e-14
2.168527909e-14
2.152430277e-14
2.139917909e-14
2.159054565e-14
2.210217391e-14
2.271815274e-14
2.361059565e-14
2.407019035e-14
2.41722126e-14
2.385099529e-14
2.330454451e-14
2.330860852e-14
2.435013163e-14
2.511862146e-14
2.558042102e-14
2.594976783e-14
2.650139257e-14
2.835381883e-14
2.879255458e-14
2.264666297e-14
2.044405592e-14
2.470531925e-14
2.619649162e-14
2.746741594e-14
2.711329568e-14
)


101
(
3.155764546e-14
-8.118133761e-17
-9.506395262e-16
-4.943842509e-16
9.438117621e-19
1.037888964e-16
-1.091989747e-16
-5.562019391e-17
-1.016557794e-16
-2.813914539e-16
-3.244746026e-16
-3.301120026e-16
-3.915910932e-16
-2.488134117e-16
-6.059209101e-18
2.269132948e-16
3.975617967e-16
1.040380899e-15
8.483735734e-16
1.25603519e-15
1.759432189e-15
1.594826291e-15
1.789870235e-15
2.382079678e-15
3.051444644e-15
3.722502516e-15
4.40123095e-15
5.019154286e-15
5.593091678e-15
6.129387004e-15
6.617535565e-15
6.993022085e-15
7.511456368e-15
8.011234358e-15
8.452977122e-15
9.507992339e-15
1.05090725e-14
9.461635234e-15
8.645159595e-15
8.757408118e-15
9.228551313e-15
9.744872263e-15
1.020080765e-14
1.059335222e-14
1.100498872e-14
1.14678706e-14
1.19539646e-14
1.245214973e-14
1.294689824e-14
1.344928767e-14
1.394973366e-14
1.44616417e-14
1.498337865e-14
1.552360041e-14
1.609367506e-14
1.667095037e-14
1.726948884e-14
1.788868239e-14
1.851864683e-14
1.915223218e-14
1.980827147e-14
2.048188149e-14
2.117370719e-14
2.189290722e-14
2.263638587e-14
2.337499626e-14
2.41062396e-14
2.484654927e-14
2.561141908e-14
2.638864002e-14
2.714554451e-14
2.791276298e-14
2.865541173e-14
2.954364581e-14
3.044106283e-14
3.106717066e-14
3.142442308e-14
3.151968581e-14
3.139299838e-14
3.135058997e-14
3.165071721e-14
3.226729739e-14
3.311344079e-14
3.395659921e-14
3.46295877e-14
3.491654548e-14
3.452849509e-14
3.405469967e-14
3.441274989e-14
3.541629501e-14
3.661437984e-14
3.729791857e-14
3.806454799e-14
3.965855054e-14
3.911595263e-14
3.156877259e-14
3.188029903e-14
3.948455569e-14
4.158797883e-14
4.34624855e-14
4.301968526e-14
)


101
(
3.109406289e-14
-1.465108935e-16
-9.148062903e-16
-4.670418846e-16
-1.572155897e-17
4.498483048e-17
-2.04090476e-16
-2.182615256e-16
-2.958497801e-16
-4.786463267e-16
-5.230004194e-16
-4.978225581e-16
-4.864200422e-16
-2.866397762e-16
4.370396623e-17
3.988797279e-16
7.178993752e-16
1.406065433e-15
1.540219917e-15
1.985292667e-15
2.605457304e-15
2.758622424e-15
3.019672349e-15
3.612930683e-15
4.336478556e-15
5.076934981e-15
5.819046667e-15
6.524024655e-15
7.188878474e-15
7.829001304e-15
8.443244857e-15
8.985699476e-15
9.592058854e-15
1.023574635e-14
1.086191046e-14
1.191002993e-14
1.290367244e-14
1.286910538e-14
1.241234682e-14
1.232372149e-14
1.265455312e-14
1.317275495e-14
1.371974457e-14
1.424153697e-14
1.476709424e-14
1.532906704e-14
1.591127771e-14
1.650729964e-14
1.710582028e-14
1.770828812e-14
1.830630201e-14
1.891018047e-14
1.952525041e-14
2.015794784e-14
2.081156424e-14
2.147308126e-14
2.216817827e-14
2.287853692e-14
2.360334617e-14
2.433124436e-14
2.507855527e-14
2.585160851e-14
2.664090817e-14
2.746010886e-14
2.829510198e-14
2.913431549e-14
2.998214889e-14
3.084432799e-14
3.171030212e-14
3.259065762e-14
3.345504192e-14
3.434486815e-14
3.522746502e-14
3.615983723e-14
3.71406366e-14
3.806969883e-14
3.888802825e-14
3.947387717e-14
3.965448862e-14
3.959599029e-14
3.965044466e-14
4.012771501e-14
4.096747987e-14
4.192602922e-14
4.285529387e-14
4.363958287e-14
4.382012031e-14
4.346962172e-14
4.337891944e-14
4.416870943e-14
4.549717473e-14
4.67982698e-14
4.744901608e-14
4.907462814e-14
4.823819326e-14
4.045043968e-14
4.361487726e-14
5.338380248e-14
5.563821003e-14
5.747552595e-14
5.67538736e-14
)


101
(
3.063129946e-14
-2.111400924e-16
-8.794479373e-16
-4.367579961e-16
-2.464452164e-17
-7.415522171e-19
-2.796983085e-16
-3.52090805e-16
-4.566096542e-16
-6.393311087e-16
-6.821138624e-16
-6.296333463e-16
-5.553664051e-16
-3.062324079e-16
9.223985886e-17
5.422911405e-16
9.767844932e-16
1.696850518e-15
2.06230636e-15
2.557875429e-15
3.241510159e-15
3.6172746e-15
3.958989068e-15
4.543859226e-15
5.279832473e-15
6.054625799e-15
6.834474118e-15
7.59410094e-15
8.322139275e-15
9.038103346e-15
9.746833886e-15
1.041602397e-14
1.112088035e-14
1.187005025e-14
1.262577774e-14
1.362802097e-14
1.472787534e-14
1.527837852e-14
1.531174787e-14
1.533410489e-14
1.560760813e-14
1.609219659e-14
1.667660908e-14
1.728888107e-14
1.791771304e-14
1.858261499e-14
1.927486212e-14
1.998947465e-14
2.070802578e-14
2.142078212e-14
2.212728364e-14
2.283361888e-14
2.355172551e-14
2.428814608e-14
2.504433956e-14
2.580570196e-14
2.658886314e-14
2.739930221e-14
2.821783212e-14
2.903604882e-14
2.988386325e-14
3.075741143e-14
3.164123164e-14
3.25521388e-14
3.347646983e-14
3.440969957e-14
3.534986948e-14
3.629549951e-14
3.726112602e-14
3.822913888e-14
3.918203283e-14
4.015466938e-14
4.113859097e-14
4.2141634e-14
4.316629195e-14
4.420304997e-14
4.525002782e-14
4.617384547e-14
4.67788229e-14
4.698349596e-14
4.698529551e-14
4.724584139e-14
4.794738838e-14
4.893484613e-14
4.998460281e-14
5.102387903e-14
5.171527095e-14
5.171094787e-14
5.15631931e-14
5.198067026e-14
5.327290956e-14
5.489106454e-14
5.586233555e-14
5.757035296e-14
5.669039969e-14
4.855233717e-14
5.37697315e-14
6.553209891e-14
7.009102022e-14
7.406989539e-14
7.332580381e-14
)


101
(
3.016937285e-14
-2.750339297e-16
-8.446130872e-16
-4.037889932e-16
-2.644957806e-17
-3.472081256e-17
-3.385431238e-16
-4.614771951e-16
-5.900661381e-16
-7.721719018e-16
-8.138280074e-16
-7.405096112e-16
-6.163661524e-16
-3.294528402e-16
1.161800429e-16
6.32721304e-16
1.149329742e-15
1.883690115e-15
2.402449113e-15
2.941862821e-15
3.649807966e-15
4.167964601e-15
4.581474897e-15
5.15313332e-15
5.872329351e-15
6.650224357e-15
7.444030802e-15
8.233188016e-15
9.00204265e-15
9.771583737e-15
1.054951708e-14
1.132150659e-14
1.212614964e-14
1.297229854e-14
1.384830896e-14
1.487789104e-14
1.604407161e-14
1.696185153e-14
1.746187123e-14
1.776661553e-14
1.813028274e-14
1.86327765e-14
1.925512801e-14
1.994540438e-14
2.068086264e-14
2.147179071e-14
2.230856187e-14
2.318074511e-14
2.406141545e-14
2.493800216e-14
2.580893518e-14
2.667335561e-14
2.755536604e-14
2.84641115e-14
2.938927582e-14
3.031419799e-14
3.126370652e-14
3.223520523e-14
3.320864778e-14
3.418444905e-14
3.518900578e-14
3.620925649e-14
3.723290006e-14
3.827774769e-14
3.933355546e-14
4.038909964e-14
4.143909878e-14
4.249270292e-14
4.355656908e-14
4.461630554e-14
4.567245147e-14
4.671760179e-14
4.776763924e-14
4.882171862e-14
4.988003017e-14
5.094449251e-14
5.2035725e-14
5.309690103e-14
5.401393745e-14
5.456202414e-14
5.469432422e-14
5.476156176e-14
5.520506069e-14
5.606926857e-14
5.712436622e-14
5.820815966e-14
5.916865292e-14
5.963606549e-14
5.958328615e-14
5.97227856e-14
6.077072111e-14
6.246064312e-14
6.384958461e-14
6.559958683e-14
6.437194323e-14
5.617272884e-14
6.46788201e-14
7.897431629e-14
8.429016019e-14
8.88667626e-14
8.790904998e-14
)


101
(
2.970829954e-14
1.260060195e-14
5.995616255e-15
-3.683777662e-16
-2.171248683e-17
-5.81669688e-17
-3.829312285e-16
-5.503822974e-16
-7.015461319e-16
-8.845328062e-16
-9.280650085e-16
-8.425735874e-16
-6.835091189e-16
-3.731287713e-16
9.793362173e-17
6.524020553e-16
1.217969065e-15
1.946170835e-15
2.55326395e-15
3.117668743e-15
3.818110278e-15
4.411525101e-15
4.873796079e-15
5.425635261e-15
6.107295553e-15
6.861566133e-15
7.646625431e-15
8.444062843e-15
9.235292549e-15
1.004139891e-14
1.087183043e-14
1.172497607e-14
1.262577634e-14
1.356882218e-14
1.456369814e-14
1.566843737e-14
1.69094701e-14
1.807862761e-14
1.897920565e-14
1.964683446e-14
2.024344901e-14
2.088351925e-14
2.161540611e-14
2.24278291e-14
2.331417029e-14
2.428799967e-14
2.534081362e-14
2.645796649e-14
2.760698665e-14
2.876389058e-14
2.991066493e-14
3.105643124e-14
3.223189048e-14
3.343161276e-14
3.465291394e-14
3.588399623e-14
3.712771313e-14
3.837917014e-14
3.963014033e-14
4.087007934e-14
4.212957816e-14
4.339747456e-14
4.464329648e-14
4.590097793e-14
4.715349688e-14
4.83926841e-14
4.96195976e-14
5.082527681e-14
5.200997056e-14
5.316846549e-14
5.430204035e-14
5.539261e-14
5.649323275e-14
5.758630235e-14
5.864920155e-14
5.969637238e-14
6.074726219e-14
6.179208891e-14
6.279565619e-14
6.354651315e-14
6.386841158e-14
6.386698543e-14
6.400754829e-14
6.456137106e-14
6.547767312e-14
6.644667325e-14
6.740964592e-14
6.812597172e-14
6.824289337e-14
6.825084508e-14
6.889961523e-14
7.036095386e-14
7.199120463e-14
7.370755852e-14
7.240595643e-14
6.470502308e-14
7.594268127e-14
9.255930912e-14
9.880276914e-14
1.041482392e-13
1.030400392e-13
)


101
(
2.924809786e-14
1.253089204e-14
6.025096036e-15
-3.307383726e-16
-1.09633944e-17
-7.213702185e-17
-4.14786995e-16
-6.221071999e-16
-7.955433942e-16
-9.824893396e-16
-1.032858777e-15
-9.455006067e-16
-7.677766827e-16
-4.502205349e-16
2.411292053e-17
5.882514171e-16
1.170313737e-15
1.8700059e-15
2.510574632e-15
3.073823e-15
3.738460759e-15
4.351153392e-15
4.831954705e-15
5.353241834e-15
5.981750325e-15
6.690341902e-15
7.445404881e-15
8.231481271e-15
9.028264347e-15
9.85652411e-15
1.072640631e-14
1.164497944e-14
1.263632483e-14
1.367858505e-14
1.479684589e-14
1.601227281e-14
1.736086223e-14
1.874303054e-14
1.99992568e-14
2.107430826e-14
2.203393092e-14
2.296433984e-14
2.394129196e-14
2.499235847e-14
2.613734645e-14
2.740415206e-14
2.87938463e-14
3.029755764e-14
3.186630481e-14
3.345438062e-14
3.503942867e-14
3.66384777e-14
3.825745426e-14
3.990066919e-14
4.15760165e-14
4.32342792e-14
4.489292318e-14
4.653815815e-14
4.817578151e-14
4.978500521e-14
5.138570708e-14
5.296716365e-14
5.449878444e-14
5.602594352e-14
5.752611579e-14
5.898478329e-14
6.039850353e-14
6.173910683e-14
6.301764134e-14
6.426224552e-14
6.546923652e-14
6.662883539e-14
6.775431811e-14
6.881665212e-14
6.983189958e-14
7.082923922e-14
7.177858481e-14
7.270629863e-14
7.362938609e-14
7.44170147e-14
7.485766633e-14
7.489495744e-14
7.477308756e-14
7.49428126e-14
7.552183148e-14
7.627617107e-14
7.709546417e-14
7.778178641e-14
7.804078755e-14
7.789660301e-14
7.808341408e-14
7.924434806e-14
8.095233212e-14
8.251861898e-14
8.114199738e-14
7.326656164e-14
8.732593866e-14
1.067537174e-13
1.135015798e-13
1.194200797e-13
1.183813945e-13
)


101
(
2.878878569e-14
-4.62160166e-16
-7.436556192e-16
4.208343366e-15
5.323983338e-18
-7.758011202e-17
-4.357469475e-16
-6.793852555e-16
-8.759064098e-16
-1.071138071e-15
-1.134757719e-15
-1.056947938e-15
-8.776327041e-16
-5.705441981e-16
-1.152614657e-16
4.308653527e-16
9.979557615e-16
1.645672101e-15
2.272840376e-15
2.80489448e-15
3.406908824e-15
3.991487674e-15
4.457055823e-15
4.932469866e-15
5.493512225e-15
6.13692393e-15
6.841796672e-15
7.598044594e-15
8.38517988e-15
9.223469423e-15
1.012333865e-14
1.109795175e-14
1.217710634e-14
1.33248196e-14
1.458077261e-14
1.594680973e-14
1.745687529e-14
1.907338057e-14
2.068653967e-14
2.221419892e-14
2.3653888e-14
2.504163866e-14
2.644773658e-14
2.79128998e-14
2.947671859e-14
3.118341516e-14
3.304802617e-14
3.506876868e-14
3.718126571e-14
3.933652349e-14
4.150521088e-14
4.368445418e-14
4.586242992e-14
4.805501126e-14
5.023230683e-14
5.238223011e-14
5.451681747e-14
5.660339129e-14
5.866927827e-14
6.066365367e-14
6.261374683e-14
6.450563402e-14
6.632782246e-14
6.810305248e-14
6.980544651e-14
7.142836685e-14
7.298713661e-14
7.443520192e-14
7.581157874e-14
7.713049779e-14
7.836889816e-14
7.951987939e-14
8.060162832e-14
8.163240698e-14
8.257373227e-14
8.344919008e-14
8.425099696e-14
8.504905311e-14
8.580811561e-14
8.646386204e-14
8.69160482e-14
8.702359166e-14
8.675687448e-14
8.65605051e-14
8.669053513e-14
8.716634363e-14
8.772686141e-14
8.823340759e-14
8.850606491e-14
8.827973519e-14
8.810926446e-14
8.88829983e-14
9.041595539e-14
9.181065965e-14
9.031860519e-14
8.24349012e-14
9.901531524e-14
1.205255614e-13
1.268848749e-13
1.325234381e-13
1.315394333e-13
)


101
(
2.833039339e-14
-5.229312562e-16
-7.112729734e-16
4.249894405e-15
2.671150313e-17
-7.536099624e-17
-4.47288607e-16
-7.246505592e-16
-9.459575991e-16
-1.154765291e-15
-1.239091992e-15
-1.182957982e-15
-1.019488503e-15
-7.412486786e-16
-3.272112418e-16
1.740228276e-16
6.95959702e-16
1.267830918e-15
1.840824567e-15
2.310317694e-15
2.823168166e-15
3.3382192e-15
3.752910886e-15
4.162742502e-15
4.640292585e-15
5.200205627e-15
5.83659775e-15
6.546813795e-15
7.311500213e-15
8.15090179e-15
9.076328989e-15
1.010587142e-14
1.127885448e-14
1.254791807e-14
1.397038885e-14
1.553819378e-14
1.728060485e-14
1.919273647e-14
2.120742007e-14
2.324814608e-14
2.527606917e-14
2.727839696e-14
2.92927706e-14
3.135128886e-14
3.34957289e-14
3.577398639e-14
3.82086311e-14
4.080970176e-14
4.352576778e-14
4.630825205e-14
4.910733613e-14
5.189445467e-14
5.464997673e-14
5.736508236e-14
6.002754591e-14
6.268728549e-14
6.525869328e-14
6.775551422e-14
7.018010299e-14
7.250184621e-14
7.473852053e-14
7.688304497e-14
7.892760291e-14
8.086089087e-14
8.269256508e-14
8.444329803e-14
8.60884871e-14
8.76060015e-14
8.901856306e-14
9.032541056e-14
9.153395201e-14
9.264396037e-14
9.367564606e-14
9.461836368e-14
9.544016825e-14
9.613813906e-14
9.679317943e-14
9.742826912e-14
9.797250305e-14
9.843830709e-14
9.880334082e-14
9.889977535e-14
9.859150146e-14
9.811389617e-14
9.779039373e-14
9.788200076e-14
9.815338708e-14
9.843483796e-14
9.864306639e-14
9.834707891e-14
9.787467267e-14
9.823873206e-14
9.947421848e-14
1.00738583e-13
9.904403527e-14
9.100261556e-14
1.098340714e-13
1.333935207e-13
1.380055293e-13
1.42189358e-13
1.413596626e-13
)


101
(
2.787295532e-14
-5.828612691e-16
-6.795505411e-16
-2.062014402e-16
5.277924614e-17
-6.626033407e-17
-4.507328439e-16
-7.600860585e-16
-1.008519102e-15
-1.236842242e-15
-1.350065639e-15
-1.328194823e-15
-1.198046708e-15
-9.673422754e-16
-6.163563913e-16
-1.858611204e-16
2.622184634e-16
7.343975713e-16
1.217396768e-15
1.592692653e-15
1.990271795e-15
2.399579327e-15
2.727985995e-15
3.050073641e-15
3.428124402e-15
3.88911585e-15
4.440818464e-15
5.089755937e-15
5.819889685e-15
6.653750822e-15
7.604955828e-15
8.696084111e-15
9.978403159e-15
1.139715549e-14
1.302930144e-14
1.486162988e-14
1.691824057e-14
1.920782938e-14
2.169042996e-14
2.430539904e-14
2.699877919e-14
2.972114636e-14
3.2467809e-14
3.524485354e-14
3.807344528e-14
4.09895119e-14
4.40235655e-14
4.720654138e-14
5.050798822e-14
5.388134116e-14
5.725908263e-14
6.059677449e-14
6.38618478e-14
6.702741647e-14
7.01406823e-14
7.319391028e-14
7.610023759e-14
7.88971262e-14
8.158909851e-14
8.415476087e-14
8.658635522e-14
8.889202262e-14
9.106124216e-14
9.3094232e-14
9.499324871e-14
9.678850719e-14
9.845097684e-14
9.998224296e-14
1.013638429e-13
1.025967607e-13
1.037288954e-13
1.047658105e-13
1.056799219e-13
1.064754875e-13
1.0715411e-13
1.076901227e-13
1.081712639e-13
1.085808567e-13
1.089081036e-13
1.091674947e-13
1.093382515e-13
1.093303754e-13
1.089952057e-13
1.0831126e-13
1.075856813e-13
1.072612588e-13
1.072244654e-13
1.072445426e-13
1.072480267e-13
1.06842533e-13
1.061533834e-13
1.060875194e-13
1.069800711e-13
1.081056594e-13
1.062117714e-13
9.805699002e-14
1.184864447e-13
1.435919531e-13
1.458461889e-13
1.479852372e-13
1.474017965e-13
)


101
(
2.741645479e-14
1.225895874e-14
-6.484880999e-16
-1.614059939e-16
8.313217089e-17
-5.099818083e-17
-4.472567656e-16
-7.875982394e-16
-1.06609255e-15
-1.32033506e-15
-1.470952154e-15
-1.496160211e-15
-1.416545915e-15
-1.251922679e-15
-9.851674751e-16
-6.500470204e-16
-3.03353782e-16
4.515203282e-17
4.059499575e-16
6.562619181e-16
9.142368705e-16
1.187287085e-15
1.398160367e-15
1.609700278e-15
1.871998182e-15
2.219786472e-15
2.671554216e-15
3.24461605e-15
3.92909793e-15
4.75354649e-15
5.735510871e-15
6.90164802e-15
8.316767973e-15
9.923020972e-15
1.181582805e-14
1.39773418e-14
1.642426009e-14
1.916485316e-14
2.217098973e-14
2.539743647e-14
2.878448519e-14
3.22586322e-14
3.577607143e-14
3.93096753e-14
4.284764895e-14
4.640596719e-14
5.001788629e-14
5.372610051e-14
5.753019757e-14
6.139859269e-14
6.524648597e-14
6.902725748e-14
7.270270582e-14
7.623459807e-14
7.967189454e-14
8.29748482e-14
8.613076652e-14
8.912518268e-14
9.200291599e-14
9.470786945e-14
9.725060806e-14
9.963189717e-14
1.018465648e-13
1.038991421e-13
1.058152361e-13
1.075964546e-13
1.092122742e-13
1.10688685e-13
1.119827e-13
1.131113757e-13
1.141263993e-13
1.150222494e-13
1.157725324e-13
1.164049791e-13
1.168985645e-13
1.172525932e-13
1.174838713e-13
1.176706884e-13
1.177619483e-13
1.177588604e-13
1.176556781e-13
1.174738338e-13
1.170223942e-13
1.161854949e-13
1.15140381e-13
1.143540577e-13
1.139235362e-13
1.136235365e-13
1.133367672e-13
1.127611573e-13
1.118556442e-13
1.113999265e-13
1.118921561e-13
1.127905304e-13
1.106770749e-13
1.023378823e-13
1.23971875e-13
1.503808815e-13
1.497913748e-13
1.497302342e-13
1.49787603e-13
)


101
(
2.696089898e-14
1.21928368e-14
-6.180991618e-16
-1.152551602e-16
1.173934819e-16
-3.023898043e-17
-4.379295702e-16
-8.088773139e-16
-1.12082077e-15
-1.407747118e-15
-1.604269819e-15
-1.689378214e-15
-1.677052524e-15
-1.596537536e-15
-1.434359316e-15
-1.218012079e-15
-9.99245945e-16
-7.98612055e-16
-5.895033288e-16
-4.936370067e-16
-3.972248452e-16
-2.853543891e-16
-2.185629284e-16
-1.411055048e-16
-1.32894784e-17
2.060852055e-16
5.444405178e-16
1.030799787e-15
1.663889608e-15
2.48024257e-15
3.502044692e-15
4.760914889e-15
6.335951257e-15
8.167394938e-15
1.036527363e-14
1.290437078e-14
1.57912981e-14
1.902566875e-14
2.258014685e-14
2.641402458e-14
3.046620154e-14
3.465375257e-14
3.890478165e-14
4.315868543e-14
4.736802213e-14
5.15250485e-14
5.56541986e-14
5.980233881e-14
6.400336839e-14
6.823107343e-14
7.241263473e-14
7.652247394e-14
8.05040192e-14
8.429336705e-14
8.793278154e-14
9.141534984e-14
9.472579374e-14
9.784534411e-14
1.008083118e-13
1.035746361e-13
1.061523855e-13
1.085336744e-13
1.107272963e-13
1.127563369e-13
1.146335585e-13
1.163237741e-13
1.178527806e-13
1.191743827e-13
1.2034813e-13
1.213999307e-13
1.222497809e-13
1.229421684e-13
1.23490988e-13
1.239181848e-13
1.242008176e-13
1.243072764e-13
1.243000681e-13
1.24199469e-13
1.239928962e-13
1.237013031e-13
1.232918089e-13
1.228201425e-13
1.22150367e-13
1.211272748e-13
1.19784242e-13
1.185371721e-13
1.176384741e-13
1.169520537e-13
1.162853956e-13
1.154486749e-13
1.142785869e-13
1.134247671e-13
1.134453699e-13
1.140122303e-13
1.116232474e-13
1.031132382e-13
1.25709552e-13
1.533226172e-13
1.499336108e-13
1.473214934e-13
1.478261203e-13
)


101
(
2.650633553e-14
-7.571541661e-16
6.186252398e-15
-6.791015551e-17
1.551992393e-16
-4.598485315e-18
-4.237215518e-16
-8.254225111e-16
-1.174493794e-15
-1.501111996e-15
-1.752130767e-15
-1.909489919e-15
-1.980672856e-15
-2.001768778e-15
-1.963726666e-15
-1.888437007e-15
-1.822377589e-15
-1.792867702e-15
-1.761688785e-15
-1.845006929e-15
-1.929972256e-15
-2.001604241e-15
-2.105274819e-15
-2.185760907e-15
-2.211916985e-15
-2.137012995e-15
-1.923246105e-15
-1.52880428e-15
-9.462519189e-16
-1.324455745e-16
9.389279677e-16
2.306859353e-15
4.06503029e-15
6.147415445e-15
8.674283746e-15
1.160987453e-14
1.494933792e-14
1.867973557e-14
2.276499186e-14
2.715953307e-14
3.180700824e-14
3.662013146e-14
4.150848865e-14
4.639080913e-14
5.119522293e-14
5.588374384e-14
6.045519196e-14
6.495783179e-14
6.944353458e-14
7.390098258e-14
7.830376223e-14
8.263491849e-14
8.681215418e-14
9.077168259e-14
9.454362086e-14
9.812917986e-14
1.015075587e-13
1.046772325e-13
1.076491484e-13
1.104220712e-13
1.129699769e-13
1.152981246e-13
1.174266536e-13
1.193902324e-13
1.211675455e-13
1.227411325e-13
1.241345831e-13
1.253388522e-13
1.263302542e-13
1.271987986e-13
1.278497397e-13
1.283059531e-13
1.286376188e-13
1.288178145e-13
1.288489079e-13
1.286936769e-13
1.283879478e-13
1.2793734e-13
1.274109805e-13
1.267717722e-13
1.260216759e-13
1.251597143e-13
1.241923126e-13
1.229122504e-13
1.212656498e-13
1.195560269e-13
1.181270444e-13
1.169614966e-13
1.158386072e-13
1.146367723e-13
1.131309439e-13
1.118307135e-13
1.11338364e-13
1.114596485e-13
1.087235113e-13
1.001067328e-13
1.236613176e-13
1.525964589e-13
1.469797659e-13
1.415747073e-13
1.413951412e-13
)


101
(
2.605278737e-14
-8.13270795e-16
6.210387053e-15
-1.953124803e-17
1.962082469e-16
2.535692658e-17
-4.054946963e-16
-8.3853359e-16
-1.228660696e-15
-1.602146847e-15
-1.916296103e-15
-2.157344602e-15
-2.327660225e-15
-2.4674976e-15
-2.572474823e-15
-2.659445285e-15
-2.768446377e-15
-2.930565079e-15
-3.099129259e-15
-3.378709541e-15
-3.66461577e-15
-3.942148683e-15
-4.244275885e-15
-4.505997881e-15
-4.704966592e-15
-4.790240397e-15
-4.709064856e-15
-4.407822342e-15
-3.873397077e-15
-3.057328206e-15
-1.928040348e-15
-4.394775478e-16
1.511715542e-15
3.849755834e-15
6.701115987e-15
1.001731148e-14
1.378284296e-14
1.797156967e-14
2.253332486e-14
2.741472153e-14
3.255644975e-14
3.787380107e-14
4.327564336e-14
4.867114893e-14
5.396855461e-14
5.910091656e-14
6.404645463e-14
6.883850242e-14
7.352132844e-14
7.811971531e-14
8.264962986e-14
8.709558193e-14
9.13754444e-14
9.543686641e-14
9.927469417e-14
1.028899202e-13
1.062806943e-13
1.094425527e-13
1.123825927e-13
1.150607859e-13
1.175840419e-13
1.198310919e-13
1.21867741e-13
1.237185691e-13
1.253547961e-13
1.267858895e-13
1.280156516e-13
1.290834281e-13
1.29872989e-13
1.304733676e-13
1.30917027e-13
1.311261449e-13
1.312115128e-13
1.311086298e-13
1.308303641e-13
1.303919615e-13
1.297430671e-13
1.289354133e-13
1.280247375e-13
1.269934833e-13
1.258297815e-13
1.245723601e-13
1.232133605e-13
1.21607363e-13
1.196206778e-13
1.174373444e-13
1.154629686e-13
1.137488808e-13
1.121023193e-13
1.104534818e-13
1.085373975e-13
1.067653388e-13
1.05718945e-13
1.053117399e-13
1.022006813e-13
9.351547602e-14
1.182170781e-13
1.488136351e-13
1.420519182e-13
1.366037946e-13
1.375183516e-13
)


101
(
2.560027938e-14
1.199956851e-14
-5.305448645e-16
2.972483511e-17
2.400993335e-16
5.91120389e-17
-3.8401454e-16
-8.493327569e-16
-1.284544712e-15
-1.712169004e-15
-2.098092912e-15
-2.433331191e-15
-2.717649509e-15
-2.992809072e-15
-3.25877611e-15
-3.527877131e-15
-3.832126626e-15
-4.204038929e-15
-4.591047316e-15
-5.07897411e-15
-5.585760692e-15
-6.090539148e-15
-6.615975223e-15
-7.079428082e-15
-7.466547693e-15
-7.723466424e-15
-7.780839151e-15
-7.575831843e-15
-7.09204458e-15
-6.274410848e-15
-5.083657428e-15
-3.472680047e-15
-1.337836066e-15
1.236322319e-15
4.378023861e-15
8.027304384e-15
1.216025013e-14
1.67385841e-14
2.169602572e-14
2.696701746e-14
3.248846956e-14
3.818863763e-14
4.397268555e-14
4.9749542e-14
5.542478786e-14
6.091541743e-14
6.617514141e-14
7.11992396e-14
7.602855001e-14
8.071449753e-14
8.529400414e-14
8.976851371e-14
9.408166023e-14
9.817957712e-14
1.020302445e-13
1.056355662e-13
1.089996204e-13
1.12112647e-13
1.149864468e-13
1.175832725e-13
1.199766982e-13
1.221590989e-13
1.240733402e-13
1.257715687e-13
1.27250061e-13
1.285142215e-13
1.295567789e-13
1.303803155e-13
1.309840537e-13
1.313505682e-13
1.315243431e-13
1.315022648e-13
1.312828178e-13
1.308704317e-13
1.302925166e-13
1.295310358e-13
1.285370568e-13
1.273420043e-13
1.260261731e-13
1.245700657e-13
1.22973509e-13
1.213089366e-13
1.194791742e-13
1.174854338e-13
1.151474908e-13
1.125128943e-13
1.099924628e-13
1.07734406e-13
1.055227696e-13
1.033716492e-13
1.010187359e-13
9.875954799e-14
9.714644399e-14
9.618681472e-14
9.272510387e-14
8.393477426e-14
1.1042276e-13
1.433309614e-13
1.364182838e-13
1.303558881e-13
1.31079907e-13
)


101
(
2.514883521e-14
1.193695636e-14
-5.024071418e-16
7.97010274e-17
3.611833727e-15
9.619919523e-17
-3.599541194e-16
-8.587818278e-16
-1.34295719e-15
-1.831751875e-15
-2.298544487e-15
-2.737725789e-15
-3.150097523e-15
-3.575909753e-15
-4.018683625e-15
-4.486844739e-15
-5.003906677e-15
-5.602319766e-15
-6.22490159e-15
-6.939494869e-15
-7.687184382e-15
-8.438027557e-15
-9.200444314e-15
-9.881259545e-15
-1.046717982e-14
-1.090379466e-14
-1.110653988e-14
-1.100429983e-14
-1.057880576e-14
-9.766658137e-15
-8.52125583e-15
-6.801626972e-15
-4.511994669e-15
-1.743416945e-15
1.630896501e-15
5.541074415e-15
9.957706442e-15
1.483409228e-14
2.00393634e-14
2.559586401e-14
3.144118016e-14
3.740482207e-14
4.344427935e-14
4.948156555e-14
5.542699542e-14
6.118596819e-14
6.669176268e-14
7.190824251e-14
7.686170006e-14
8.160119066e-14
8.618101326e-14
9.062696469e-14
9.491525766e-14
9.899610828e-14
1.028261835e-13
1.063968346e-13
1.097033785e-13
1.127448343e-13
1.155329961e-13
1.180723593e-13
1.203113798e-13
1.2232637e-13
1.241350589e-13
1.256653613e-13
1.269674078e-13
1.280400668e-13
1.288845577e-13
1.294899156e-13
1.298560911e-13
1.299882231e-13
1.298816086e-13
1.295794965e-13
1.290412229e-13
1.283315226e-13
1.274422313e-13
1.263377374e-13
1.250078449e-13
1.234435866e-13
1.217041424e-13
1.19812128e-13
1.178258152e-13
1.15727529e-13
1.134511792e-13
1.110416367e-13
1.083894041e-13
1.053494541e-13
1.02311677e-13
9.95216585e-14
9.679478345e-14