/*--------------------------------*- C++ -*----------------------------------*\
| =========                 |                                                 |
| \\      /  F ield         | OpenFOAM: The Open Source CFD Toolbox           |
|  \\    /   O peration     | Version:  2.3.1                                 |
|   \\  /    A nd           | Web:      www.OpenFOAM.org                      |
|    \\/     M anipulation  |                                                 |
\*---------------------------------------------------------------------------*/
FoamFile
{
    version     2.0;
    format      ascii;
    class       dictionary;
    location    "constant";
    object      PM22;
}
// * * * * * * * * * * * * * * * * * * * * * * * * * * * * * * * * * * * * * //

PM22_table
101
(

101
(
-40.68032514
-1.596274254
-0.8398216407
-0.5525978393
-0.4042192992
-0.3147489691
-0.2544202857
-0.2098187748
-0.1757969441
-0.1485651989
-0.126037741
-0.1072649623
-0.09147712299
-0.07779791379
-0.06616348748
-0.05601990838
-0.04684078584
-0.03822007557
-0.03056657322
-0.02231355833
-0.01500580796
-0.00814261742
-0.001323193883
0.004309185901
0.008694438195
0.01190579121
0.01397497374
0.01502357092
0.01528272268
0.01493812876
0.01419210885
0.01321592583
0.01219375346
0.0108934013
0.009706942929
0.00853663089
0.007063875171
0.005947157275
0.006380777352
0.006020462344
0.005520369566
0.005080058619
0.004661081853
0.004304732754
0.004015901165
0.003755405197
0.003536679545
0.003340927556
0.003175989202
0.003030043948
0.002908991329
0.002805653914
0.002718458441
0.002645310621
0.002584259235
0.002536308866
0.002499375938
0.00247451437
0.002457822505
0.002449598285
0.002448489511
0.002449218124
0.002457014454
0.002467596744
0.002478511358
0.002491714756
0.002507597577
0.00252441351
0.00253811433
0.002549691748
0.002558332326
0.002558651459
0.002546792589
0.00251122378
0.002331301948
0.002384179953
0.002596476674
0.002686615589
0.002708199292
0.0027042579
0.002687330308
0.002653347306
0.002585467825
0.002416105923
0.002548389207
0.002643359673
0.002629183292
0.00258103859
0.002496831352
0.00226767876
0.002403561855
0.002390406287
0.002223528592
0.00220652268
0.002075824872
0.002100632346
0.001982912259
0.002239144688
0.002486526489
0.00274666723
0.002994440364
)


101
(
-40.68032521
-1.595870962
-0.8396036422
-0.5526628787
-0.4044275435
-0.3150543015
-0.2548188547
-0.2103204185
-0.1763614154
-0.1491871649
-0.1267035345
-0.1079461692
-0.09215466284
-0.07847942377
-0.06681967041
-0.05666065839
-0.04748878288
-0.03889839057
-0.03122927551
-0.02309316678
-0.01575839955
-0.008888269221
-0.002098548227
0.003641796092
0.008179257702
0.01155616895
0.01380224739
0.01502437543
0.01543258451
0.01521240146
0.01456123434
0.01365161494
0.01266209153
0.01142714532
0.01024140531
0.009073342804
0.007678287956
0.006527695682
0.006642204605
0.006364729012
0.005919840915
0.005482212152
0.005058031894
0.004685101507
0.004375422688
0.004101908065
0.003869919612
0.003664396333
0.00348885867
0.003334372343
0.003204073057
0.003092832595
0.002998992865
0.002921244226
0.00285653171
0.002804239951
0.002762420099
0.002732738643
0.002712014105
0.002700027809
0.002695784647
0.00269498975
0.002700431167
0.002710328476
0.002722568016
0.002736462389
0.002752478895
0.002769929906
0.002786310171
0.002800444289
0.002812647613
0.002818712712
0.002816066076
0.002793480045
0.002663336852
0.002665838909
0.002807317147
0.002907506682
0.00295603157
0.002967343774
0.002958351175
0.002935525835
0.002886643478
0.002754974749
0.002800376096
0.002881881291
0.002902955816
0.002871980048
0.002811240342
0.002651581557
0.002677341763
0.002692890832
0.002589803618
0.002534667369
0.002467517026
0.002429967995
0.002298419457
0.002592476894
0.002877886948
0.003189993069
0.003488210852
)


101
(
-40.68032521
-1.595057648
-0.8391614775
-0.5527842922
-0.4048331227
-0.3156506211
-0.2555974147
-0.2113006243
-0.1774664575
-0.1504055261
-0.1280097668
-0.1092858107
-0.09348994797
-0.07982402885
-0.06812005492
-0.05793282962
-0.04877706474
-0.04025013032
-0.03256409943
-0.02464948729
-0.01729414826
-0.01041812386
-0.003690590235
0.002228928309
0.007051532043
0.0107513674
0.01334653509
0.01491623841
0.01563018017
0.0156677072
0.015216526
0.01445036206
0.01353856163
0.01242999252
0.01126918871
0.01010152385
0.008829507996
0.007639539691
0.00723485831
0.006993631339
0.00663758612
0.006223994551
0.00579957346
0.005400569267
0.005052363036
0.004750719568
0.004491499934
0.004265795323
0.004069314893
0.003897532955
0.003748824208
0.003621257812
0.003512711551
0.003422335867
0.003347236125
0.003285401975
0.00323408592
0.003194200597
0.003164848422
0.003144618825
0.003133194056
0.003127964105
0.003128648108
0.003135260581
0.003146373323
0.003159441342
0.003174796137
0.003191915567
0.003210865862
0.00322891483
0.003246230598
0.003261447884
0.00327324291
0.003274072395
0.003222279359
0.00317567954
0.003207884422
0.003290368831
0.003369793171
0.003414192342
0.003425210477
0.003420188264
0.003402379839
0.003338963707
0.003289774842
0.003314881953
0.003369561484
0.003377926918
0.003347677168
0.003278644066
0.003205553868
0.003204543646
0.003196409759
0.003124045419
0.003098236808
0.003011084983
0.00285520042
0.003198211069
0.003530935935
0.00389316958
0.004241017436
)


101
(
-40.68032521
-1.594230661
-0.8387072157
-0.5528888477
-0.4052178492
-0.31621992
-0.2563410963
-0.2122374424
-0.1785264694
-0.1515755844
-0.1292677735
-0.1105819906
-0.09478755234
-0.08113321356
-0.06939696158
-0.05918642963
-0.0500482147
-0.04158680633
-0.0339090024
-0.02618721284
-0.01886907262
-0.01200461775
-0.005339757521
0.0006911923341
0.005753433353
0.009751822165
0.01267941481
0.01459015713
0.01561765834
0.01592582699
0.01569140918
0.01508692856
0.01427632706
0.01328302891
0.01218808098
0.01105409703
0.009836097915
0.008645382585
0.007933571249
0.007553251031
0.00721857214
0.006843260647
0.00643641479
0.006028981476
0.005653075352
0.005321759241
0.005034601017
0.004786172362
0.004569060261
0.004379225718
0.004212910088
0.004068594544
0.003944046087
0.003838039225
0.00374878994
0.003674327487
0.003612943003
0.00356263441
0.003523511724
0.003493826433
0.003473498171
0.003461233037
0.003455975883
0.003456950015
0.003462999354
0.00347230618
0.003485097567
0.003500624983
0.003518528012
0.003537669816
0.003556216157
0.003575150676
0.003593389456
0.003609203636
0.003601253758
0.003571364383
0.003558522335
0.003590868803
0.003659574618
0.003727057348
0.003763680522
0.003773483945
0.003773149778
0.003754907794
0.003715269818
0.003689051362
0.003715230399
0.003753903327
0.003748880298
0.003712914886
0.003664665218
0.003616969407
0.003619247192
0.003584378071
0.003536419956
0.003474879615
0.003343426608
0.003685266921
0.004014118767
0.004350851518
0.004671632767
)


101
(
-40.68032148
-1.593389617
-0.8382408738
-0.5529769363
-0.4055826332
-0.3167639356
-0.2570527261
-0.2131350806
-0.179546926
-0.1527048387
-0.1304868713
-0.1118457453
-0.09606034869
-0.08242182113
-0.07066521729
-0.06043767614
-0.05131872538
-0.04292371183
-0.03527380288
-0.02772326424
-0.02048246127
-0.01365151513
-0.007052243172
-0.0009613204619
0.004293220825
0.008561316836
0.01180324323
0.0140471435
0.01539361875
0.01598584707
0.01598710306
0.0155636736
0.01487697247
0.01399790214
0.01298888754
0.0119191275
0.01074621021
0.00957048278
0.008682355747
0.00812806987
0.007739970878
0.007378587979
0.006995893143
0.006596802809
0.006207485675
0.005850957146
0.005536309545
0.005263415055
0.005025651321
0.004817379565
0.004633913961
0.004472917589
0.004332393386
0.004211067326
0.004107161443
0.004018315678
0.00394454587
0.003882836535
0.003833153162
0.003793334222
0.003762807153
0.003741559071
0.003728017663
0.003721758908
0.003721710832
0.003726176574
0.003734705472
0.00374720422
0.003762184969
0.003780124796
0.003798193359
0.00381697253
0.003835953761
0.003856269465
0.003869249874
0.003865461425
0.003852906476
0.003855515596
0.003892959727
0.003957623713
0.004015018428
0.004044722884
0.004055284103
0.004057472941
0.004046025707
0.004022183154
0.004013897891
0.004046140967
0.0040697773
0.004057075729
0.004029676262
0.003992213694
0.003968920027
0.003954274287
0.003912964756
0.003869964678
0.003786940201
0.004089786448
0.004386376449
0.004727590976
0.00505542543
)


101
(
-40.68032523
-1.592534773
-0.8377627582
-0.5530491369
-0.4059284909
-0.3172843911
-0.2577349641
-0.2139973251
-0.1805325661
-0.1537995682
-0.1316746699
-0.1130858858
-0.0973184148
-0.08370139861
-0.07193618942
-0.06169891969
-0.05260127437
-0.04427264914
-0.03666583523
-0.02927035192
-0.02213397575
-0.01535948918
-0.00883187576
-0.002721003754
0.002679353105
0.007184073717
0.01071927447
0.01328569071
0.0149530022
0.01584081468
0.01609615781
0.01587530755
0.01533616351
0.01457867803
0.01366690779
0.01266336074
0.01156348164
0.0104210503
0.009437119523
0.008732214916
0.008248000001
0.007863068624
0.007494398824
0.007112115963
0.006723965726
0.006352493212
0.006014796354
0.005718623422
0.005460846278
0.005235138628
0.005036088338
0.004860049979
0.004704955894
0.004569494657
0.004452507724
0.00435123652
0.004264699163
0.004191450552
0.004130817165
0.004081241109
0.00404146831
0.004011234962
0.003989171354
0.003974488352
0.003966957792
0.003965533036
0.003968728062
0.00397618325
0.003986824461
0.004000958551
0.004017473973
0.00403502656
0.00405281164
0.004071796608
0.004090228789
0.004101884565
0.004103447104
0.004100499699
0.004112830276
0.004156149018
0.004217076263
0.004265832963
0.004289587796
0.004301067483
0.004306147594
0.004300897172
0.004289812437
0.00430002125
0.004332798911
0.004341072926
0.004327807397
0.004306619745
0.004283949501
0.004275936067
0.004247200026
0.004207731103
0.004147944733
0.004442501285
0.004733873993
0.00508402103
0.005420763123
)


101
(
-40.68032521
-1.591665152
-0.8372726883
-0.5531056861
-0.4062561356
-0.3177827172
-0.258390149
-0.2148274682
-0.1814872984
-0.1548648003
-0.1328371674
-0.114309166
-0.09856944858
-0.08498081215
-0.07321859599
-0.06297973278
-0.05390609824
-0.04564354341
-0.03809133285
-0.03083893766
-0.02382473299
-0.01712836699
-0.01068134553
-0.004582628947
0.0009197105372
0.005624679732
0.009428143391
0.01230293398
0.01428902183
0.01548090232
0.01600634307
0.0160101086
0.01564288111
0.01502145695
0.01422130049
0.01330347447
0.01228355808
0.01119516427
0.01017481564
0.009358492991
0.008766848284
0.008326812773
0.007952354212
0.00758609216
0.007210963834
0.006838710795
0.006487851951
0.006173125596
0.005897711423
0.005657480992
0.005446633426
0.005259904065
0.005094861308
0.004949793689
0.004823601228
0.004714051807
0.004619631462
0.004538311524
0.004469479062
0.004412137412
0.004365353777
0.004328078288
0.004299436854
0.00427811012
0.004263625782
0.004255817933
0.00425303043
0.004255212574
0.004260940322
0.004269534009
0.004281835674
0.004295878821
0.004310615829
0.004325654012
0.004341544609
0.004355898886
0.004365490027
0.004367069916
0.004368772246
0.004387865356
0.004432808994
0.00448611735
0.004522605048
0.004540083601
0.004550979951
0.004556165371
0.004553354013
0.004554200099
0.004578472355
0.004600682062
0.004600358252
0.004587593298
0.004571363925
0.004567445907
0.004546945784
0.004515630796
0.004479933133
0.004792884884
0.005099714571
0.005434529007
0.00575336311
)


101
(
-40.68032521
-1.590780574
-0.8367707799
-0.5531469951
-0.4065663532
-0.3182603178
-0.2590205078
-0.2156285799
-0.1824145509
-0.1559047692
-0.1339792634
-0.1155209524
-0.09981938447
-0.08626685111
-0.07451898076
-0.06428724268
-0.05524102554
-0.04704417798
-0.03955512404
-0.03243682605
-0.02555588154
-0.01895682531
-0.01260114094
-0.006541163536
-0.0009771407825
0.003889859185
0.007932592331
0.01109745344
0.01339588747
0.01489658861
0.01570604172
0.01595442344
0.01578320153
0.01531642322
0.01464282839
0.01382796211
0.01290021717
0.01188499057
0.01087421246
0.009992120029
0.009305469556
0.008794659893
0.008394511087
0.008036959914
0.007682369372
0.007324864075
0.006976601953
0.006655105895
0.006370422324
0.006122747452
0.005906726469
0.005717054916
0.005550271455
0.005403111706
0.005275014062
0.00516452691
0.005069117237
0.004986184496
0.004915477091
0.004855402227
0.004805250616
0.0047642795
0.004730977886
0.004705360845
0.004685889638
0.004672828713
0.004664754061
0.004661013183
0.004660567507
0.004661833448
0.004666522476
0.004673054905
0.004681842559
0.004690588915
0.0046990748
0.004707332462
0.004714287554
0.004716327712
0.0047134348
0.004713996345
0.004733718261
0.004772868353
0.004811983995
0.004832262949
0.004841922683
0.004846633647
0.004846951866
0.004843559962
0.004853130407
0.004875601092
0.004882439401
0.004873840019
0.004860498578
0.004855850331
0.004839934605
0.004819453659
0.004791656529
0.005113464705
0.00542848433
0.005764616541
0.006089285074
)


101
(
-40.68031766
-1.589880465
-0.8362568806
-0.5531732596
-0.4068597445
-0.318718319
-0.2596278221
-0.2164031444
-0.1833171217
-0.1569228518
-0.1351047621
-0.1167253258
-0.1010726527
-0.08756463598
-0.07584226179
-0.06562678694
-0.05661208486
-0.04848075156
-0.04106109975
-0.0340700769
-0.02732867834
-0.02084299717
-0.01459009829
-0.008591446757
-0.003002121489
0.001988280174
0.006237964048
0.009670195057
0.0122696479
0.01407933694
0.01518315006
0.01569409074
0.01574204083
0.01545106883
0.01492103425
0.01422552621
0.01340434845
0.0124815725
0.01151908576
0.01061888671
0.009866994187
0.009287889783
0.008850150863
0.008492748847
0.008162518168
0.007834518101
0.007508140544
0.007198093605
0.006918044033
0.006673570971
0.006462156532
0.006279505985
0.006120275108
0.00598010649
0.005858133806
0.005752514213
0.005662019054
0.00558216252
0.005514138283
0.005455740261
0.005405354545
0.005363035441
0.005326520747
0.005296587786
0.0052719165
0.005252368645
0.005237546869
0.005225327377
0.00521587292
0.005207657196
0.005201718189
0.005197599078
0.00519505567
0.00519308721
0.005190470891
0.005187574163
0.005183503107
0.005177411898
0.005167805091
0.005154716984
0.00514945591
0.005163440528
0.005189777083
0.005207590934
0.005210915736
0.005207525708
0.005203068345
0.005193235591
0.005188116434
0.005198058594
0.005202867987
0.005193289507
0.005179383227
0.005168274135
0.005153419789
0.005130987899
0.005103156232
0.00542991052
0.005744333581
0.006050699185
0.006343340011
)


101
(
-40.68031771
-1.588964799
-0.8357312507
-0.5531848997
-0.4071370509
-0.3191578983
-0.2602137414
-0.2171533082
-0.1841974682
-0.1579219023
-0.1362167171
-0.1179253846
-0.1023325091
-0.08887793698
-0.07719203838
-0.06700228588
-0.05802386889
-0.04995820958
-0.04261236501
-0.03574334534
-0.02914442413
-0.02278499029
-0.0166462768
-0.01072849931
-0.005146573192
-7.09320173e-05
0.004350847575
0.008023710476
0.01090809706
0.01302210847
0.01442653012
0.01521533817
0.01550438435
0.01541209269
0.01504574424
0.01448763904
0.01378933628
0.01297877846
0.01209902221
0.01122804685
0.01045222621
0.009824482867
0.00934948302
0.00898642323
0.008681001684
0.008393383334
0.00810649337
0.007826224708
0.007565186525
0.00733436597
0.007135851685
0.006966992994
0.006821434216
0.006694291121
0.006581234463
0.006482636225
0.006399018891
0.006323885743
0.006258627406
0.006201469826
0.006149969638
0.006104145755
0.006063611892
0.006027035348
0.005993601368
0.005963061428
0.005937457401
0.005913714797
0.005892526822
0.005872314154
0.005852596027
0.005834148976
0.005816276776
0.005799201053
0.00578218808
0.005763967263
0.005744390772
0.005724272637
0.005702568901
0.005677078853
0.005651246601
0.005638135327
0.005640659639
0.005647543136
0.005641660782
0.005626548039
0.005610364283
0.005591070071
0.005571580513
0.005564578735
0.005560735537
0.005545873944
0.005525530049
0.00550488725
0.00548611377
0.005456079328
0.005428406303
0.005740008925
0.006030418267
0.006262426539
0.006476936701
)


101
(
-40.6803301
-1.58803341
-0.8351939836
-0.5531822288
-0.4073988784
-0.3195800724
-0.2607797173
-0.2178809406
-0.1850576458
-0.1589042435
-0.137317487
-0.1191233695
-0.1036011793
-0.09020927663
-0.07857064422
-0.06841631036
-0.05947956349
-0.05148019316
-0.04421131379
-0.03745998431
-0.03100416217
-0.02478099606
-0.01876749472
-0.01294770383
-0.007402559482
-0.002278559164
0.002279053954
0.006162536944
0.009311391784
0.0117203088
0.01342722835
0.01450616534
0.01505693053
0.01518743984
0.01500840586
0.01460897008
0.01405211
0.01337363125
0.01260719334
0.01180959318
0.0110563188
0.01041262369
0.00991220428
0.00954140262
0.009256817525
0.009012098328
0.008774366837
0.008536302971
0.008305585986
0.008095691292
0.007912856252
0.007757543638
0.007625096473
0.007509484591
0.00740431158
0.007312774646
0.007231775839
0.007158968535
0.007092134479
0.007032256815
0.006976623142
0.006923440222
0.006874250934
0.006827009371
0.006781747169
0.006737461323
0.006696041578
0.006657607158
0.006621333101
0.006585468967
0.006549273116
0.006513393719
0.006478576386
0.006444076818
0.006409638421
0.006373692146
0.006336991047
0.006299995749
0.006261164042
0.006221266111
0.006179381861
0.006141839653
0.006117779634
0.006105273299
0.00608754539
0.006059167538
0.006027826953
0.00599688729
0.005963770275
0.0059382712
0.005921449506
0.005897474965
0.005867407443
0.005836515365
0.005810338931
0.005772065864
0.005733612258
0.005996173756
0.006230761955
0.006361389473
0.00647630525
)


101
(
-40.68032066
-1.58708469
-0.8346443515
-0.5531650481
-0.4076454225
-0.3199854586
-0.2613268066
-0.2185875193
-0.1858991959
-0.1598715347
-0.1384086664
-0.120320686
-0.1048799347
-0.09156009475
-0.07997929414
-0.06987020407
-0.06098107997
-0.05304919358
-0.04585955113
-0.0392224665
-0.03290858903
-0.02682873163
-0.02095050408
-0.01524348168
-0.009760683403
-0.004622728569
3.392192877e-05
0.004095055997
0.007483471176
0.01017293023
0.0121794359
0.0135567678
0.01438754747
0.01476541085
0.01480007809
0.01458411062
0.01418996042
0.01366318756
0.01303568905
0.01234886051
0.01166220505
0.01104016662
0.0105340247
0.01015670706
0.009884256006
0.009674495096
0.009484994967
0.009294124492
0.009099952249
0.008914300145
0.008746228475
0.008600287002
0.008475154003
0.008365497019
0.008265794347
0.008175509488
0.008092024525
0.00801488178
0.007941772251
0.007873636233
0.007809354321
0.007745895793
0.007684131115
0.007623082013
0.007563086479
0.007504288271
0.00744474818
0.007387914795
0.007333218406
0.00727924555
0.007225315097
0.007171237225
0.007117012567
0.007063191622
0.007009896059
0.006956346043
0.006901786758
0.00684616181
0.00678946607
0.00673249227
0.006674517165
0.006616649737
0.006567419399
0.006530961144
0.006497708376
0.006456371145
0.006409031585
0.00636349234
0.006317022991
0.006272482168
0.006239653423
0.006204362921
0.0061631421
0.006120591676
0.006083545335
0.006037046192
0.00598766752
0.00616322082
0.006308888082
0.006324565694
0.00633416876
)


101
(
-40.68031398
-1.586118509
-0.8340825136
-0.5531337506
-0.407877292
-0.3203749572
-0.2618562168
-0.219274547
-0.1867236643
-0.1608253188
-0.1394914766
-0.1215182583
-0.1061694017
-0.09293099315
-0.08141830536
-0.07136428536
-0.06252941684
-0.05466708768
-0.04755851438
-0.04103284024
-0.03485813301
-0.02892541178
-0.0231903053
-0.01760869643
-0.01221031347
-0.007089877576
-0.002370524201
0.001833145863
0.005432231369
0.008383079546
0.01068133037
0.01236067838
0.01348597548
0.01413416745
0.01440962672
0.01440384071
0.01419517089
0.01383848683
0.01336917036
0.0128205166
0.01223625336
0.01167141067
0.01118310929
0.01080447012
0.01053416032
0.0103439792
0.01019174247
0.01004458696
0.009888187308
0.009728194797
0.009572961678
0.009431657338
0.009307718617
0.00919775498
0.009097303196
0.009001203045
0.008911998904
0.008825806658
0.008743655463
0.008663053999
0.008586067629
0.008509153527
0.008432729485
0.008356474758
0.008280350494
0.008205033161
0.008128199997
0.008051880502
0.00797677737
0.007903439142
0.007830533227
0.007757785434
0.007684077773
0.007610441909
0.007537614044
0.007465580369
0.00739293206
0.007318776939
0.0072438644
0.007168661887
0.007093203006
0.007017387327
0.006945275034
0.006883706638
0.006831131732
0.006775573378
0.006712501263
0.006649753665
0.006588202699
0.006526685145
0.006474995917
0.006425735381
0.006372701802
0.006316895477
0.006266274572
0.006207728425
0.006145185609
0.00621344999
0.006252497597
0.006151912892
0.006049547718
)


101
(
-40.6802988
-1.585133618
-0.8335080336
-0.5530883064
-0.4080947606
-0.320749163
-0.2623688589
-0.2199431925
-0.1875322111
-0.1617667622
-0.1405666254
-0.1227164004
-0.1074695339
-0.09432172966
-0.08288708969
-0.07289788391
-0.06412458559
-0.05633495588
-0.04930931872
-0.04289292799
-0.03685333913
-0.03106851113
-0.02548167382
-0.02003605266
-0.01474150008
-0.009667376998
-0.004920093876
-0.0006093215901
0.003169337867
0.006358493507
0.008935585183
0.01091524002
0.01234447008
0.01328164776
0.01382213445
0.01405179273
0.01405048327
0.01388014233
0.0135822972
0.01318831084
0.0127307877
0.01225239271
0.01180657437
0.01143722315
0.01116340502
0.01097658804
0.01084423916
0.01072936715
0.01060688835
0.01047196307
0.01032930962
0.01019042538
0.01006342692
0.009947842788
0.009840960953
0.009737206825
0.009638568623
0.009541947752
0.009447587289
0.009353410575
0.009261789027
0.009169925559
0.009077362695
0.008985296478
0.008893581491
0.008800800875
0.008707232883
0.008612360778
0.008517654349
0.008424797617
0.008332404314
0.008240578203
0.008148258695
0.008055402856
0.007962949372
0.007871481999
0.007780663352
0.007688524986
0.0075949177
0.007501164925
0.007407539984
0.007313860809
0.007221314061
0.007135841937
0.007060571212
0.006987740073
0.006909112773
0.006828738732
0.006749763002
0.006671298542
0.006600242902
0.006533697955
0.006466428227
0.006396370668
0.006329626783
0.006256419152
0.006179398304
0.006132064225
0.006060945243
0.005865808987
0.005651695959
)


101
(
-40.68028365
-1.584129952
-0.8329210882
-0.5530290734
-0.4082983834
-0.3211088492
-0.2628657443
-0.2205946456
-0.1883258914
-0.1626968745
-0.1416347467
-0.1239150377
-0.1087798626
-0.09573165187
-0.08438467101
-0.07446991804
-0.06576567901
-0.05805257023
-0.0511115155
-0.04480187375
-0.03889286633
-0.03325495227
-0.02782029655
-0.02251911205
-0.01734471621
-0.01234281407
-0.007600166923
-0.003216862275
0.0007093363899
0.004110599595
0.006948429371
0.009220320658
0.01095625843
0.0121942319
0.01301791429
0.01350363559
0.01372851936
0.01375821898
0.01364049317
0.0134090562
0.01309195792
0.01272076246
0.01233997827
0.01199561744
0.01172106532
0.011527118
0.01139710585
0.01129950516
0.01120252017
0.01109006975
0.010961978
0.010827291
0.01069567559
0.01057205038
0.01045646777
0.01034423199
0.01023434348
0.01012644812
0.01001905338
0.009911535076
0.009804679007
0.009698245349
0.009590600605
0.009483213998
0.009375622273
0.009266884785
0.009157594243
0.009046290183
0.00893453361
0.008822845252
0.008711619805
0.008600974659
0.008490570422
0.008379609983
0.008268453293
0.00815799313
0.008048613859
0.007938438241
0.007827072593
0.007714750555
0.00760263147
0.00749072108
0.007379289869
0.007271710361
0.007173020176
0.00708039821
0.006984947629
0.006887101971
0.006789679936
0.006692805761
0.006602743062
0.006516942165
0.006432637508
0.006346960944
0.006262288035
0.006172741068
0.006079039862
0.00592516509
0.005757616778
0.005507737258
0.005270944056
)


101
(
-40.68031392
-1.583108449
-0.8323224359
-0.5529568113
-0.4084889814
-0.3214549684
-0.2633479762
-0.2212301051
-0.189105743
-0.1636166036
-0.1426964565
-0.1251137732
-0.1100995189
-0.09715979162
-0.08590981964
-0.07607906605
-0.06745116998
-0.05981834107
-0.05296319228
-0.04675606544
-0.04097328784
-0.03548050909
-0.03020158502
-0.02505153649
-0.02001036354
-0.01510322831
-0.01039489928
-0.005972399795
-0.001931923068
0.001652039273
0.00472791879
0.00727752996
0.009314711923
0.01085652497
0.01197321313
0.01272878677
0.01319415672
0.01343504733
0.01350354319
0.0134379932
0.01326675213
0.01301510886
0.01271810487
0.01241734052
0.01215269352
0.01195022373
0.01181132241
0.01171688627
0.0116349895
0.0115420569
0.01143056511
0.01130375987
0.01117008948
0.01103940851
0.01091441538
0.01079266978
0.0106726498
0.01055374305
0.0104351003
0.0103155999
0.01019554517
0.01007579563
0.009955374361
0.009834210714
0.009711882645
0.009589131302
0.009465436567
0.0093402798
0.009213324458
0.009085385227
0.008957356549
0.00882938783
0.008701834352
0.008573876906
0.008445397201
0.00831713753
0.008189864246
0.008062505629
0.00793419635
0.007804388144
0.007674314955
0.007544573134
0.007415377159
0.007287749873
0.007166978747
0.00705368391
0.006940489694
0.006825160652
0.00671013082
0.006594680756
0.006485499145
0.006380739636
0.006277661195
0.00617540207
0.00607264756
0.005965329444
0.005851915441
0.005619979652
0.005385902548
0.005123119641
0.00488696101
)


101
(
-40.68031391
-1.582065428
-0.8317085449
-0.552870617
-0.4086661248
-0.3217874522
-0.2638157812
-0.2218499718
-0.1898719984
-0.1645261546
-0.1437517641
-0.1263116348
-0.1114269468
-0.09860442173
-0.08746046521
-0.07772307123
-0.06917880913
-0.06163012901
-0.0548626164
-0.04875289581
-0.04309237152
-0.03774184268
-0.03262029003
-0.02762605415
-0.02272744203
-0.01793317517
-0.0132858536
-0.008856766588
-0.004737083465
-0.001003690223
0.002282836583
0.005089459456
0.007413738031
0.009252986504
0.01066314265
0.01169443097
0.01240909693
0.0128696314
0.01312942759
0.01323128913
0.01320715717
0.01308183931
0.01288259519
0.01264395529
0.01240555305
0.01220269043
0.01205275806
0.01195143
0.01187514173
0.01179776249
0.01170359303
0.011589192
0.01145969269
0.01132599789
0.01119400449
0.01106438401
0.01093630712
0.01080848041
0.01068086948
0.01055215054
0.01042253037
0.01029213062
0.01016120934
0.01002861773
0.009894380462
0.009759480945
0.009623713906
0.009486653874
0.009347422131
0.009206377583
0.009064331933
0.008921660495
0.00877898593
0.008635820408
0.008492077209
0.008348061395
0.00820461847
0.008061813029
0.007918382472
0.00777315555
0.007626704429
0.007480913587
0.007335495385
0.007190665545
0.00705053458
0.006917870695
0.006788087086
0.006656148305
0.006525408508
0.006393449112
0.006265696137
0.006144136161
0.006023323191
0.005904426625
0.005785861944
0.005661125894
0.005528250968
0.0052586914
0.004997334913
0.004757440057
0.004517907105
)


101
(
-40.68028365
-1.58100015
-0.8310809658
-0.5527705859
-0.4088301114
-0.3221067718
-0.2642697864
-0.2224549416
-0.1906249223
-0.1654254733
-0.1448008263
-0.1275079193
-0.1127607305
-0.1000634893
-0.08903349707
-0.07939773552
-0.07094409294
-0.06348390302
-0.05680702968
-0.05079358386
-0.04525157553
-0.04003913482
-0.03507166774
-0.03023546097
-0.02548520665
-0.02081733357
-0.01625441239
-0.0118499638
-0.007686959585
-0.003840671128
-0.0003765126093
0.002659554971
0.005248757359
0.007370074905
0.009065286037
0.01037009345
0.0113366225
0.01202191543
0.0124777527
0.0127493435
0.01287351819
0.01287792491
0.01278587418
0.01262602313
0.01243356145
0.01224587586
0.01209135712
0.01198040558
0.01190310835
0.0118364151
0.01175931844
0.01166147662
0.01154336061
0.0114133933
0.01127994728
0.01114688792
0.01101413034
0.0108809754
0.01074770526
0.01061319995
0.01047753395
0.01034023745
0.01020178886
0.0100612339
0.009918711347
0.009774385385
0.009629189507
0.009482912917
0.009334621547
0.009183856768
0.009031574812
0.008877697924
0.008722950913
0.008567571799
0.008411441169
0.008254488893
0.008098020087
0.007942623549
0.007786870437
0.007629446042
0.007470353955
0.007311614375
0.007152860983
0.006994505211
0.006839955428
0.006690947324
0.006547359914
0.006402120851
0.00625863387
0.006114063068
0.005971550208
0.005836000662
0.005701756534
0.005568968016
0.005437945791
0.005299040869
0.005151120614
0.004885373942
0.004635141003
0.004447444627
0.004268847695
)


101
(
-40.68031399
-1.579915186
-0.8304430661
-0.55265804
-0.408982112
-0.3224140672
-0.2647111226
-0.2230461158
-0.1913651454
-0.1663146428
-0.1458440159
-0.1287020734
-0.1140995962
-0.1015350637
-0.09062581259
-0.08109865132
-0.07274191689
-0.06537447526
-0.05879164784
-0.052878396
-0.04745215261
-0.04237389107
-0.03755220895
-0.03287353322
-0.02827453409
-0.02374214864
-0.0192829959
-0.01493202709
-0.01076074784
-0.006839960207
-0.003236745394
-6.079583108e-06
0.002818826744
0.005198722776
0.007162465813
0.00873122935
0.009946222116
0.0108576338
0.01151347583
0.01195874066
0.01223389171
0.01237099578
0.01239331248
0.01232583762
0.01219838762
0.01204557354
0.01190088166
0.01178615889
0.01170557716
0.01164518422
0.01158411696
0.01150615541
0.01140599768
0.01128805668
0.01116051519
0.01102974907
0.01089737274
0.01076382229
0.01062910028
0.01049273153
0.01035517361
0.01021521368
0.01007345508
0.00992931967
0.009782271236
0.009632904725
0.009481760124
0.009329424551
0.009175523155
0.009019217892
0.008860918114
0.008700176462
0.008538135514
0.008374986865
0.008210318559
0.008044457495
0.007879045609
0.007714632273
0.007550915152
0.007386183977
0.00721955435
0.007052103591
0.006885061478
0.006718719555
0.006554869842
0.006395604519
0.006242462353
0.006089152804
0.005937597743
0.005785800855
0.005635176915
0.005490949179
0.005347998036
0.005207169328
0.00506809041
0.004921613779
0.004765359805
0.004538916692
0.004331044508
0.004214115718
0.004099759112
)


101
(
-40.68031395
-1.578805998
-0.8297908686
-0.5525318042
-0.4091214403
-0.32270899
-0.2651396706
-0.2236234562
-0.1920923714
-0.1671930111
-0.1468800493
-0.1298931255
-0.1154410068
-0.1030159913
-0.09223363973
-0.08282148186
-0.07456768255
-0.06729674842
-0.0608103105
-0.05500057007
-0.04968855817
-0.04474076781
-0.04005845988
-0.03553392828
-0.0310868832
-0.02669494925
-0.02235466669
-0.01808398231
-0.0139384733
-0.009982229805
-0.006282431776
-0.002898214462
0.0001270962492
0.002735791362
0.004944843139
0.006761945617
0.008216615658
0.009351417619
0.01020922311
0.01083259666
0.01126347398
0.01153783796
0.01168054943
0.01171600417
0.01167018088
0.01157265621
0.01145705156
0.01135150325
0.0112720048
0.01121645141
0.01116986607
0.01111382698
0.01103700781
0.01093938829
0.01082649504
0.01070526912
0.01057955264
0.01045136891
0.01032058737
0.0101872956
0.01005202263
0.009914321089
0.009774322758
0.00963181126
0.009484694415
0.009335326757
0.009182951472
0.009028920863
0.008873670881