/*--------------------------------*- C++ -*----------------------------------*\
| =========                 |                                                 |
| \\      /  F ield         | OpenFOAM: The Open Source CFD Toolbox           |
|  \\    /   O peration     | Version:  2.3.1                                 |
|   \\  /    A nd           | Web:      www.OpenFOAM.org                      |
|    \\/     M anipulation  |                                                 |
\*---------------------------------------------------------------------------*/
FoamFile
{
    version     2.0;
    format      ascii;
    class       dictionary;
    location    "constant";
    object      PM23;
}
// * * * * * * * * * * * * * * * * * * * * * * * * * * * * * * * * * * * * * //

PM23_table
101
(

101
(
1.131894366e-14
3.881219006e-16
-3.277371877e-16
-5.097537155e-16
-7.147235751e-16
-9.875605648e-16
-1.345043997e-15
-1.654277261e-15
-1.924615371e-15
-2.186798986e-15
-2.409833383e-15
-2.559411278e-15
-2.8295251e-15
-2.864690985e-15
-2.843601908e-15
-2.800845355e-15
-2.66146946e-15
-2.203149775e-15
-2.004719297e-15
-1.52038158e-15
-1.18256328e-15
-8.434096765e-16
-5.955731335e-16
-4.19719944e-16
-2.828146682e-16
-1.832048831e-16
-1.118168942e-16
-3.337919015e-17
7.845294582e-18
4.669383626e-17
6.219695935e-17
2.813975204e-17
1.731792861e-16
9.964370097e-17
6.526433871e-17
2.807552018e-16
2.944058945e-16
-3.790644438e-16
-2.539007018e-16
-1.000409295e-16
-9.294125005e-17
-7.412140118e-17
-6.672523745e-17
-6.941212648e-17
-5.35388157e-17
-4.492318921e-17
-3.141601416e-17
-2.505864034e-17
-1.707112474e-17
-1.290304878e-17
-8.327820865e-18
-3.923025148e-18
-4.177326525e-19
1.202630152e-18
2.041940248e-18
6.678570596e-18
6.177794214e-18
8.562019155e-18
9.628809936e-18
1.091626021e-17
1.172829478e-17
1.190521555e-17
1.264388948e-17
1.287067578e-17
1.246467473e-17
1.239397831e-17
1.231684605e-17
1.217130116e-17
1.158660597e-17
1.116406661e-17
1.063537798e-17
1.017954079e-17
9.545638076e-18
1.232201616e-17
8.855367758e-18
2.524110906e-18
2.041319415e-18
3.213533092e-18
3.453140491e-18
3.39141279e-18
3.381597837e-18
3.202664927e-18
3.987728618e-18
2.404086207e-18
9.035771173e-19
9.487542787e-19
1.12853845e-18
1.11603981e-18
1.407665543e-18
6.92933368e-19
3.440239236e-19
5.157983341e-19
4.702260865e-19
3.695093716e-19
2.486435535e-19
1.758305939e-19
1.669592357e-20
2.388007408e-26
-4.971143593e-37
-4.452003388e-37
5.548425651e-37
)


101
(
1.112942836e-14
3.129343581e-16
-3.749882938e-16
-4.987115415e-16
-6.311345867e-16
-8.161920238e-16
-1.065691349e-15
-1.253153629e-15
-1.388093115e-15
-1.502247707e-15
-1.570873433e-15
-1.572530993e-15
-1.678576198e-15
-1.591487371e-15
-1.479113286e-15
-1.377912247e-15
-1.236210143e-15
-8.847455233e-16
-7.755365089e-16
-4.696473579e-16
-2.990384446e-16
-1.263733755e-16
-1.836861164e-17
4.831836192e-17
9.607796956e-17
1.267078103e-16
1.458968177e-16
1.758465512e-16
1.86937745e-16
2.024923958e-16
2.057633818e-16
1.793202589e-16
2.591561432e-16
2.029960673e-16
1.769990957e-16
2.813182459e-16
2.834954176e-16
-8.259486578e-17
-1.575249894e-17
1.012345766e-17
2.122643708e-17
3.619647992e-17
3.963504406e-17
4.00452756e-17
4.831095962e-17
5.208814025e-17
5.939075785e-17
6.153696308e-17
6.475523058e-17
6.494624648e-17
6.543193076e-17
6.511325239e-17
6.423936801e-17
6.25532962e-17
6.071689897e-17
6.040966921e-17
5.758829017e-17
5.6440145e-17
5.40506051e-17
5.218528745e-17
4.991997784e-17
4.753267161e-17
4.523845278e-17
4.280860045e-17
4.052050636e-17
3.838181545e-17
3.606635381e-17
3.374684659e-17
3.143220485e-17
2.927512786e-17
2.707466372e-17
2.486590532e-17
2.256462263e-17
2.150692144e-17
1.835415007e-17
1.509541183e-17
1.33041508e-17
1.181476574e-17
1.064203064e-17
9.607694772e-18
8.688945903e-18
7.714770896e-18
7.107951515e-18
5.814978133e-18
4.867625293e-18
4.095837852e-18
3.506433184e-18
3.041922846e-18
2.704090372e-18
2.144832153e-18
1.835446773e-18
1.522726772e-18
1.271158762e-18
1.079632976e-18
8.96464649e-19
6.039472107e-19
7.346295304e-20
3.285862556e-20
8.372041403e-20
1.248803282e-19
1.177015129e-19
)


101
(
1.094074043e-14
2.821029885e-16
-3.453096113e-16
-4.063099851e-16
-4.515717318e-16
-5.220262654e-16
-6.293545797e-16
-6.60252673e-16
-6.218860201e-16
-5.523514356e-16
-4.357370942e-16
-2.644288808e-16
-1.877297299e-16
2.461656323e-17
2.523177389e-16
4.434438694e-16
6.31132556e-16
9.520815349e-16
1.080073335e-15
1.294410148e-15
1.410524714e-15
1.491392339e-15
1.516277183e-15
1.492584052e-15
1.444183193e-15
1.38176912e-15
1.311122974e-15
1.248884899e-15
1.18271896e-15
1.12109894e-15
1.058912075e-15
9.817303253e-16
9.649659015e-16
9.010568173e-16
8.211925355e-16
8.161016008e-16
8.235164563e-16
5.929080416e-16
4.902372422e-16
4.657982006e-16
4.458641839e-16
4.283366419e-16
4.094619668e-16
3.867636041e-16
3.67640171e-16
3.507199873e-16
3.357682518e-16
3.205038206e-16
3.053573927e-16
2.899241792e-16
2.745985082e-16
2.598605123e-16
2.457750137e-16
2.321414407e-16
2.188628385e-16
2.067203732e-16
1.943922397e-16
1.828098411e-16
1.715848409e-16
1.607950829e-16
1.505575393e-16
1.406355907e-16
1.312374644e-16
1.224712212e-16
1.141785709e-16
1.060698735e-16
9.823749193e-17
9.075671952e-17
8.376563416e-17
7.713494468e-17
7.080612343e-17
6.476537519e-17
5.900858175e-17
5.381571394e-17
4.860746737e-17
4.327011974e-17
3.849880036e-17
3.425839239e-17
3.042261941e-17
2.70373514e-17
2.406966868e-17
2.13258119e-17
1.886122631e-17
1.646309867e-17
1.422050437e-17
1.228926528e-17
1.056148611e-17
9.037540439e-18
7.74952983e-18
6.526449658e-18
5.420414375e-18
4.59755951e-18
3.959960953e-18
3.317606262e-18
2.736552141e-18
1.676177791e-18
3.366801126e-19
5.234972793e-19
8.181495957e-19
1.058352273e-18
1.008799985e-18
)


101
(
1.07528839e-14
2.514697798e-16
-3.171676349e-16
-3.170832579e-16
-2.780059638e-16
-2.379696883e-16
-2.086366624e-16
-8.916996852e-17
1.15255575e-16
3.605994453e-16
6.556242261e-16
9.942392754e-16
1.246293882e-15
1.586321142e-15
1.928505615e-15
2.213567462e-15
2.457580006e-15
2.768508853e-15
2.913535108e-15
3.066004648e-15
3.129256373e-15
3.132222253e-15
3.07864434e-15
2.970550311e-15
2.831327278e-15
2.678168037e-15
2.518742892e-15
2.366761848e-15
2.220373012e-15
2.081825529e-15
1.950142128e-15
1.816763559e-15
1.719351953e-15
1.619981035e-15
1.495562839e-15
1.433905817e-15
1.388860983e-15
1.209607731e-15
1.050916407e-15
9.574693957e-16
8.932164549e-16
8.422203442e-16
7.966030467e-16
7.505852606e-16
7.074057525e-16
6.68703841e-16
6.326482232e-16
5.986466353e-16
5.654805634e-16
5.336963978e-16
5.026846946e-16
4.732245792e-16
4.452918034e-16
4.188085787e-16
3.93697347e-16
3.695942561e-16
3.46811217e-16
3.251789983e-16
3.045642879e-16
2.846961567e-16
2.660070843e-16
2.482879686e-16
2.315233049e-16
2.158116553e-16
2.008970595e-16
1.864718506e-16
1.72691014e-16
1.597452632e-16
1.476956275e-16
1.36292369e-16
1.252855903e-16
1.149593071e-16
1.051688364e-16
9.597321035e-17
8.733108602e-17
7.907894587e-17
7.127534855e-17
6.41288292e-17
5.753263135e-17
5.149382588e-17
4.599132483e-17
4.093174687e-17
3.633888188e-17
3.208591953e-17
2.813555459e-17
2.459542602e-17
2.145654983e-17
1.861389882e-17
1.603854517e-17
1.369581349e-17
1.168668604e-17
1.006337896e-17
8.553106425e-18
7.308707773e-18
5.946891572e-18
3.389697031e-18
1.243859175e-18
2.33540432e-18
3.278195613e-18
4.120475025e-18
4.023822009e-18
)


101
(
1.056586334e-14
2.210495007e-16
-2.905333052e-16
-2.309862289e-16
-1.103263451e-16
3.618571774e-17
1.968660022e-16
4.609613721e-16
8.247723777e-16
1.238845361e-15
1.706438976e-15
2.20799875e-15
2.629680872e-15
3.100186284e-15
3.558000155e-15
3.941626461e-15
4.252321633e-15
4.572777081e-15
4.738690695e-15
4.853340126e-15
4.871446071e-15
4.809047872e-15
4.684209086e-15
4.497981745e-15
4.273701702e-15
4.032704623e-15
3.785778902e-15
3.546049763e-15
3.317921521e-15
3.101561137e-15
2.899250541e-15
2.702976216e-15
2.531605593e-15
2.382941772e-15
2.222978317e-15
2.110871106e-15
1.992985957e-15
1.827077692e-15
1.646518074e-15
1.497830474e-15
1.385503416e-15
1.295588595e-15
1.218791114e-15
1.147143134e-15
1.079546922e-15
1.017612615e-15
9.597040042e-16
9.058157293e-16
8.54556224e-16
8.057458682e-16
7.584664182e-16
7.134077203e-16
6.708876109e-16
6.308937551e-16
5.929792031e-16
5.565779775e-16
5.225861013e-16
4.901286417e-16
4.59406908e-16
4.298529686e-16
4.020157763e-16
3.75900103e-16
3.511057087e-16
3.279062541e-16
3.058310787e-16
2.846215653e-16
2.645018562e-16
2.455537738e-16
2.2765574e-16
2.108424538e-16
1.946127486e-16
1.794004719e-16
1.64958473e-16
1.513266782e-16
1.384481027e-16
1.262826636e-16
1.149546465e-16
1.044917857e-16
9.45755484e-17
8.542154876e-17
7.690333365e-17
6.909493314e-17
6.184432166e-17
5.513820505e-17
4.887915752e-17
4.31939384e-17
3.806318196e-17
3.354204531e-17
2.936857985e-17
2.545633122e-17
2.187294173e-17
1.891096721e-17
1.64371336e-17
1.430609319e-17
1.16370682e-17
6.802245779e-18
3.855739247e-18
6.591370896e-18
8.356449267e-18
9.580706458e-18
8.959580109e-18
)


101
(
1.037968341e-14
1.908521101e-16
-2.653759848e-16
-1.47977286e-16
5.156492328e-17
3.006404398e-16
5.875338127e-16
9.909119189e-16
1.507953672e-15
2.0843386e-15
2.719435245e-15
3.380819889e-15
3.967519938e-15
4.571863547e-15
5.147914661e-15
5.635063361e-15
6.023250364e-15
6.371705151e-15
6.565451327e-15
6.663066711e-15
6.647571645e-15
6.532004102e-15
6.344307872e-15
6.08677811e-15
5.78270933e-15
5.457537155e-15
5.1251841e-15
4.799071858e-15
4.488120883e-15
4.193171887e-15
3.917835655e-15
3.654381538e-15
3.41213385e-15
3.20434386e-15
2.996931351e-15
2.820508094e-15
2.65750414e-15
2.473438697e-15
2.273601804e-15
2.087791375e-15
1.930773133e-15
1.798815297e-15
1.686334687e-15
1.585025681e-15
1.490628177e-15
1.403842378e-15
1.323215246e-15
1.24904129e-15
1.17912207e-15
1.112355013e-15
1.048059858e-15
9.865545023e-16
9.285975941e-16
8.742807345e-16
8.230692813e-16
7.738832643e-16
7.27498205e-16
6.836237775e-16
6.418471661e-16
6.01631775e-16
5.641081115e-16
5.289272181e-16
4.954311013e-16
4.640237669e-16
4.341620267e-16
4.055731063e-16
3.782992782e-16
3.523765489e-16
3.281209071e-16
3.051601603e-16
2.830640124e-16
2.622298599e-16
2.424954539e-16
2.237862807e-16
2.060099814e-16
1.892473349e-16
1.736468763e-16
1.588541984e-16
1.449110743e-16
1.320663792e-16
1.20113114e-16
1.089953638e-16
9.839461588e-17
8.856986947e-17
7.941640412e-17
7.086680193e-17
6.296257079e-17
5.601760097e-17
4.978074741e-17
4.391387822e-17
3.822136894e-17
3.335768896e-17
2.928670521e-17
2.579086237e-17
2.148981705e-17
1.251128926e-17
7.8015273e-18
1.310304579e-17
2.041138719e-17
2.641565761e-17
2.524448049e-17
)


101
(
1.019434939e-14
1.60910865e-16
-2.416647224e-16
-6.801472397e-17
2.078324593e-16
5.55847029e-16
9.642857936e-16
1.502029346e-15
2.166045962e-15
2.898483074e-15
3.696503608e-15
4.514773623e-15
5.262799369e-15
6.003672237e-15
6.701229372e-15
7.296846704e-15
7.772159365e-15
8.16548944e-15
8.396513961e-15
8.49562691e-15
8.460238944e-15
8.304218684e-15
8.062880125e-15
7.741215937e-15
7.362652524e-15
6.957137746e-15
6.542127665e-15
6.131604964e-15
5.737802684e-15
5.363242448e-15
5.01228973e-15
4.680712962e-15
4.368513291e-15
4.097329303e-15
3.837167166e-15
3.6023547e-15
3.387722058e-15
3.171183119e-15
2.947391235e-15
2.730368446e-15
2.533958051e-15
2.359789313e-15
2.2089131e-15
2.074181362e-15
1.950044142e-15
1.836559162e-15
1.731815799e-15
1.635837782e-15
1.545718356e-15
1.46007426e-15
1.377885296e-15
1.298863812e-15
1.224607905e-15
1.155338742e-15
1.089919609e-15
1.027032366e-15
9.678566245e-16
9.116563272e-16
8.579431281e-16
8.064584041e-16
7.583276814e-16
7.129216134e-16
6.697377141e-16
6.292658964e-16
5.909698351e-16
5.543110071e-16
5.191017887e-16
4.855977134e-16
4.540476071e-16
4.24175045e-16
3.958445436e-16
3.686971457e-16
3.428355982e-16
3.18153651e-16
2.947301953e-16
2.726329559e-16
2.518726905e-16
2.320017719e-16
2.13342085e-16
1.959448647e-16
1.797972167e-16
1.645397804e-16
1.500014402e-16
1.362776905e-16
1.234672984e-16
1.112539197e-16
9.981461957e-17
8.957249958e-17
8.068495727e-17
7.206495469e-17
6.367038991e-17
5.610997595e-17
4.977738413e-17
4.45238865e-17
3.666403626e-17
2.174244144e-17
1.820746174e-17
2.987522909e-17
4.345666767e-17
5.36068474e-17
5.005916131e-17
)


101
(
1.000986687e-14
1.014024903e-15
4.722332081e-16
8.943034803e-18
3.586638375e-16
8.024088314e-16
1.328519716e-15
1.996487076e-15
2.800695102e-15
3.683136343e-15
4.640040205e-15
5.61290192e-15
6.519589968e-15
7.399455448e-15
8.222192684e-15
8.931239363e-15
9.502047263e-15
9.955312927e-15
1.023435837e-14
1.035187839e-14
1.031152429e-14
1.012837117e-14
9.84252929e-15
9.46435918e-15
9.017185139e-15
8.535626246e-15
8.041456877e-15
7.549572871e-15
7.074314703e-15
6.620158776e-15
6.192879331e-15
5.791014868e-15
5.409106149e-15
5.072466052e-15
4.755175549e-15
4.463149402e-15
4.193771972e-15
3.934810047e-15
3.679619419e-15
3.431074186e-15
3.1984673e-15
2.984834195e-15
2.794973402e-15
2.623991668e-15
2.46715606e-15
2.324496962e-15
2.19349188e-15
2.073947026e-15
1.962537225e-15
1.85705318e-15
1.755315506e-15
1.65785198e-15
1.566499657e-15
1.480690725e-15
1.399858427e-15
1.322930186e-15
1.25014151e-15
1.180621242e-15
1.114323725e-15
1.050645492e-15
9.908927392e-16
9.345008148e-16
8.806232479e-16
8.302101911e-16
7.825929567e-16
7.372446676e-16
6.93860973e-16
6.52221073e-16
6.125317389e-16
5.747870758e-16
5.389592721e-16
5.044749164e-16
4.718742138e-16
4.406665778e-16
4.107272317e-16
3.824379117e-16
3.557526639e-16
3.301643009e-16
3.058037106e-16
2.825975301e-16
2.611687653e-16
2.410819702e-16
2.21998675e-16
2.035306945e-16
1.863085621e-16
1.694347191e-16
1.536706266e-16
1.39068745e-16
1.264938566e-16
1.145700797e-16
1.024692288e-16
9.082844797e-17
8.170996726e-17
7.384113959e-17
6.142171961e-17
3.91554388e-17
3.776889895e-17
6.044275461e-17
8.88419781e-17
1.092164606e-16
1.006125654e-16
)


101
(
9.826241943e-15
9.804411921e-16
4.896270828e-16
8.297603135e-17
5.042042996e-16
1.040639798e-15
1.680997467e-15
2.475616712e-15
3.413105962e-15
4.439684888e-15
5.551690167e-15
6.677506643e-15
7.740805434e-15
8.762094884e-15
9.713673181e-15
1.054117735e-14
1.12152739e-14
1.174202455e-14
1.20805213e-14
1.223243996e-14
1.220292357e-14
1.200702609e-14
1.168666074e-14
1.126135313e-14
1.075361553e-14
1.020235545e-14
9.633439884e-15
9.06309801e-15
8.507503208e-15
7.973299315e-15
7.468245369e-15
6.993584303e-15
6.540922707e-15
6.137195174e-15
5.758280798e-15
5.40709213e-15
5.081470316e-15
4.77493281e-15
4.48180329e-15
4.198829874e-15
3.930841991e-15
3.678968729e-15
3.449788687e-15
3.241146969e-15
3.049642623e-15
2.875650774e-15
2.716368512e-15
2.572013548e-15
2.437813327e-15
2.310626819e-15
2.188461392e-15
2.072445258e-15
1.962700451e-15
1.85938403e-15
1.762678041e-15
1.670088406e-15
1.582463785e-15
1.498697287e-15
1.41921571e-15
1.342922379e-15
1.270765673e-15
1.202374702e-15
1.136951953e-15
1.075763385e-15
1.018110017e-15
9.633398746e-16
9.109002559e-16
8.599358712e-16
8.108820288e-16
7.64341368e-16
7.203445889e-16
6.783915919e-16
6.383397678e-16
5.993819191e-16
5.618875189e-16
5.265919792e-16
4.929397427e-16
4.60706051e-16
4.297819683e-16
3.9992123e-16
3.719240118e-16
3.462446467e-16
3.216509078e-16
2.979494282e-16
2.749233832e-16
2.525815465e-16
2.317370682e-16
2.115664171e-16
1.941356046e-16
1.777228778e-16
1.605498423e-16
1.446955117e-16
1.32014683e-16
1.201284428e-16
1.017624372e-16
6.694989278e-17
7.247712555e-17
1.146530404e-16
1.726825972e-16
2.176408864e-16
2.024143732e-16
)


101
(
9.643480824e-15
7.279280651e-17
-1.788789621e-16
6.730196188e-16
6.44722199e-16
1.270840559e-15
2.021943508e-15
2.939577548e-15
4.004467992e-15
5.170003985e-15
6.433132991e-15
7.709839502e-15
8.927672228e-15
1.009231132e-14
1.117628554e-14
1.212719532e-14
1.291183175e-14
1.352449562e-14
1.393426674e-14
1.413588323e-14
1.413353716e-14
1.394105115e-14
1.360014442e-14
1.31389911e-14
1.258123189e-14
1.196877905e-14
1.133008095e-14
1.0683416e-14
1.004758608e-14
9.43213245e-15
8.846995635e-15
8.295870134e-15
7.769264288e-15
7.296195914e-15
6.852216014e-15
6.440480527e-15
6.058732869e-15
5.702409208e-15
5.365525585e-15
5.043048619e-15
4.737269817e-15
4.446696822e-15
4.179419798e-15
3.933643964e-15
3.707102267e-15
3.500650223e-15
3.311230622e-15
3.139397993e-15
2.979523068e-15
2.82937069e-15
2.686815718e-15
2.551678266e-15
2.423018612e-15
2.301769147e-15
2.186821326e-15
2.077570128e-15
1.974607769e-15
1.876028943e-15
1.7830752e-15
1.693434813e-15
1.608113262e-15
1.526898447e-15
1.449378575e-15
1.37631311e-15
1.307125611e-15
1.241442843e-15
1.179099068e-15
1.118383574e-15
1.060072882e-15
1.0043852e-15
9.512437787e-16
9.002932089e-16
8.516116253e-16
8.047595957e-16
7.592484295e-16
7.155620587e-16
6.738098978e-16
6.345003892e-16
5.961537455e-16
5.583279149e-16
5.227829609e-16
4.905560385e-16
4.596136665e-16
4.297923869e-16
3.995829386e-16
3.709651173e-16
3.437459893e-16
3.170189619e-16
2.933146073e-16
2.715150646e-16
2.483625888e-16
2.272202191e-16
2.092972646e-16
1.92156252e-16
1.656444121e-16
1.150005192e-16
1.353787022e-16
2.063040528e-16
3.127512414e-16
4.095537574e-16
3.981203815e-16
)


101
(
9.461592826e-15
4.406547785e-17
-1.605991437e-16
7.393499018e-16
7.804397881e-16
1.493296041e-15
2.351565707e-15
3.388459832e-15
4.575995069e-15
5.876307212e-15
7.286127829e-15
8.711155717e-15
1.008117183e-14
1.139053782e-14
1.261029901e-14
1.368944031e-14
1.459114687e-14
1.530087823e-14
1.579392267e-14
1.606037678e-14
1.610197336e-14
1.593091091e-14
1.558762642e-14
1.510308801e-14
1.450788704e-14
1.384388498e-14
1.314045444e-14
1.241948635e-14
1.170390517e-14
1.100659587e-14
1.033950364e-14
9.708531429e-15
9.104457811e-15
8.560054052e-15
8.048851708e-15
7.574981038e-15
7.135917544e-15
6.726698169e-15
6.340579317e-15
5.973771148e-15
5.627768818e-15
5.298503713e-15
4.993856613e-15
4.712020948e-15
4.451033347e-15
4.211448927e-15
3.989668653e-15
3.787153633e-15
3.599568933e-15
3.425412248e-15
3.261364233e-15
3.106029655e-15
2.957947991e-15
2.816852151e-15
2.682755551e-15
2.557820386e-15
2.43852307e-15
2.324751961e-15
2.217105242e-15
2.113624322e-15
2.014574909e-15
1.920072946e-15
1.829724836e-15
1.743398886e-15
1.661629559e-15
1.584831627e-15
1.511895963e-15
1.441407399e-15
1.373333306e-15
1.307366295e-15
1.244188894e-15
1.183686105e-15
1.126157338e-15
1.070506175e-15
1.015998133e-15
9.628772874e-16
9.127648223e-16
8.655763237e-16
8.186390504e-16
7.72279158e-16
7.285511564e-16
6.882096426e-16
6.502792182e-16
6.135021886e-16
5.748553552e-16
5.381943445e-16
5.038375347e-16
4.701053711e-16
4.395407607e-16
4.101311865e-16
3.794232342e-16
3.523630315e-16
3.280175792e-16
3.044955233e-16
2.668393081e-16
1.938666732e-16
2.4514982e-16
3.639772709e-16
5.345616953e-16
6.657228518e-16
6.202315979e-16
)


101
(
9.280588034e-15
1.569204117e-17
-1.435708954e-16
2.886846087e-16
9.114179335e-16
1.708077602e-15
2.669931333e-15
3.822454602e-15
5.128594645e-15
6.559845675e-15
8.111568618e-15
9.68250242e-15
1.120242935e-14
1.265757948e-14
1.401646514e-14
1.5228549e-14
1.625374523e-14
1.707072917e-14
1.765941547e-14
1.800605583e-14
1.810745637e-14
1.797516409e-14
1.764675173e-14
1.715175115e-14
1.65301085e-14
1.582311791e-14
1.506198583e-14
1.427229722e-14
1.348107572e-14
1.270395471e-14
1.195529846e-14
1.124395361e-14
1.056179148e-14
9.944410365e-15
9.363511515e-15
8.824825721e-15
8.32542833e-15
7.859285898e-15
7.419794194e-15
7.005743462e-15
6.617148762e-15
6.247914001e-15
5.905140359e-15
5.58745262e-15
5.291783421e-15
5.018079678e-15
4.76275045e-15
4.528378677e-15
4.311913956e-15
4.11229049e-15
3.92517325e-15
3.748703099e-15
3.580526538e-15
3.419095138e-15
3.267281085e-15
3.124815492e-15
2.987924835e-15
2.857556954e-15
2.734849233e-15
2.617559308e-15
2.504577946e-15
2.396380138e-15
2.292512659e-15
2.193032745e-15
2.098299747e-15
2.009514145e-15
1.925388195e-15
1.845089219e-15
1.76700743e-15
1.69045546e-15
1.617031902e-15
1.546715362e-15
1.478996764e-15
1.413437977e-15
1.34952086e-15
1.287452571e-15
1.228835195e-15
1.172287657e-15
1.116525078e-15
1.061592771e-15
1.008495106e-15
9.589548975e-16
9.13356417e-16
8.683996687e-16
8.206482978e-16
7.750498457e-16
7.32798746e-16
6.918210493e-16
6.522243874e-16
6.129799416e-16
5.747036851e-16
5.407669799e-16
5.084310627e-16
4.775919245e-16
4.262370343e-16
3.261947854e-16
4.223043373e-16
6.060636742e-16
8.815510537e-16
1.112027581e-15
1.057211611e-15
)


101
(
9.100467453e-15
8.491545198e-16
-1.277431344e-16
3.51995531e-16
1.037717774e-15
1.915224092e-15
2.976850108e-15
4.241420237e-15
5.66371409e-15
7.222362161e-15
8.909895182e-15
1.06246041e-14
1.229227889e-14
1.389340848e-14
1.539434412e-14
1.674413282e-14
1.790055334e-14
1.883592632e-14
1.953298438e-14
1.997424396e-14
2.014816166e-14
2.006837711e-14
1.976844849e-14
1.927689487e-14
1.86404106e-14
1.790091346e-14
1.709291336e-14
1.624411153e-14
1.538484358e-14
1.453255643e-14
1.370482498e-14
1.291487068e-14
1.215609031e-14
1.146471139e-14
1.08113257e-14
1.020402681e-14
9.640142381e-15
9.113211822e-15
8.618052138e-15
8.15500075e-15
7.721245194e-15
7.309642953e-15
6.926969661e-15
6.571952457e-15
6.240407851e-15
5.932131985e-15
5.643372696e-15
5.37690199e-15
5.130720874e-15
4.904621746e-15
4.692876683e-15
4.494328759e-15
4.306237562e-15
4.125366748e-15
3.954898853e-15
3.792802236e-15
3.638885633e-15
3.491340172e-15
3.354054475e-15
3.222617912e-15
3.09633315e-15
2.974483774e-15
2.857000668e-15
2.744011936e-15
2.637146792e-15
2.536291464e-15
2.440243674e-15
2.349842411e-15
2.261472465e-15
2.175188399e-15
2.092152159e-15
2.011738556e-15
1.933186643e-15
1.857498622e-15
1.783799196e-15
1.712684859e-15
1.644629334e-15
1.579865163e-15
1.515166545e-15
1.450473912e-15
1.387217914e-15
1.328674403e-15
1.273634959e-15
1.22030072e-15
1.164189179e-15
1.10789285e-15
1.055606208e-15
1.006980312e-15
9.57485008e-16
9.078922039e-16
8.610067386e-16
8.197729822e-16
7.766411051e-16
7.377699088e-16
6.690526634e-16
5.362210019e-16
7.05968116e-16
9.824704803e-16
1.387964816e-15
1.712451094e-15
1.613412664e-15
)


101
(
8.921236865e-15
8.172031835e-16
-1.130788912e-16
4.127412296e-16
1.159374383e-15
2.114794175e-15
3.272256799e-15
4.645300891e-15
6.182468201e-15
7.865520975e-15
9.681600551e-15
1.153815864e-14
1.335148345e-14
1.509798571e-14
1.674354037e-14
1.823594449e-14
1.953240804e-14
2.059851581e-14
2.141653283e-14
2.196647111e-14
2.222338584e-14
2.220736183e-14
2.194834886e-14
2.147646398e-14
2.08410723e-14
2.008299228e-14
1.924022329e-14
1.834211578e-14
1.742205487e-14
1.64998002e-14
1.559709475e-14
1.473143129e-14
1.389732184e-14
1.313130733e-14
1.240297446e-14
1.17237312e-14
1.109219488e-14
1.050234042e-14
9.950586636e-15
9.436751756e-15
8.955964166e-15
8.499933144e-15
8.075538668e-15
7.681007647e-15
7.312002442e-15
6.968917008e-15
6.646915464e-15
6.34819957e-15
6.072164638e-15
5.817844662e-15
5.579487661e-15
5.358781514e-15
5.15164482e-15
4.951617282e-15
4.762078338e-15
4.582481855e-15
4.412080198e-15
4.248235259e-15
4.095377691e-15
3.950210608e-15
3.811320577e-15
3.676261554e-15
3.545511859e-15
3.420754372e-15
3.302581206e-15
3.188387602e-15
3.081356437e-15
2.978740687e-15
2.881602532e-15
2.788819438e-15
2.696906583e-15
2.606737574e-15
2.517897972e-15
2.432091196e-15
2.348196392e-15
2.26731684e-15
2.192300966e-15
2.11901566e-15
2.045127561e-15
1.971348177e-15
1.897708518e-15
1.828973267e-15
1.763565704e-15
1.702013712e-15
1.63698206e-15
1.56891806e-15
1.505659125e-15
1.447656466e-15
1.389107622e-15
1.329070669e-15
1.270669831e-15
1.220962891e-15
1.164225705e-15
1.116599512e-15
1.025775984e-15
8.547748861e-16
1.128483026e-15
1.535655892e-15
2.100332236e-15
2.573248722e-15
2.437763126e-15
)


101
(
8.74291004e-15
-6.700158766e-17
5.67362811e-16
4.709555501e-16
1.276384694e-15
2.306775474e-15
3.556321047e-15
5.034262092e-15
6.685232465e-15
8.490177e-15
1.042856693e-14
1.242356885e-14
1.438096944e-14
1.627275492e-14
1.806577181e-14
1.970568888e-14
2.114941665e-14
2.235665052e-14
2.330674583e-14
2.397500596e-14
2.432621664e-14
2.438801435e-14
2.418704116e-14
2.375276781e-14
2.313621279e-14
2.237625117e-14
2.151179056e-14
2.057354945e-14
1.959924813e-14
1.86130169e-14
1.76414474e-14
1.670425421e-14
1.579560274e-14
1.495494774e-14
1.415050235e-14
1.3397589e-14
1.269651547e-14
1.204228524e-14
1.143295702e-14
1.086692277e-14
1.033833915e-14
9.836431643e-15
9.368131438e-15
8.931967371e-15
8.524428642e-15
8.146233462e-15
7.790895153e-15
7.460684185e-15
7.154365446e-15
6.870070827e-15
6.605286317e-15
6.363049961e-15
6.136556174e-15
5.918662146e-15
5.712414779e-15
5.517118351e-15
5.330946742e-15
5.151444049e-15
4.982612696e-15
4.825097864e-15
4.673834172e-15
4.526803547e-15
4.384689822e-15
4.251205764e-15
4.122071841e-15
3.996365664e-15
3.878184053e-15
3.766854724e-15
3.662304235e-15
3.561703376e-15
3.462700404e-15
3.36502771e-15
3.2685183e-15
3.174038696e-15
3.080033726e-15
2.98986562e-15
2.907178236e-15
2.825488086e-15
2.746304368e-15
2.662329223e-15
2.577945268e-15
2.499191322e-15
2.42343151e-15
2.351762635e-15
2.278226215e-15
2.199823559e-15
2.122784722e-15
2.052319115e-15
1.985256859e-15
1.912398344e-15
1.840338036e-15
1.776990573e-15
1.704707145e-15
1.647055453e-15
1.530145804e-15
1.304321851e-15
1.713577166e-15
2.297759565e-15
3.053298108e-15
3.792276671e-15
3.744086006e-15
)


101
(
8.565496775e-15
-9.366851553e-17
5.762496447e-16
5.266609679e-16
1.388767139e-15
2.491178848e-15
3.829210439e-15
5.408437978e-15
7.172341746e-15
9.09713912e-15
1.115314242e-14
1.328084542e-14
1.538138397e-14
1.741963752e-14
1.936343463e-14
2.11557286e-14
2.275136605e-14
2.410605168e-14
2.519586058e-14
2.598596754e-14
2.644640116e-14
2.660490085e-14
2.648490289e-14
2.610768939e-14
2.55286644e-14
2.478538812e-14
2.391322189e-14
2.29451629e-14
2.192545625e-14
2.088346056e-14
1.984947611e-14
1.884434313e-14
1.786300398e-14
1.694879462e-14
1.606857186e-14
1.524210517e-14
1.44708935e-14
1.375102102e-14
1.308247422e-14
1.246350683e-14
1.188586397e-14
1.133649707e-14
1.082339245e-14
1.034456624e-14
9.896856819e-15
9.482385039e-15
9.094751564e-15
8.735024459e-15
8.398299346e-15
8.085211843e-15
7.795388579e-15
7.531266731e-15
7.285179532e-15
7.051839819e-15
6.830555508e-15
6.619987622e-15
6.420878514e-15
6.227698337e-15
6.044450405e-15
5.871245339e-15
5.712596254e-15
5.557202292e-15
5.408380761e-15
5.269012947e-15
5.129397852e-15
4.995923421e-15
4.868936688e-15
4.752498678e-15
4.640668144e-15
4.531286037e-15
4.429541232e-15
4.327187542e-15
4.227330062e-15
4.127703629e-15
4.023485163e-15
3.923933686e-15
3.830931767e-15
3.746328957e-15
3.662412659e-15
3.569121349e-15
3.476176625e-15
3.386196777e-15
3.298235911e-15
3.218527283e-15
3.133385827e-15
3.04280887e-15
2.950531631e-15
2.864035011e-15
2.783739095e-15
2.695497326e-15
2.607750725e-15
2.524353827e-15
2.435471939e-15
2.361644858e-15
2.209830501e-15
1.909331741e-15
2.501199476e-15
3.314111573e-15
4.280228361e-15
5.029897336e-15
4.767641198e-15
)


101
(
8.389007684e-15
7.238191016e-16
-7.532069462e-17
5.798694745e-16
1.496554678e-15
2.668129473e-15
4.091115279e-15
5.767975086e-15
7.643340674e-15
9.68644857e-15
1.185691326e-14
1.411071462e-14
1.635345352e-14
1.853989964e-14
2.063761441e-14
2.258691066e-14
2.433803497e-14
2.584482725e-14
2.708093034e-14
2.799540504e-14
2.858222335e-14
2.885768429e-14
2.884090854e-14
2.854041016e-14
2.801715291e-14
2.730859042e-14
2.644455435e-14
2.546111342e-14
2.440964209e-14
2.332299916e-14
2.223251825e-14
2.116214891e-14
2.011158914e-14
1.912613576e-14
1.817261185e-14
1.727491354e-14
1.643443548e-14
1.564801328e-14
1.491801889e-14
1.424355644e-14
1.361513667e-14
1.301899061e-14
1.246104701e-14
1.193819198e-14
1.144891797e-14
1.099806079e-14
1.057964749e-14
1.019136223e-14
9.826478919e-15
9.488425539e-15
9.175395998e-15
8.889389257e-15
8.625085359e-15
8.377902082e-15
8.143014276e-15
7.920524245e-15
7.713225918e-15
7.508540964e-15
7.313215414e-15
7.129142336e-15
6.961807081e-15
6.804733649e-15
6.654752153e-15
6.510563491e-15
6.366670433e-15
6.231214023e-15
6.096119066e-15
5.972489369e-15
5.85762241e-15
5.747737564e-15
5.644924599e-15
5.542149801e-15
5.442374197e-15
5.340999518e-15
5.230867366e-15
5.120742431e-15
5.021405893e-15
4.932702258e-15
4.844274823e-15
4.749214681e-15
4.649231371e-15
4.541558572e-15
4.441117867e-15
4.352028167e-15
4.253083279e-15
4.147604609e-15
4.035277364e-15
3.927409718e-15
3.825322823e-15
3.721030373e-15
3.613150917e-15
3.499729731e-15
3.388571255e-15
3.290030126e-15
3.092157028e-15
2.702852284e-15
3.517184492e-15
4.607851824e-15
5.840264184e-15
6.864316974e-15
6.546874175e-15
)


101
(
8.213453041e-15
6.935955909e-16
-6.456194643e-17
6.305932958e-16
1.988255151e-15
2.837750836e-15
4.342231837e-15
6.113061677e-15
8.096571774e-15
1.02558819e-14
1.254116802e-14
1.491504628e-14
1.729885162e-14
1.963385737e-14
2.188621569e-14
2.39945324e-14
2.590416653e-14
2.756864674e-14
2.895911814e-14
3.001144148e-14
3.074224578e-14
3.115327064e-14
3.125435919e-14
3.104913406e-14
3.059908715e-14
2.994332897e-14
2.910624546e-14
2.812552747e-14
2.705898131e-14
2.594026477e-14
2.480035995e-14
2.366907675e-14
2.255417628e-14
2.150106708e-14
2.047785708e-14
1.951226289e-14
1.860431998e-14
1.77507533e-14
1.693667938e-14
1.620677874e-14
1.554621713e-14
1.490344356e-14
1.430083757e-14
1.373490544e-14
1.320466307e-14
1.271752637e-14
1.226794446e-14
1.185229432e-14
1.14650108e-14
1.110665312e-14
1.077342911e-14
1.046754046e-14
1.018678996e-14
9.927393169e-15
9.682430844e-15
9.454220728e-15
9.243221054e-15
9.032547975e-15
8.831867602e-15
8.64590392e-15
8.469052796e-15
8.310934861e-15
8.168203615e-15
8.023637869e-15
7.883216757e-15
7.747220448e-15
7.609875643e-15
7.48603692e-15
7.373509344e-15
7.269221423e-15
7.163249265e-15
7.064012167e-15
6.968956988e-15
6.870825721e-15
6.762167109e-15
6.650281303e-15
6.540545598e-15
6.440165107e-15
6.353199991e-15
6.261758083e-15
6.153383896e-15
6.02662123e-15
5.91230453e-15
5.808360241e-15
5.691023993e-15
5.564828937e-15
5.428348111e-15
5.290861477e-15
5.156638559e-15
5.034453895e-15
4.893505816e-15
4.737086966e-15
4.595332026e-15
4.458330975e-15
4.199209112e-15
3.700009429e-15
4.795157315e-15
6.233618706e-15
7.809888353e-15
9.166328017e-15
8.835151606e-15
)


101
(
8.03884459e-15