/*--------------------------------*- C++ -*----------------------------------*\
| =========                 |                                                 |
| \\      /  F ield         | OpenFOAM: The Open Source CFD Toolbox           |
|  \\    /   O peration     | Version:  2.3.1                                 |
|   \\  /    A nd           | Web:      www.OpenFOAM.org                      |
|    \\/     M anipulation  |                                                 |
\*---------------------------------------------------------------------------*/
FoamFile
{
    version     2.0;
    format      ascii;
    class       dictionary;
    location    "constant";
    object      PM26;
}
// * * * * * * * * * * * * * * * * * * * * * * * * * * * * * * * * * * * * * //

PM26_table
101
(

101
(
3.180292824
0.03294217701
0.002424031867
-0.0007729278131
-0.0002596070807
-0.0001611718524
-0.0001146759162
-2.409723145e-05
-2.32488997e-05
1.001914076e-06
-4.558229816e-07
-1.560102637e-06
-1.835576377e-05
-1.303522884e-06
6.992300837e-07
6.363496869e-07
3.369631962e-07
1.797120505e-07
2.259480885e-07
3.761578431e-07
5.052767029e-07
5.340683181e-07
8.665572383e-06
1.169938354e-06
9.141165033e-08
6.353688154e-10
9.456783853e-08
1.99861124e-07
2.513102419e-07
2.344342354e-07
1.693070604e-07
9.370207921e-08
4.197421482e-08
3.212334671e-08
6.083440897e-08
-1.846561806e-06
-1.913757082e-06
-3.227824264e-07
-3.523600762e-08
-2.548839637e-06
-7.409294075e-07
-7.133885603e-08
1.817013582e-06
1.691435576e-08
-1.08386912e-06
-3.739808007e-07
-1.531877539e-07
-6.465656474e-08
-1.312182874e-08
2.294246241e-08
5.265478479e-08
8.470727283e-08
1.217580661e-07
1.050800893e-06
1.253883966e-06
5.85294694e-07
1.112902992e-06
1.212801073e-06
1.299262006e-06
1.195079121e-06
1.471461446e-06
1.568844213e-06
1.303132604e-06
1.734090373e-06
1.043188416e-06
1.138018952e-06
3.39148602e-07
1.059265592e-06
-8.400102935e-07
-5.454101791e-07
-3.49897786e-07
-1.211693476e-06
-5.69370213e-07
-9.083299362e-07
-1.42657988e-06
-1.19692803e-06
-2.205977397e-06
-1.780945338e-06
-2.012627827e-06
-1.890510233e-06
-1.831402429e-06
-2.273310162e-06
-2.602756371e-06
-2.574616485e-06
-2.72393571e-06
-2.39269914e-06
-2.680330443e-06
-2.1501988e-06
-1.382401896e-06
-1.216186869e-06
-1.206617698e-06
-1.002235229e-06
-5.818268384e-08
1.118342781e-08
7.948963023e-09
-7.925872508e-07
1.697041938e-17
0
0
0
0
)


101
(
3.180291817
0.03302463199
0.002481223705
-0.0007591648625
-0.000265240454
-0.0001623518555
-0.0001154046683
-2.625401667e-05
-2.319982854e-05
2.11391158e-07
-3.427867931e-07
-1.484739992e-06
-1.747729063e-05
-2.348184176e-06
4.918982436e-07
6.505927016e-07
3.798824985e-07
1.906096692e-07
1.992635172e-07
3.335157744e-07
4.739362967e-07
5.304023137e-07
7.722786289e-06
1.986220864e-06
3.535955289e-07
3.524407444e-08
6.420294256e-08
1.643947958e-07
2.358388541e-07
2.435211081e-07
1.947753201e-07
1.208874168e-07
5.696545006e-08
2.83646501e-08
4.096505982e-08
-1.495269228e-06
-1.814881989e-06
-6.167268342e-07
-1.716569759e-07
-2.05440348e-06
-9.877984475e-07
-2.818157473e-07
1.344264401e-06
2.983900574e-07
-7.301960544e-07
-4.289865712e-07
-2.337415187e-07
-1.266036591e-07
-5.971279679e-08
-1.328096274e-08
2.057526471e-08
5.047473358e-08
8.395152558e-08
7.769934422e-07
1.084819408e-06
6.939478563e-07
1.008279745e-06
1.14287165e-06
1.245930496e-06
1.202098744e-06
1.397151248e-06
1.513378417e-06
1.363112209e-06
1.646206329e-06
1.226255399e-06
1.215184935e-06
6.4239366e-07
1.005023576e-06
-2.86650845e-07
-4.047451146e-07
-3.743026194e-07
-9.764783856e-07
-6.514977967e-07
-8.157406687e-07
-1.189937714e-06
-1.132295102e-06
-1.856711826e-06
-1.771028191e-06
-1.981954273e-06
-1.978663338e-06
-1.937475471e-06
-2.185622636e-06
-2.461960029e-06
-2.545646894e-06
-2.717471376e-06
-2.53427194e-06
-2.70996728e-06
-2.348303288e-06
-1.864070922e-06
-1.59371901e-06
-1.262272885e-06
-6.536467969e-07
-5.349322591e-07
-2.154558464e-08
2.031569601e-08
-3.720966322e-07
2.206333472e-17
0
0
0
0
)


101
(
3.180291817
0.03319186931
0.002596143487
-0.0007311352313
-0.0002761639399
-0.0001648662107
-0.0001168983465
-3.052419488e-05
-2.3241305e-05
-1.330598449e-06
-1.874192118e-07
-1.317680514e-06
-1.578986816e-05
-4.225972256e-06
-3.690136376e-08
6.384245087e-07
4.620632169e-07
2.243859451e-07
1.555935965e-07
2.486695907e-07
4.019465302e-07
5.112862186e-07
6.033968599e-06
3.230425743e-06
9.782922908e-07
1.897340664e-07
3.441400856e-08
9.396735087e-08
1.907656871e-07
2.458865092e-07
2.36319236e-07
1.749699937e-07
9.463909474e-08
3.093547029e-08
7.75060754e-09
-9.315873172e-07
-1.556053095e-06
-1.037999665e-06
-4.670709902e-07
-1.327360089e-06
-1.245393209e-06
-6.602652898e-07
5.152929236e-07
5.579858247e-07
-1.419181047e-07
-3.810161281e-07
-3.310653214e-07
-2.437101684e-07
-1.659361424e-07
-1.017044868e-07
-5.422884293e-08
-2.227216789e-08
4.498218715e-09
3.416828735e-07
7.220675309e-07
7.425243671e-07
8.365449568e-07
9.875848819e-07
1.112941182e-06
1.160197828e-06
1.258436562e-06
1.383633873e-06
1.39828219e-06
1.510049564e-06
1.445652374e-06
1.364073783e-06
1.115143779e-06
1.066417735e-06
5.681691778e-07
4.70642621e-08
-2.303774529e-07
-5.849334372e-07
-6.808635544e-07
-6.946412467e-07
-8.414968961e-07
-9.40526057e-07
-1.275963605e-06
-1.556616279e-06
-1.793046783e-06
-1.980053714e-06
-2.055074555e-06
-2.112625426e-06
-2.232624724e-06
-2.368275621e-06
-2.538263564e-06
-2.626541858e-06
-2.75538347e-06
-2.583521991e-06
-2.504689197e-06
-2.244153453e-06
-1.713696151e-06
-7.633921802e-07
-7.833497054e-07
-5.452890612e-07
1.924755485e-07
3.805112041e-07
2.122240165e-17
0
0
0
0
)


101
(
3.180006343
0.03336190294
0.002712288893
-0.0007020918446
-0.0002864588101
-0.0001676498764
-0.0001184544375
-3.469679434e-05
-2.354995075e-05
-2.786645834e-06
-1.671373517e-07
-1.13841823e-06
-1.424828719e-05
-5.697650579e-06
-7.467526197e-07
5.319121455e-07
5.325187832e-07
2.779557715e-07
1.342202439e-07
1.684270927e-07
3.14855957e-07
4.658906657e-07
4.724843386e-06
3.798287937e-06
1.684186777e-06
5.009834574e-07
8.473755892e-08
3.879846708e-08
1.25077677e-07
2.167704605e-07
2.530800561e-07
2.209683817e-07
1.420830449e-07
5.273762965e-08
-9.392232409e-09
-6.05533047e-07
-1.248947415e-06
-1.177237087e-06
-7.403250532e-07
-1.03101228e-06
-1.200031317e-06
-9.096895866e-07
-8.357742204e-08
3.79013591e-07
1.588735285e-07
-1.571353912e-07
-2.952335377e-07
-3.126279834e-07
-2.764118713e-07
-2.169732787e-07
-1.56232611e-07
-1.109967104e-07
-8.329937658e-08
8.191646554e-08
3.694436502e-07
5.487552784e-07
6.678963051e-07
8.00572182e-07
9.305929772e-07
1.018967721e-06
1.102866051e-06
1.208737135e-06
1.285488997e-06
1.381265531e-06
1.433356113e-06
1.435784986e-06
1.348134868e-06
1.279272373e-06
1.053168579e-06
6.426338823e-07
2.14398017e-07
-2.065176102e-07
-4.922966706e-07
-6.13539805e-07
-6.903015592e-07
-7.468547478e-07
-9.055130397e-07
-1.161166198e-06
-1.442416242e-06
-1.726924242e-06
-1.969045189e-06
-2.112990727e-06
-2.16846168e-06
-2.221880981e-06
-2.29244119e-06
-2.439516266e-06
-2.649406226e-06
-2.566493125e-06
-2.678692832e-06
-2.517371258e-06
-2.224741397e-06
-1.689801403e-06
-9.788866157e-07
-1.023858793e-06
1.504394384e-07
3.478130176e-07
1.602517724e-17
0
0
0
0
)


101
(
3.180005755
0.03353341579
0.00282965243
-0.0006720364631
-0.000296103819
-0.0001706904426
-0.0001200640963
-3.877051071e-05
-2.410379663e-05
-4.178208077e-06
-2.657629498e-07
-9.64190249e-07
-1.283181666e-05
-6.823538048e-06
-1.563028635e-06
3.169146266e-07
5.748829626e-07
3.447572685e-07
1.36091649e-07
1.00830002e-07
2.174377166e-07
3.928861656e-07
3.696843253e-06
3.93079186e-06
2.303936901e-06
9.257792141e-07
2.363669733e-07
2.579076089e-08
5.579411514e-08
1.596785035e-07
2.376176578e-07
2.468078266e-07
1.872026967e-07
8.763361824e-08
-9.332954329e-09
-4.1846326e-07
-9.877134963e-07
-1.163523368e-06
-9.253450669e-07
-9.564166454e-07
-1.109535735e-06
-1.024241959e-06
-4.997187846e-07
4.729962359e-08
1.819838202e-07
2.173731035e-08
-1.728369591e-07
-2.994082224e-07
-3.512152563e-07
-3.406823852e-07
-2.911539916e-07
-2.342324148e-07
-1.936174015e-07
-1.04164394e-07
8.038716289e-08
2.729123567e-07
4.289562826e-07
5.695852771e-07
7.00189253e-07
8.023610927e-07
8.835751133e-07
9.688333257e-07
1.05390961e-06
1.153145455e-06
1.255804386e-06
1.340946179e-06
1.374105872e-06
1.381806577e-06
1.32038188e-06
1.110981954e-06
7.543192481e-07
2.973320592e-07
-1.343817073e-07
-4.30748686e-07
-5.992534905e-07
-6.692767183e-07
-7.22637409e-07
-8.562392984e-07
-1.075780419e-06
-1.350783717e-06
-1.65380361e-06
-1.924387943e-06
-2.098225264e-06
-2.162665011e-06
-2.126822825e-06
-2.108850386e-06
-2.272581634e-06
-2.358639202e-06
-2.421204965e-06
-2.48898208e-06
-2.446461754e-06
-2.349178772e-06
-1.519723858e-06
-6.717654661e-07
-2.643008259e-07
-3.404048623e-07
1.572662928e-17
0
0
0
0
)


101
(
3.180291812
0.03370770848
0.002948228477
-0.0006409354071
-0.0003050779999
-0.0001739497413
-0.0001217452352
-4.275053186e-05
-2.489527603e-05
-5.530990017e-06
-4.697589533e-07
-7.976484957e-07
-1.152726337e-05
-7.651042257e-06
-2.432869522e-06
-7.478453051e-09
5.709759286e-07
4.187786473e-07
1.621944891e-07
5.224993636e-08
1.185729645e-07
2.952945564e-07
2.874657689e-06
3.789834251e-06
2.76297551e-06
1.397710019e-06
4.863724025e-07
7.851706176e-08
3.341298288e-09
8.368501182e-08
1.884642278e-07
2.414187804e-07
2.15828567e-07
1.243548144e-07
4.555476122e-09
-3.098881369e-07
-7.957773581e-07
-1.093307944e-06
-1.03466834e-06
-9.83277112e-07
-1.058195705e-06
-1.064748088e-06
-7.720906882e-07
-3.007290544e-07
1.708979067e-08
6.339141827e-08
-5.893609126e-08
-2.264601706e-07
-3.65805225e-07
-4.400347067e-07
-4.432235607e-07
-4.000981005e-07
-3.486308771e-07
-2.824880227e-07
-1.658507025e-07
-1.249800598e-08
1.430356635e-07
2.903537113e-07
4.248729151e-07
5.319258101e-07
6.068488339e-07
6.65812404e-07
7.241758091e-07
8.002230703e-07
9.065004246e-07
1.038770674e-06
1.16482285e-06
1.268039376e-06
1.337930886e-06
1.331098303e-06
1.17769945e-06
8.333840199e-07
3.701316345e-07
-6.805288951e-08
-4.029920143e-07
-6.08190853e-07
-6.869066078e-07
-7.223653771e-07
-8.068891944e-07
-9.695717498e-07
-1.202641864e-06
-1.491694648e-06
-1.787182876e-06
-1.968304587e-06
-1.954870267e-06
-1.845146319e-06
-1.817195402e-06
-2.017836514e-06
-2.113062191e-06
-2.425862237e-06
-2.52893194e-06
-2.7982767e-06
-2.06731868e-06
-7.761794321e-07
-8.750551675e-07
-4.198545666e-07
1.943573794e-17
0
0
0
0
)


101
(
3.180291817
0.0338850651
0.003068173149
-0.0006087541496
-0.0003134004781
-0.0001774150434
-0.0001235246173
-4.664858184e-05
-2.590182935e-05
-6.867349212e-06
-7.776096571e-07
-6.540967998e-07
-1.032720425e-05
-8.224352426e-06
-3.308633813e-06
-4.357770265e-07
5.072156077e-07
4.880398314e-07
2.118949707e-07
2.580486951e-08
2.649790307e-08
1.797437021e-07
2.201906926e-06
3.479748878e-06
3.037505854e-06
1.851225299e-06
8.13006924e-07
2.080212562e-07
-1.209222422e-08
4.066322462e-09
1.093498036e-07
1.977117712e-07
2.140703184e-07
1.483070626e-07
2.396847123e-08
-2.426815668e-07
-6.658103292e-07
-1.021091822e-06
-1.104014842e-06
-1.061654616e-06
-1.069492279e-06
-1.089362078e-06
-9.465575748e-07
-6.064028333e-07
-2.470490534e-07
-4.325275541e-08
-3.058512434e-08
-1.530646514e-07
-3.310654579e-07
-4.897083861e-07
-5.793111607e-07
-5.910083064e-07
-5.547603213e-07
-4.962858529e-07
-4.119522215e-07
-2.979036026e-07
-1.652387843e-07
-2.462709695e-08
1.12722651e-07
2.277239805e-07
3.033738439e-07
3.415320624e-07
3.578668485e-07
3.778571839e-07
4.330723653e-07
5.490689634e-07
7.161871959e-07
8.959626929e-07
1.067494896e-06
1.227325506e-06
1.320682766e-06
1.228866291e-06
9.108364598e-07
4.737508044e-07
3.48390107e-08
-3.464729963e-07
-6.001931688e-07
-6.911911184e-07
-6.887277265e-07
-7.02432334e-07
-7.924773041e-07
-9.928434218e-07
-1.294341265e-06
-1.626275184e-06
-1.805442595e-06
-1.796302756e-06
-1.729711363e-06
-1.841362148e-06
-2.008578137e-06
-2.311088104e-06
-2.442668758e-06
-2.823762136e-06
-2.705713593e-06
-1.662916133e-06
-1.256984024e-06
-4.522948682e-07
1.995035729e-17
0
0
0
0
)


101
(
3.180292837
0.03406483186
0.003189643996
-0.0005755678309
-0.0003210502966
-0.0001810735845
-0.0001253934442
-5.047004243e-05
-2.710055714e-05
-8.209968263e-06
-1.181526127e-06
-5.416224049e-07
-9.217633715e-06
-8.578914115e-06
-4.157197054e-06
-9.557637169e-07
3.705631864e-07
5.370752259e-07
2.770179023e-07
2.546565816e-08
-5.192593011e-08
5.506353956e-08
1.637482159e-06
3.067384921e-06
3.131009965e-06
2.23619525e-06
1.180910044e-06
4.121998316e-07
2.634509788e-08
-6.070168328e-08
1.072609227e-08
1.149530465e-07
1.70656739e-07
1.427808878e-07
3.429589176e-08
-1.998706591e-07
-5.805927731e-07
-9.669736373e-07
-1.162929066e-06
-1.177804788e-06
-1.152466126e-06
-1.145971325e-06
-1.074967841e-06
-8.571221595e-07
-5.433959142e-07
-2.663764875e-07
-1.248732034e-07
-1.446020164e-07
-2.915882997e-07
-4.934499197e-07
-6.702409702e-07
-7.69593019e-07
-7.887793585e-07
-7.544582157e-07
-6.88976205e-07
-6.002961759e-07
-4.908061435e-07
-3.632955229e-07
-2.259696607e-07
-9.697364314e-08
-1.835258042e-09
4.332268134e-08
3.964029539e-08
4.816655936e-09
-2.3422976e-08
9.37075733e-09
1.385383221e-07
3.389218766e-07
5.631936436e-07
8.171508919e-07
1.107715648e-06
1.319784038e-06
1.301259006e-06
1.058532797e-06
6.970398047e-07
2.649901386e-07
-1.816973736e-07
-5.023681882e-07
-6.035256215e-07
-5.548311267e-07
-5.032143472e-07
-5.800725738e-07
-7.818258133e-07
-1.157364186e-06
-1.622026903e-06
-1.836480434e-06
-1.931796631e-06
-1.89318787e-06
-1.918245478e-06
-2.141308506e-06
-2.333038384e-06
-2.403218054e-06
-2.840549204e-06
-2.41206998e-06
-9.024239409e-07
-8.241417942e-07
2.362945606e-17
0
0
0
0
)


101
(
3.180004141
0.03424730248
0.003312466294
-0.0005413061811
-0.0003279861517
-0.0001848610378
-0.0001273519582
-5.420734733e-05
-2.848299629e-05
-9.562461239e-06
-1.676571943e-06
-4.684776801e-07
-8.192499621e-06
-8.749882699e-06
-4.95474012e-06
-1.553297542e-06
1.530248246e-07
5.53499251e-07
3.497384523e-07
5.094701549e-08
-1.087684581e-07
-6.86920145e-08
1.15373697e-06
2.595794221e-06
3.059825828e-06
2.512447208e-06
1.546773062e-06
6.764217138e-07
1.281129709e-07
-9.241751313e-08
-9.128072337e-08
1.350520027e-19
8.078420656e-08
9.245972764e-08
1.684038664e-08
-1.811939167e-07
-5.260125185e-07
-9.305623035e-07
-1.221914681e-06
-1.324851442e-06
-1.310652523e-06
-1.272099019e-06
-1.212456883e-06
-1.072503778e-06
-8.344097272e-07
-5.586769187e-07
-3.380840137e-07
-2.456810077e-07
-3.060148778e-07
-4.866698154e-07
-7.120089717e-07
-9.007793535e-07
-1.005985248e-06
-1.028572743e-06
-9.947194237e-07
-9.270787471e-07
-8.348728448e-07
-7.180745186e-07
-5.799563901e-07
-4.326420214e-07
-3.004522348e-07
-2.104008812e-07
-1.802589907e-07
-2.144255103e-07
-2.943798472e-07
-3.61599615e-07
-3.342368798e-07
-1.834545387e-07
3.618297201e-08
2.967106551e-07
6.536221477e-07
1.079090594e-06
1.387475338e-06
1.462370094e-06
1.355271413e-06
1.09549308e-06
6.459933505e-07
1.019291883e-07
-2.99815679e-07
-4.123420319e-07
-3.240709489e-07
-3.005336626e-07
-4.11962052e-07
-7.110995467e-07
-1.344434904e-06
-1.817527664e-06
-2.089127923e-06
-2.105698176e-06
-1.889572572e-06
-2.082096419e-06
-2.292326656e-06
-2.098281375e-06
-2.438265891e-06
-2.879664591e-06
-1.158046167e-06
-1.059139256e-06
2.810334498e-17
0
0
0
0
)


101
(
3.180004145
0.03443312382
0.003436633945
-0.000505899655
-0.0003341873142
-0.0001887903859
-0.0001294271374
-5.789861106e-05
-3.003567518e-05
-1.094416018e-05
-2.267072764e-06
-4.456149985e-07
-7.249759484e-06
-8.76306274e-06
-5.678114908e-06
-2.21352862e-06
-1.513997991e-07
5.243588375e-07
4.2179169e-07
9.814298217e-08
-1.389387143e-07
-1.813543134e-07
7.358583956e-07
2.096559047e-06
2.846412828e-06
2.655240864e-06
1.868570644e-06
9.73704013e-07
2.8985355e-07
-7.790399394e-08
-1.794092571e-07
-1.332642413e-07
-5.203089955e-08
-1.107336218e-08
-4.676035676e-08
-1.985139069e-07
-4.994423452e-07
-9.059430043e-07
-1.276309497e-06
-1.487971969e-06
-1.533749948e-06
-1.488021959e-06
-1.409745475e-06
-1.294223123e-06
-1.115350036e-06
-8.798270292e-07
-6.385567983e-07
-4.653044411e-07
-4.206590821e-07
-5.230617295e-07
-7.335152102e-07
-9.73121134e-07
-1.163504647e-06
-1.266713516e-06
-1.288030719e-06
-1.252890883e-06
-1.180088177e-06
-1.072141812e-06
-9.303862286e-07
-7.619386857e-07
-5.851208429e-07
-4.253209722e-07
-3.087645307e-07
-2.592696767e-07
-2.949870257e-07
-3.946656731e-07
-4.656534849e-07
-4.095380639e-07
-2.345780388e-07
-1.609421382e-08
2.782279569e-07
7.238136289e-07
1.215704341e-06
1.565573018e-06
1.743112563e-06
1.778656812e-06
1.575485814e-06
1.058031892e-06
3.843708867e-07
-1.034672364e-07
-2.085562209e-07
-1.846733053e-07
-2.851138093e-07
-5.397080254e-07
-1.14559567e-06
-1.740195381e-06
-2.119115126e-06
-2.576062445e-06
-1.892293887e-06
-2.066214752e-06
-2.275741255e-06
-2.125989919e-06
-2.307194244e-06
-3.06022201e-06
-2.14528386e-06
-9.733029747e-07
3.374716289e-17
0
0
0
0
)


101
(
3.180293856
0.03462197024
0.00356246889
-0.0004694237944
-0.0003396938421
-0.0001928615898
-0.0001316013003
-6.154302723e-05
-3.174985086e-05
-1.237852297e-05
-2.94796203e-06
-4.81666669e-07
-6.385115907e-06
-8.641659512e-06
-6.31566001e-06
-2.916978271e-06
-5.454627486e-07
4.341447231e-07
4.783997426e-07
1.618931467e-07
-1.42456799e-07
-2.756594971e-07
3.751885845e-07
1.590377887e-06
2.515990021e-06
2.653228797e-06
2.107330195e-06
1.267863146e-06
4.967728657e-07
-1.206143216e-08
-2.378605588e-07
-2.67949311e-07
-2.158945651e-07
-1.676513028e-07
-1.708016472e-07
-2.698970882e-07
-5.120334732e-07
-8.938302947e-07
-1.316512426e-06
-1.641584406e-06
-1.79208366e-06
-1.788473825e-06
-1.699588003e-06
-1.571614518e-06
-1.41103267e-06
-1.211980153e-06
-9.864787108e-07
-7.784223969e-07
-6.490353524e-07
-6.48780739e-07
-7.843260788e-07
-1.008965642e-06
-1.24400404e-06
-1.420480069e-06
-1.510193676e-06
-1.523801476e-06
-1.479853284e-06
-1.385455936e-06
-1.240109985e-06
-1.049450887e-06
-8.294105368e-07
-5.995464428e-07
-3.79412146e-07
-1.919491954e-07
-7.94783205e-08
-8.334867777e-08
-1.657669813e-07
-1.944252625e-07
-8.497885649e-08
9.365027286e-08
2.888517054e-07
5.960943765e-07
1.045569934e-06
1.482510984e-06
1.804354498e-06
2.04361179e-06
2.145528935e-06
1.922260083e-06
1.272125881e-06
4.416697464e-07
-8.451767312e-08
-2.667941138e-07
-4.510714688e-07
-7.684036256e-07
-1.332782965e-06
-1.921463098e-06
-2.108191154e-06
-3.469404094e-06
-2.102069334e-06
-2.383401061e-06
-2.385865109e-06
-2.258913067e-06
-3.19615262e-06
-3.214143333e-06
-2.65687684e-06
-4.437949062e-07
-1.576573052e-11
0
0
0
0
)


101
(
3.180293304
0.03481376929
0.00369003816
-0.0004318446121
-0.0003444641805
-0.0001969839528
-0.0001338923927
-6.513319475e-05
-3.360653329e-05
-1.386186954e-05
-3.720329342e-06
-5.854426558e-07
-5.598375762e-06
-8.409770266e-06
-6.85537963e-06
-3.644636562e-06
-1.026197605e-06
2.696623341e-07
5.048717729e-07
2.320651891e-07
-1.221433806e-07
-3.444966889e-07
6.930748961e-08
1.095120542e-06
2.093575204e-06
2.504449489e-06
2.230186242e-06
1.520085723e-06
7.23434659e-07
9.87213141e-08
-2.5724765e-07
-3.868035751e-07
-3.930201558e-07
-3.671930564e-07
-3.59444083e-07
-4.128588211e-07
-5.846113915e-07
-9.087810677e-07
-1.341389819e-06
-1.760357205e-06
-2.042711504e-06
-2.13865396e-06
-2.082070904e-06
-1.939604768e-06
-1.760584714e-06
-1.564041128e-06
-1.353170104e-06
-1.141912013e-06
-9.663034468e-07
-8.758220646e-07
-9.059244279e-07
-1.052056883e-06
-1.264473355e-06
-1.470695872e-06
-1.614845936e-06
-1.679692529e-06
-1.672633919e-06
-1.59992175e-06
-1.45762005e-06
-1.247248818e-06
-9.870030903e-07
-7.000012355e-07
-3.98666239e-07
-8.530302433e-08
2.12438292e-07
4.152551594e-07
4.58594552e-07
4.188069137e-07
4.555106237e-07
5.930488151e-07
7.258943324e-07
8.663026399e-07
1.118950487e-06
1.438864526e-06
1.707239942e-06
1.937957668e-06
2.165862079e-06
2.25704248e-06
1.923940859e-06
1.062707558e-06
1.188713585e-07
-4.784769757e-07
-8.759547262e-07
-1.268485843e-06
-1.748880274e-06
-2.346957137e-06
-2.112602087e-06
-4.589170747e-06
-2.887222277e-06
-3.465626418e-06
-3.347558381e-06
-2.253225197e-06
-4.91590473e-06
-3.78137799e-06
-3.330453695e-06
-6.116307336e-08
3.589526223e-17
-7.452263475e-23
0
0
0
)


101
(
3.180005397
0.0350091641
0.003819334219
-0.0003931295636
-0.000348477826
-0.0002011572973
-0.0001363006205
-6.870113128e-05
-3.559153696e-05
-1.539836916e-05
-4.591589905e-06
-7.658722907e-07
-4.889273053e-06
-8.083227969e-06
-7.291207727e-06
-4.378031299e-06
-1.591518533e-06
2.021758025e-08
4.857930279e-07
2.955726572e-07
-8.313790737e-08
-3.858838642e-07
-1.828775199e-07
6.289486834e-07
1.610024315e-06
2.220541296e-06
2.215253909e-06
1.692145634e-06
9.36255e-07
2.371335531e-07
-2.382101249e-07
-4.778155932e-07
-5.643675975e-07
-5.896076214e-07
-6.024463266e-07
-6.346729866e-07
-7.387863228e-07
-9.779669597e-07
-1.367411208e-06
-1.833119457e-06
-2.241644846e-06
-2.480660686e-06
-2.518360958e-06
-2.398719168e-06
-2.19395883e-06
-1.963282873e-06
-1.734676714e-06
-1.517494531e-06
-1.322316846e-06
-1.174299049e-06
-1.105287316e-06
-1.137777938e-06
-1.261578805e-06
-1.430239406e-06
-1.583374243e-06
-1.67873607e-06
-1.704332389e-06
-1.65839665e-06
-1.530080637e-06
-1.310504506e-06
-1.014884992e-06
-6.799646433e-07
-3.302974866e-07
4.694079306e-08
4.716969993e-07
8.902252631e-07
1.163444331e-06
1.229392405e-06
1.219625078e-06
1.283818656e-06
1.371178262e-06
1.399472699e-06
1.439698827e-06
1.54210925e-06
1.631473341e-06
1.696846432e-06
1.828496752e-06
2.02973511e-06
2.047460533e-06
1.48059225e-06
3.944994156e-07
-6.444727514e-07
-1.389302059e-06
-1.824829225e-06
-1.90951856e-06
-2.239712767e-06
-1.63670836e-06
-4.351062448e-06
-4.044615085e-06
-4.502055551e-06
-5.108792645e-06
-2.633510227e-06
-6.605043551e-06
-5.475163771e-06
-5.222379699e-06
-9.470361885e-07
3.441577559e-17
0
0
0
0
)


101
(
3.180003018
0.03520843149
0.003950261116
-0.0003532091015
-0.000351734145
-0.0002053683324
-0.0001388170512
-7.223954786e-05
-3.77105691e-05
-1.700800743e-05
-5.559659716e-06
-1.034657215e-06
-4.266200982e-06
-7.680279054e-06
-7.616998245e-06
-5.101980064e-06
-2.236791627e-06
-3.232204818e-07
4.049966781e-07
3.377844152e-07
-3.516609056e-08
-4.040379185e-07
-3.838001826e-07
2.042247447e-07
1.094263147e-06
1.819887152e-06
2.052589423e-06
1.749390373e-06
1.097346144e-06
3.765278144e-07
-1.931661936e-07
-5.389782494e-07
-7.139531179e-07
-8.09791349e-07
-8.749385245e-07
-9.235626096e-07
-9.854813056e-07
-1.131035932e-06
-1.42780106e-06
-1.87138898e-06
-2.36051786e-06
-2.750716178e-06
-2.938128026e-06
-2.905293497e-06
-2.708394978e-06
-2.433119703e-06
-2.148031123e-06
-1.890189351e-06
-1.66893278e-06
-1.48591274e-06
-1.346776433e-06
-1.26876753e-06
-1.266268094e-06
-1.331513053e-06
-1.42851676e-06
-1.510752865e-06
-1.547000842e-06
-1.522756263e-06
-1.418514928e-06
-1.210013915e-06
-8.956016891e-07
-5.189379796e-07
-1.365697383e-07
2.450882045e-07
6.842732197e-07
1.208659312e-06
1.701544378e-06
1.967178559e-06
1.990131162e-06
1.960339131e-06
1.965878043e-06
1.921519516e-06
1.814103582e-06
1.71548611e-06
1.612165439e-06
1.484350669e-06
1.424783934e-06
1.533960622e-06
1.721451432e-06
1.548325432e-06
6.586708003e-07
-6.035216518e-07
-1.704927783e-06
-2.221002507e-06
-1.73047078e-06
-1.310117946e-06
-6.32591733e-07
-1.818220839e-06
-4.52119127e-06
-4.263511771e-06
-5.387531578e-06
-3.441851891e-06
-5.830737313e-06
-7.183716089e-06
-8.040701751e-06
-4.239709414e-06
-9.454048816e-11
-8.789069308e-23
0
0
0
)


101
(
3.18028817
0.03541092574
0.004083138628
-0.0003121595544
-0.000354212881
-0.0002095910315
-0.0001414419401
-7.576762862e-05
-3.994924083e-05
-1.869119032e-05
-6.625578902e-06
-1.40108076e-06
-3.735523393e-06
-7.221683337e-06
-7.831268802e-06
-5.796639636e-06
-2.947607701e-06
-7.678892221e-07
2.464836796e-07
3.432844387e-07
8.566877456e-09
-4.047864593e-07
-5.38492892e-07
-1.705167508e-07
5.734076778e-07
1.328625061e-06
1.745177945e-06
1.666872894e-06
1.168943315e-06
4.825499029e-07
-1.442761598e-07
-5.793306968e-07
-8.36935196e-07
-1.006377599e-06
-1.143950956e-06
-1.248981804e-06
-1.313765926e-06
-1.385986622e-06
-1.562043432e-06
-1.910539079e-06
-2.400678119e-06
-2.901812883e-06
-3.259640249e-06
-3.377793614e-06
-3.254900343e-06
-2.96589606e-06
-2.609717436e-06
-2.26846466e-06
-1.982358953e-06
-1.754441855e-06
-1.567498946e-06
-1.408253418e-06
-1.282173841e-06
-1.206483847e-06
-1.184783728e-06
-1.195379355e-06
-1.204633293e-06
-1.184878513e-06
-1.108875934e-06
-9.367760644e-07
-6.400940693e-07
-2.433277899e-07
1.703902091e-07
5.386737974e-07
9.011904762e-07
1.369176292e-06
1.944920379e-06
2.408221659e-06
2.557298947e-06
2.475071175e-06
2.363935808e-06
2.242572512e-06
2.051964308e-06
1.824806246e-06
1.585296646e-06
1.318887451e-06
1.093185769e-06
1.032918497e-06
1.190960723e-06
1.304892598e-06
8.208718705e-07
-3.112877125e-07
-1.563192583e-06
-2.192780093e-06
-1.384636293e-06
-3.199975089e-07
1.379338974e-08
8.862153358e-07
-4.013865418e-06
-3.473778602e-06
-2.78376417e-06
-4.624018747e-06
-1.318322337e-06
-5.345956468e-06
-7.971916421e-06
-9.435820352e-06
-6.307930204e-11
-5.653073289e-22
0
0
0
)


101
(
3.180292905
0.03561702084
0.004218128631
-0.0002698767517
-0.0003559349308
-0.000213799591
-0.0001441755805
-7.929159108e-05
-4.229806024e-05
-2.044836098e-05
-7.793590323e-06
-1.871914308e-06
-3.305902882e-06
-6.727030169e-06
-7.939026871e-06
-6.442823574e-06
-3.713604379e-06
-1.319137701e-06
-7.369289651e-09
2.942143405e-07
3.332349757e-08
-3.995703678e-07
-6.559370512e-07
-4.925283091e-07
7.196336854e-08
7.795704437e-07
1.308748391e-06
1.434463448e-06
1.120390069e-06
5.209257639e-07
-1.204553578e-07
-6.193094123e-07
-9.420136136e-07
-1.171030847e-06
-1.380597655e-06
-1.569147764e-06
-1.689065072e-06
-1.737307144e-06
-1.800063404e-06
-2.000403399e-06
-2.396314278e-06
-2.921995701e-06
-3.417475964e-06
-3.719453327e-06
-3.742737715e-06
-3.507541109e-06
-3.108971684e-06
-2.665071148e-06
-2.266753217e-06
-1.952462965e-06
-1.708690618e-06
-1.494176316e-06
-1.278134819e-06
-1.067240571e-06
-8.930039889e-07
-7.772625921e-07
-7.108465181e-07
-6.675839341e-07
-6.14254789e-07
-5.008609892e-07
-2.706311672e-07
9.439718973e-08
5.222192098e-07
8.910317923e-07
1.158236881e-06
1.451852522e-06
1.918715026e-06
2.460797591e-06
2.770906445e-06
2.730029229e-06
2.527440667e-06
2.318864442e-06
2.081739579e-06
1.799573747e-06
1.496992623e-06
1.163991481e-06
8.356762286e-07
6.127675673e-07
6.244602448e-07
8.482252002e-07
8.184156419e-07
1.592349619e-07
-8.894693658e-07
-1.5801599e-06
-9.140101738e-07
1.735281913e-07
-9.482894388e-08
1.644620443e-06
-2.774570511e-06
-3.579393706e-06
-3.980634174e-07
-6.530258723e-06
2.311400587e-06
-7.587631628e-07
-2.897987111e-06
-1.267184233e-05
-2.051904357e-10
-5.035480374e-22
0
0
0
)


101
(
3.180005392
0.03582752183
0.004355201202
-0.0002262910747
-0.0003568785632
-0.000217954022
-0.0001470355254
-8.281726081e-05
-4.47522592e-05
-2.227980545e-05
-9.061448526e-06
-2.456651671e-06
-2.990562534e-06
-6.216470786e-06
-7.937500487e-06
-7.028965866e-06
-4.521486823e-06
-1.978164133e-06
-3.693275633e-07
1.718227723e-07
2.278636548e-08
-4.025600394e-07
-7.499623599e-07
-7.653818512e-07
-3.947805867e-07
2.048831029e-07
7.706698322e-07
1.054974423e-06
9.307974783e-07
4.600838769e-07
-1.511371014e-07
-6.841873292e-07
-1.049613358e-06
-1.311743741e-06
-1.568822905e-06
-1.842176506e-06
-2.058831753e-06
-2.148205227e-06
-2.144098084e-06
-2.182827698e-06
-2.404011916e-06
-2.841253004e-06
-3.386050989e-06
-3.848775734e-06
-4.063089792e-06
-3.961821014e-06
-3.590640834e-06
-3.070763576e-06
-2.537320295e-06
-2.086312358e-06
-1.744038904e-06
-1.471275572e-06
-1.202188003e-06
-8.990184205e-07
-5.838601639e-07
-3.134048941e-07
-1.246610781e-07
-2.028146714e-08
2.872392254e-08
7.439964452e-08
1.934504448e-07
4.528205673e-07
8.368744029e-07
1.208339269e-06
1.422942352e-06
1.524580131e-06
1.740185e-06
2.177329851e-06
2.589122437e-06
2.671988425e-06
2.464360967e-06
2.191867517e-06
1.92748376e-06
1.640538026e-06
1.333494357e-06
9.942088958e-07
6.238459341e-07
2.815843287e-07
1.075029168e-07
2.789354767e-07
6.293618511e-07
6.681217162e-07
1.747436298e-07
-4.618239246e-07
-3.586146382e-07
2.815278872e-07
-5.470383339e-07
5.955952103e-07
-1.000096409e-06
-3.08984585e-06
-3.988603026e-07
-8.192210766e-06
1.193582461e-06
1.675282073e-06
1.263515427e-06
-8.622283017e-06
-1.263780838e-10
-2.033886245e-21
0
0
0
)


101
(
3.180000657
0.03604175419
0.00449458869
-0.0001815518586
-0.00035700324
-0.0002220408677
-0.000149985873
-8.637059931e-05
-4.730707073e-05
-2.41938373e-05
-1.043330201e-05
-3.167604062e-06
-2.798495304e-06
-5.708877057e-06
-7.836961205e-06
-7.537550329e-06
-5.351245326e-06
-2.739619708e-06
-8.526143606e-07
-4.436910519e-08
-4.25022123e-08
-4.294767232e-07
-8.378207725e-07
-1.001149266e-06
-8.192627723e-07
-3.663757449e-07
1.653847586e-07
5.45956934e-07
5.94336326e-07
2.772145506e-07
-2.622097703e-07
-7.980313147e-07
-1.18536548e-06
-1.45053211e-06
-1.712607936e-06
-2.039134114e-06
-2.363121511e-06
-2.552837243e-06
-2.556471179e-06
-2.470912346e-06
-2.479795914e-06
-2.722100952e-06
-3.190024981e-06
-3.728320705e-06
-4.123514312e-06
-4.214238891e-06
-3.959066623e-06
-3.436567716e-06
-2.794215746e-06
-2.181332871e-06
-1.689462618e-06
-1.322561229e-06
-1.01130851e-06
-6.697218585e-07
-2.68768367e-07
1.404061743e-07
4.756477756e-07
6.819006788e-07
7.608211789e-07
7.526332867e-07
7.368233202e-07
8.21954595e-07
1.070863012e-06
1.400970009e-06
1.610428002e-06
1.592263187e-06
1.529086914e-06
1.70489912e-06
2.080210288e-06
2.299636384e-06
2.19028548e-06
1.918534693e-06
1.646787997e-06
1.376631432e-06
1.091729271e-06
7.825875874e-07
4.300087773e-07
4.540467127e-08
-2.763967075e-07
-2.592547144e-07
3.035633377e-07
1.067062121e-06
1.347218884e-06
9.082189192e-07
2.14177673e-07
1.523490049e-07
-9.25819087e-07
-1.111818587e-06
4.356003891e-08
-6.422635695e-07
-8.833667727e-07
-7.598375701e-06
-2.613699262e-06
1.176715089e-06
5.991805876e-07
8.001165893e-07
2.689680202e-10
-1.474271112e-21
0
0
0
)


101
(
3.180292904
0.03626049011
0.004636053096
-0.000135411142
-0.0003563309422
-0.0002260348295