/*--------------------------------*- C++ -*----------------------------------*\
| =========                 |                                                 |
| \\      /  F ield         | OpenFOAM: The Open Source CFD Toolbox           |
|  \\    /   O peration     | Version:  2.3.1                                 |
|   \\  /    A nd           | Web:      www.OpenFOAM.org                      |
|    \\/     M anipulation  |                                                 |
\*---------------------------------------------------------------------------*/
FoamFile
{
    version     2.0;
    format      ascii;
    class       dictionary;
    location    "constant";
    object      PM27;
}
// * * * * * * * * * * * * * * * * * * * * * * * * * * * * * * * * * * * * * //

PM27_table
101
(

101
(
9.978757711e-15
-2.313236571e-14
-4.998029902e-15
2.65925158e-14
3.207049196e-14
1.478683609e-14
7.283360225e-14
6.639683879e-14
8.329856961e-14
9.139897404e-14
1.072409449e-13
9.752270708e-14
1.424923578e-13
1.319729798e-13
1.303074259e-13
1.451858242e-13
1.727165073e-13
1.139457096e-13
2.060654256e-13
1.527357712e-13
1.407050198e-13
2.034392227e-13
1.927753052e-13
1.799422252e-13
1.810981692e-13
1.826488573e-13
1.793024796e-13
1.891341476e-13
1.872421459e-13
1.897480252e-13
1.83632305e-13
1.443592348e-13
2.44844006e-13
2.039541785e-13
1.878866872e-13
1.806141138e-13
1.603373609e-13
1.749043189e-13
2.099103127e-13
2.151326936e-13
1.684129116e-13
1.822016272e-13
1.847308777e-13
1.592752327e-13
1.693260825e-13
1.602292042e-13
1.688229051e-13
1.627501433e-13
1.675631775e-13
1.586071323e-13
1.549102496e-13
1.526887364e-13
1.475144486e-13
1.404230363e-13
1.350297728e-13
1.50528732e-13
1.308938378e-13
1.352002501e-13
1.295402584e-13
1.289337398e-13
1.246769868e-13
1.183368426e-13
1.164655641e-13
1.129865644e-13
1.105060377e-13
1.059598315e-13
1.014103754e-13
1.016582752e-13
9.700421906e-14
9.385416493e-14
9.189153929e-14
9.268275214e-14
8.566651901e-14
7.610983555e-14
6.611225131e-14
6.676173983e-14
6.669219674e-14
6.143392562e-14
5.558600457e-14
5.067682369e-14
5.112480293e-14
4.705610954e-14
4.349249729e-14
3.847996392e-14
3.356456582e-14
3.053697141e-14
2.792152702e-14
2.545744908e-14
2.356791911e-14
1.89124543e-14
1.559605808e-14
1.432863875e-14
1.182664066e-14
9.590083022e-15
6.843636975e-15
-1.715499979e-15
-1.064304397e-14
-1.815673653e-20
-6.962249332e-29
-2.281929018e-30
1.404719579e-28
)


101
(
8.762004169e-15
-2.402237614e-14
-1.087407624e-14
1.081293778e-14
4.159384936e-15
-2.537128881e-14
1.553470247e-14
-3.360216071e-15
2.278133372e-16
-3.373523537e-15
1.101668694e-15
-1.570440774e-14
1.57808345e-14
7.585675958e-16
-5.374927478e-15
2.264260317e-15
2.074568286e-14
-2.871164715e-14
4.054992244e-14
-3.135512055e-15
-1.243076894e-14
3.055615339e-14
2.0941535e-14
1.177748474e-14
1.037685472e-14
9.278467815e-15
5.476874171e-15
1.081737712e-14
8.790040613e-15
1.073042585e-14
7.045067245e-15
-1.715203895e-14
4.339604757e-14
1.711159444e-14
1.380726977e-14
6.755424781e-15
-5.175643341e-15
3.069294851e-15
2.207190463e-14
2.758143232e-14
6.397637794e-15
1.44369891e-14
1.221159491e-14
9.794046784e-16
6.500809501e-15
6.464768559e-16
7.022933482e-15
4.265986993e-15
8.868478116e-15
5.109488928e-15
5.108576731e-15
4.048302163e-15
2.557677875e-15
3.615824956e-16
-1.140419292e-15
6.439125511e-15
-8.989562119e-16
4.48412967e-15
1.279216297e-15
3.625294091e-15
2.472300007e-15
1.671014158e-15
1.90135464e-15
1.507550254e-15
2.088576888e-15
1.70223874e-15
1.605525285e-15
3.152707071e-15
3.0263274e-15
4.166261627e-15
4.928802129e-15
6.629296431e-15
4.85534625e-15
2.323320571e-15
-9.904212426e-16
3.493213523e-16
1.649690628e-15
2.129899291e-15
1.563832178e-15
9.187335129e-16
2.452749778e-15
2.304284524e-15
2.716294518e-15
2.110856058e-15
2.047913919e-15
2.141910867e-15
2.294723364e-15
2.532754549e-15
2.779302656e-15
2.396653114e-15
2.584009549e-15
2.568156809e-15
2.484226424e-15
2.535662152e-15
-1.45408085e-15
-1.941764535e-14
-2.134678956e-13
-3.738658443e-13
-3.813101902e-13
-3.871227369e-13
-3.806108065e-13
)


101
(
7.599838251e-15
-2.21376424e-14
-8.867749744e-15
1.176916008e-14
5.01770547e-15
-2.375734848e-14
1.308665624e-14
-2.545799552e-15
-5.141477622e-16
-3.785488018e-15
-3.325974541e-16
-1.481992741e-14
1.042317289e-14
9.958015401e-16
-5.932257149e-15
-7.576060247e-16
1.512680684e-14
-2.132859699e-14
2.478186582e-14
2.678507969e-15
-1.119138057e-14
1.818836405e-14
1.98113364e-14
1.235761279e-14
9.15016542e-15
7.693586889e-15
4.713183964e-15
7.243034605e-15
7.107514545e-15
8.11650008e-15
6.450539999e-15
-9.294727162e-15
2.090299642e-14
2.108831713e-14
1.487329386e-14
8.773441001e-15
-8.42558367e-16
-3.633614954e-16
1.181235316e-14
2.141028081e-14
1.365196328e-14
1.19433306e-14
1.160690191e-14
5.327991747e-15
4.302236577e-15
2.200069098e-15
3.739215509e-15
4.163057557e-15
6.058312749e-15
5.800413377e-15
5.03225141e-15
4.308661934e-15
3.25922169e-15
1.757587836e-15
2.829637418e-16
2.900881283e-15
2.191040158e-15
2.872034959e-15
2.816057415e-15
3.213990212e-15
3.368200148e-15
2.919855483e-15
2.729284025e-15
2.604276596e-15
2.788458182e-15
2.875333144e-15
2.85529955e-15
3.518131805e-15
4.175852619e-15
5.015625683e-15
5.944242263e-15
6.941272471e-15
6.500417108e-15
4.473150526e-15
1.911166726e-15
1.442817326e-15
2.67197339e-15
3.550597169e-15
3.286633519e-15
2.719246351e-15
3.326231475e-15
3.817163038e-15
3.718584149e-15
3.441653009e-15
3.297095983e-15
3.440439875e-15
3.559871554e-15
3.636476424e-15
3.543702137e-15
3.210420867e-15
2.927025754e-15
2.79153012e-15
2.405056237e-15
1.415061928e-15
-8.338319074e-15
-4.386908395e-14
-4.207408394e-13
-7.47098833e-13
-7.618137882e-13
-7.732804061e-13
-7.602593573e-13
)


101
(
6.491370567e-15
-2.030126046e-14
-6.904876927e-15
1.272546905e-14
5.874880053e-15
-2.217234959e-14
1.085417061e-14
-1.910639971e-15
-1.123899691e-15
-4.18525938e-15
-1.627117175e-15
-1.41446905e-14
5.869370454e-15
5.943649181e-16
-6.383847047e-15
-3.326598814e-15
1.006324789e-14
-1.627904825e-14
1.343635445e-14
4.48689689e-15
-9.496299204e-15
9.128177576e-15
1.632810951e-14
1.204191504e-14
8.201117264e-15
6.17601674e-15
3.625445305e-15
4.419756575e-15
4.875602099e-15
5.566735771e-15
4.945652546e-15
-5.014414399e-15
8.6347223e-15
1.722894938e-14
1.489247058e-14
9.68157037e-15
1.94623319e-15
-1.200472046e-15
4.973345075e-15
1.411960951e-14
1.413565015e-14
1.143734113e-14
1.032333501e-14
6.625156414e-15
3.775997895e-15
1.987276517e-15
1.780409727e-15
2.412511283e-15
3.520580476e-15
4.184508546e-15
3.887748861e-15
3.338420956e-15
2.590882903e-15
1.582784002e-15
4.280312811e-16
9.680203671e-16
1.533694479e-15
1.697556453e-15
1.970260813e-15
2.121317042e-15
2.360976756e-15
2.269852398e-15
2.080512032e-15
1.957338668e-15
1.98044739e-15
2.085147733e-15
2.158037019e-15
2.512894308e-15
3.172803485e-15
3.99677023e-15
4.885601409e-15
5.5363627e-15
5.165471451e-15
3.406376237e-15
1.220363521e-15
3.881982267e-16
1.179845692e-15
1.983531084e-15
1.788657639e-15
1.294816754e-15
1.613592405e-15
1.941243151e-15
1.535731109e-15
1.021583722e-15
6.612844973e-16
5.565175067e-16
5.839963962e-16
5.362179475e-16
-2.228882313e-17
-9.437661113e-16
-1.877336925e-15
-2.742955563e-15
-4.177338337e-15
-6.831422983e-15
-2.452082081e-14
-7.749946528e-14
-6.341508212e-13
-1.120162494e-12
-1.142270102e-12
-1.159483792e-12
-1.139928984e-12
)


101
(
5.435704757e-15
-1.851338822e-14
-4.986328395e-15
1.368030917e-14
6.73141135e-15
-2.061507315e-14
8.826090891e-15
-1.433471556e-15
-1.624356124e-15
-4.564601725e-15
-2.79500891e-15
-1.364661891e-14
1.995147399e-15
-2.772396639e-16
-6.839149528e-15
-5.525388832e-15
5.509254798e-15
-1.307515014e-14
5.21461279e-15
3.860704815e-15
-8.162676773e-15
2.557828965e-15
1.173896699e-14
1.05979404e-14
7.114073495e-15
4.661653934e-15
2.25970631e-15
1.958212127e-15
2.391420691e-15
2.91822578e-15
2.8266708e-15
-3.287971154e-15
1.658776657e-15
1.11474945e-14
1.245242487e-14
9.254410672e-15
3.434883059e-15
-1.170581466e-15
6.682340918e-16
7.455517798e-15
1.090236011e-14
9.810819156e-15
8.573749076e-15
6.001007801e-15
2.92957303e-15
9.445846165e-16
-1.363829863e-16
3.842910821e-17
6.079807891e-16
1.345279189e-15
1.376168667e-15
1.032603741e-15
4.671902301e-16
-2.348901393e-16
-1.060407156e-15
-1.263447992e-15
-7.697564798e-16
-6.940696887e-16
-4.553480357e-16
-4.422635099e-16
-3.369140473e-16
-3.812016241e-16
-5.415772673e-16
-7.06337795e-16
-8.252791777e-16
-8.615136954e-16
-8.594159693e-16
-6.929066713e-16
-2.188008924e-16
4.681389324e-16
1.232535723e-15
1.613529005e-15
9.537994628e-16
-9.905140123e-16
-3.229139988e-15
-4.257377671e-15
-3.814434971e-15
-3.314559126e-15
-3.719828359e-15
-4.332088033e-15
-4.186682222e-15
-4.127232488e-15
-4.969219117e-15
-5.983772067e-15
-6.85294294e-15
-7.479127337e-15
-7.943592887e-15
-8.218365217e-15
-9.187633799e-15
-1.093283907e-14
-1.313213133e-14
-1.547845901e-14
-1.821281032e-14
-2.318774615e-14
-5.263566166e-14
-1.228198854e-13
-8.537420884e-13
-1.493496918e-12
-1.523057715e-12
-1.546129696e-12
-1.52008743e-12
)


101
(
4.43193103e-15
-1.677428034e-14
-3.112905983e-15
1.463200682e-14
7.586719787e-15
-1.90849915e-14
6.991805665e-15
-1.094781637e-15
-2.035554239e-15
-4.919002234e-15
-3.848377291e-15
-1.329809365e-14
-1.305794308e-15
-1.484515916e-15
-7.365192144e-15
-7.432706446e-15
1.415739434e-15
-1.131500052e-14
-8.399220939e-16
1.839029525e-15
-7.538336579e-15
-2.264847489e-15
6.81548237e-15
8.137953615e-15
5.611300398e-15
3.037168418e-15
6.441027171e-16
-3.815603503e-16
-2.224304314e-16
1.333329736e-16
2.859472466e-16
-3.335647651e-15
-2.783611657e-15
5.027481451e-15
8.314179945e-15
7.468580773e-15
3.423763868e-15
-1.282702416e-15
-2.11925584e-15
1.960379319e-15
6.096719219e-15
6.554607593e-15
5.890400562e-15
3.991599893e-15
1.13291141e-15
-9.45530826e-16
-2.51751668e-15
-2.859859353e-15
-2.802310947e-15
-2.320308242e-15
-2.285386671e-15
-2.570309147e-15
-3.086354128e-15
-3.680077817e-15
-4.311658281e-15
-4.74489957e-15
-4.499174146e-15
-4.609821324e-15
-4.527667289e-15
-4.725820108e-15
-4.874729267e-15
-5.100527793e-15
-5.390067308e-15
-5.685203821e-15
-5.99194724e-15
-6.27321602e-15
-6.522505839e-15
-6.649993272e-15
-6.483087529e-15
-6.093809262e-15
-5.606200847e-15
-5.575904869e-15
-6.67805543e-15
-9.099222235e-15
-1.174383521e-14
-1.313583872e-14
-1.312670177e-14
-1.314349901e-14
-1.405299377e-14
-1.504248619e-14
-1.51406741e-14
-1.538255815e-14
-1.676405812e-14
-1.847325642e-14
-2.012718279e-14
-2.162457415e-14
-2.294924347e-14
-2.388295309e-14
-2.548578482e-14
-2.797936787e-14
-3.181354081e-14
-3.618660167e-14
-4.085122838e-14
-4.895700358e-14
-8.905620865e-14
-1.828011607e-13
-1.080243561e-12
-1.867320149e-12
-1.90381118e-12
-1.93221208e-12
-1.899624597e-12
)


101
(
3.479131051e-15
-1.508388446e-14
-1.285411799e-15
1.557888613e-14
8.440180175e-15
-1.758152796e-14
5.341113115e-15
-8.765756379e-16
-2.374825186e-15
-5.245883871e-15
-4.796833929e-15
-1.307489675e-14
-4.119374126e-15
-2.914945734e-15
-7.993866214e-15
-9.110546228e-15
-2.258958679e-15
-1.065632976e-14
-5.423478705e-15
-9.043761635e-16
-7.690700014e-15
-5.949582851e-15
1.993086608e-15
4.904266535e-15
3.556030433e-15
1.175291817e-15
-1.218930653e-15
-2.742411355e-15
-2.941925026e-15
-2.796220827e-15
-2.567424049e-15
-4.61752884e-15
-6.150269532e-15
-5.014512537e-16
3.211604024e-15
4.126106856e-15
1.907050922e-15
-2.129097309e-15
-4.325359549e-15
-2.538240086e-15
9.118882119e-16
2.085623025e-15
2.110712313e-15
7.916088648e-16
-1.752055555e-15
-3.810056355e-15
-5.657503137e-15
-6.421508314e-15
-6.820456433e-15
-6.709957893e-15
-6.885174801e-15
-7.289623548e-15
-7.923327675e-15
-8.615704361e-15
-9.264315266e-15
-9.83514889e-15
-9.841662264e-15
-1.020119388e-14
-1.036592972e-14
-1.086992671e-14
-1.138126602e-14
-1.197247427e-14
-1.259119518e-14
-1.317243007e-14
-1.377037271e-14
-1.439392229e-14
-1.504804567e-14
-1.563246501e-14
-1.595126637e-14
-1.604842954e-14
-1.601723838e-14
-1.648843295e-14
-1.819204556e-14
-2.131585043e-14
-2.465809994e-14
-2.667681693e-14
-2.730549657e-14
-2.80379499e-14
-2.97172293e-14
-3.1434173e-14
-3.204610573e-14
-3.275702339e-14
-3.475874263e-14
-3.732766651e-14
-3.999562795e-14
-4.270561709e-14
-4.529342145e-14
-4.74617268e-14
-4.982090972e-14
-5.33363719e-14
-5.88982363e-14
-6.571865972e-14
-7.319095832e-14
-8.484406063e-14
-1.368260717e-13
-2.557776825e-13
-1.31341155e-12
-2.240813697e-12
-2.284744918e-12
-2.318947039e-12
-2.279832926e-12
)


101
(
2.576377617e-15
-9.658194919e-15
9.042137e-15
1.651915789e-14
9.29090738e-15
-1.610444082e-14
3.863894427e-15
-7.626723711e-16
-2.657599247e-15
-5.544225097e-15
-5.649271079e-15
-1.295498669e-14
-6.521545937e-15
-4.483135399e-15
-8.74499698e-15
-1.062170612e-14
-5.562265905e-15
-1.083225232e-14
-9.037764337e-15
-3.974963629e-15
-8.56155014e-15
-8.951410784e-15
-2.539003141e-15
1.150748423e-15
9.25705965e-16
-1.020377073e-15
-3.345077436e-15
-5.212415456e-15
-5.78401966e-15
-5.884790602e-15
-5.68620209e-15
-6.763059415e-15
-9.179914694e-15
-5.408289389e-15
-2.221912543e-15
-3.568174591e-16
-1.041951302e-15
-4.057057603e-15
-6.654500513e-15
-6.454178845e-15
-4.16745555e-15
-3.046330339e-15
-2.614656248e-15
-3.475691999e-15
-5.701857101e-15
-7.682365603e-15
-9.690105841e-15
-1.077237414e-14
-1.15588718e-14
-1.184613519e-14
-1.23328834e-14
-1.299002802e-14
-1.387985613e-14
-1.484229838e-14
-1.57287053e-14
-1.655020815e-14
-1.684551304e-14
-1.749976093e-14
-1.802361327e-14
-1.893639753e-14
-1.992388909e-14
-2.105553899e-14
-2.22131846e-14
-2.32891901e-14
-2.433082084e-14
-2.541591403e-14
-2.66065874e-14
-2.782429931e-14
-2.883811576e-14
-2.964662625e-14
-3.031773038e-14
-3.150785117e-14
-3.399563555e-14
-3.802158714e-14
-4.233467845e-14
-4.526525597e-14
-4.677399103e-14
-4.84403406e-14
-5.119307316e-14
-5.402212001e-14
-5.556452325e-14
-5.70306565e-14
-5.984098787e-14
-6.340692792e-14
-6.729403739e-14
-7.143167365e-14
-7.559999172e-14
-7.954784184e-14
-8.322864689e-14
-8.798719981e-14
-9.52421184e-14
-1.049450585e-13
-1.160127825e-13
-1.316399942e-13
-2.011405732e-13
-3.421542993e-13
-1.553650769e-12
-2.614405776e-12
-2.666012715e-12
-2.703991505e-12
-2.660459097e-12
)


101
(
1.722731517e-15
-8.277407501e-15
1.046821161e-14
1.745101865e-14
1.013807447e-14
-1.465330325e-14
2.550924169e-15
-7.374249921e-16
-2.89658821e-15
-5.813436645e-15
-6.413641471e-15
-1.291838558e-14
-8.576275519e-15
-6.11861964e-15
-9.616422314e-15
-1.201631714e-14
-8.537444936e-15
-1.162494555e-14
-1.203211249e-14
-7.137020711e-15
-1.002675471e-14
-1.159562327e-14
-6.729888215e-15
-2.888956189e-15
-2.22164169e-15
-3.611715697e-15
-5.77430005e-15
-7.862310852e-15
-8.775948069e-15
-9.143062206e-15
-9.045692756e-15
-9.547600089e-15
-1.225302739e-14
-9.864657723e-15
-7.622828993e-15
-5.536040459e-15
-5.165010398e-15
-7.112812754e-15
-9.538725162e-15
-1.02597601e-14
-9.102339022e-15
-8.50013147e-15
-8.028033343e-15
-8.618589109e-15
-1.060338457e-14
-1.251169416e-14
-1.463288664e-14
-1.597719561e-14
-1.711085223e-14
-1.778316357e-14
-1.863258549e-14
-1.964277841e-14
-2.088723649e-14
-2.224361986e-14
-2.354579178e-14
-2.477585762e-14
-2.549254214e-14
-2.657874113e-14
-2.757505884e-14
-2.901460328e-14
-3.062590367e-14
-3.247291534e-14
-3.438631244e-14
-3.6209696e-14
-3.793299757e-14
-3.966510489e-14
-4.153944451e-14
-4.356728485e-14
-4.55161934e-14
-4.732218621e-14
-4.898146108e-14
-5.113866209e-14
-5.463712327e-14
-5.979080235e-14
-6.534160992e-14
-6.950306148e-14
-7.220580092e-14
-7.509357234e-14
-7.922342968e-14
-8.355223075e-14
-8.649203672e-14
-8.911352576e-14
-9.297989998e-14
-9.768860726e-14
-1.030134452e-13
-1.087896911e-13
-1.149279799e-13
-1.210566845e-13
-1.267643762e-13
-1.330204307e-13
-1.421388956e-13
-1.549752367e-13
-1.701922407e-13
-1.90315374e-13
-2.739045625e-13
-4.403811462e-13
-1.801340729e-12
-2.987400049e-12
-3.047425231e-12
-3.08664113e-12
-3.043052704e-12
)


101
(
9.172421319e-16
-1.030649889e-14
3.9126479e-15
3.305729539e-14
1.098041393e-14
-1.32280169e-14
1.393055251e-15
-7.863912887e-16
-3.103002115e-15
-6.055200172e-15
-7.097520448e-15
-1.294746702e-14
-1.03372125e-14
-7.76814247e-15
-1.059548025e-14
-1.333213835e-14
-1.122466382e-14
-1.285958517e-14
-1.465111337e-14
-1.026557804e-14
-1.195500889e-14
-1.409743703e-14
-1.060491807e-14
-7.053150318e-15
-5.80866661e-15
-6.633523518e-15
-8.548321143e-15
-1.074758603e-14
-1.195616115e-14
-1.259293128e-14
-1.263543553e-14
-1.281710686e-14
-1.553525541e-14
-1.408225992e-14
-1.283086129e-14
-1.10296226e-14
-1.013166519e-14
-1.12278448e-14
-1.32192689e-14
-1.432957052e-14
-1.404920781e-14
-1.41400925e-14
-1.391035842e-14
-1.446840962e-14
-1.634270249e-14
-1.822498629e-14
-2.045911818e-14
-2.206422857e-14
-2.354361343e-14
-2.461499126e-14
-2.588238755e-14
-2.73194161e-14
-2.902488111e-14
-3.08985364e-14
-3.277124525e-14
-3.460322924e-14
-3.593531185e-14
-3.762089639e-14
-3.924112594e-14
-4.136667686e-14
-4.376567261e-14
-4.650716837e-14
-4.941301693e-14
-5.227902235e-14
-5.499806371e-14
-5.764906593e-14
-6.041715589e-14
-6.343111897e-14
-6.652863458e-14
-6.963128739e-14
-7.263288736e-14
-7.61049804e-14
-8.089762871e-14
-9.275032292e-14
-9.448176861e-14
-1.002392047e-13
-1.045249398e-13
-1.089650851e-13
-1.147692e-13
-1.209800987e-13
-1.258073096e-13
-1.301023685e-13
-1.353587312e-13
-1.414596513e-13
-1.484683273e-13
-1.561714232e-13
-1.6457438e-13
-1.732260503e-13
-1.816198468e-13
-1.898275645e-13
-2.011405284e-13
-2.171884069e-13
-2.369915676e-13
-2.623083129e-13
-3.608019069e-13
-5.557279209e-13
-2.057240739e-12
-3.358558152e-12
-3.428139655e-12
-3.475576595e-12
-3.430260126e-12
)


101
(
1.589525293e-16
-8.812283031e-15
5.547540024e-15
3.353739857e-14
1.181677123e-14
-1.182820178e-14
3.819433339e-16
-8.957204029e-16
-3.285420454e-15
-6.271455279e-15
-7.706490221e-15
-1.302663993e-14
-1.184756058e-14
-9.395604008e-15
-1.166692592e-14
-1.459611331e-14
-1.366035588e-14
-1.440246139e-14
-1.70457982e-14
-1.331451777e-14
-1.422373514e-14
-1.657630982e-14
-1.422480105e-14
-1.122694159e-14
-9.724086419e-15
-1.006932953e-14
-1.168337909e-14
-1.389757247e-14
-1.534696653e-14
-1.625075796e-14
-1.646577846e-14
-1.649483754e-14
-1.912337046e-14
-1.825170743e-14
-1.786903359e-14
-1.662922342e-14
-1.565075447e-14
-1.618331217e-14
-1.769296355e-14
-1.889990307e-14
-1.92266136e-14
-1.998348446e-14
-2.018917135e-14
-2.090996973e-14
-2.281530497e-14
-2.477748866e-14
-2.719346666e-14
-2.909497869e-14
-3.097388822e-14
-3.24928392e-14
-3.425617491e-14
-3.62215038e-14
-3.850213379e-14
-4.10249166e-14
-4.363486716e-14
-4.627966624e-14
-4.843277384e-14
-5.09390703e-14
-5.337869868e-14
-5.637100228e-14
-5.974282464e-14
-6.357348755e-14
-6.770035619e-14
-7.18982161e-14
-7.596940221e-14
-7.988609535e-14
-8.383121478e-14
-8.8044641e-14
-9.251326315e-14
-9.720461311e-14
-1.019166046e-13
-1.070920644e-13
-1.135367117e-13
-1.27100923e-13
-1.359255519e-13
-1.383310052e-13
-1.445932803e-13
-1.510193825e-13
-1.588742054e-13
-1.673000021e-13
-1.744822373e-13
-1.81051908e-13
-1.882355569e-13
-1.960248663e-13
-2.050273472e-13
-2.150418691e-13
-2.259795993e-13
-2.375036901e-13
-2.491055831e-13
-2.601129765e-13
-2.737782082e-13
-2.930908656e-13
-3.180105997e-13
-3.492522136e-13
-4.655935799e-13
-6.872939211e-13
-2.322691641e-12
-3.733628952e-12
-3.819337135e-12
-3.871343186e-12
-3.819595592e-12
)


101
(
-5.531092297e-16
-7.367443072e-15
7.13195505e-15
2.017557935e-14
1.264579358e-14
-1.045379752e-14
-4.90794086e-16
-1.053166956e-15
-3.451245519e-15
-6.464826192e-15
-8.246628821e-15
-1.314335193e-14
-1.314379149e-14
-1.097178999e-14
-1.281062895e-14
-1.58276129e-14
-1.588167427e-14
-1.614355678e-14
-1.932051313e-14
-1.626805803e-14
-1.673079378e-14
-1.911614926e-14
-1.765754864e-14
-1.533700075e-14
-1.38475798e-14
-1.385461321e-14
-1.516289271e-14
-1.732073965e-14
-1.895744558e-14
-2.012400511e-14
-2.054532344e-14
-2.054077159e-14
-2.305836835e-14
-2.253280839e-14
-2.283610945e-14
-2.223960603e-14
-2.147679376e-14
-2.176917344e-14
-2.292674169e-14
-2.407660721e-14
-2.478686747e-14
-2.614563408e-14
-2.691225246e-14
-2.796159933e-14
-3.005731661e-14
-3.220799211e-14
-3.488689923e-14
-3.719404571e-14
-3.956666313e-14
-4.162787153e-14
-4.398015549e-14
-4.658280332e-14
-4.957418942e-14
-5.289424544e-14
-5.641797814e-14
-6.007730384e-14
-6.330221689e-14
-6.687941804e-14
-7.036361808e-14
-7.443900714e-14
-7.897551018e-14
-8.408368345e-14
-8.964363118e-14
-9.543467313e-14
-1.01200831e-13
-1.067868786e-13
-1.122896528e-13
-1.179881566e-13
-1.240497085e-13
-1.249255957e-13
-1.317515806e-13
-1.446331968e-13
-1.531844086e-13
-1.634790848e-13
-1.798504419e-13
-1.845003907e-13
-1.93132345e-13
-2.020154154e-13
-2.123997686e-13
-2.23402273e-13
-2.333590897e-13
-2.428224686e-13
-2.526289216e-13
-2.62563585e-13
-2.738871733e-13
-2.866073703e-13
-3.005201046e-13
-3.152186529e-13
-3.305655462e-13
-3.451978501e-13
-3.615893589e-13
-3.844654907e-13
-4.149690717e-13
-4.528319294e-13
-5.876349473e-13
-8.365231418e-13
-2.598997755e-12
-4.111610627e-12
-4.213360708e-12
-4.270790555e-12
-4.21684084e-12
)


101
(
-1.219925354e-15
-3.202445071e-15
8.664863157e-15
2.105326552e-14
1.346606387e-14
-9.10475628e-15
-1.232974306e-15
-1.247096868e-15
-3.606485101e-15
-6.637976282e-15
-8.723343886e-15
-1.32850247e-14
-1.425789852e-14
-1.247348167e-14
-1.400109918e-14
-1.704079364e-14
-1.792014537e-14
-1.800066479e-14
-2.153844227e-14
-1.913486134e-14
-1.940171208e-14
-2.174051068e-14
-2.095506637e-14
-1.934308751e-14
-1.807103692e-14
-1.78969292e-14
-1.894605367e-14
-2.10132081e-14
-2.279550374e-14
-2.422041174e-14
-2.487773584e-14
-2.493292425e-14
-2.737257317e-14
-2.705637084e-14
-2.785340565e-14
-2.787345409e-14
-2.751143064e-14
-2.783507308e-14
-2.878928633e-14
-2.988021585e-14
-3.089773886e-14
-3.280329532e-14
-3.416495996e-14
-3.568670273e-14
-3.812104617e-14
-4.060605445e-14
-4.368928373e-14
-4.649628112e-14
-4.946942202e-14
-5.222845075e-14
-5.530193288e-14
-5.866631778e-14
-6.249123018e-14
-6.675661336e-14
-7.136326821e-14
-7.623494478e-14
-8.079234311e-14
-8.569798678e-14
-9.050682964e-14
-9.58956677e-14
-1.017957068e-13
-1.083909805e-13
-1.155867339e-13
-1.232058788e-13
-1.30965255e-13
-1.386183125e-13
-1.461122594e-13
-1.536837416e-13
-1.615911716e-13
-1.6446737e-13
-1.736203243e-13
-1.890608963e-13
-2.00189581e-13
-2.1304102e-13
-2.266855284e-13
-2.393183046e-13
-2.454735112e-13
-2.62483263e-13
-2.759085871e-13
-2.899689103e-13
-2.980830954e-13
-3.159974517e-13
-3.291934713e-13
-3.4199104e-13
-3.559409398e-13
-3.717315486e-13
-3.891849652e-13
-4.051070411e-13
-4.271286233e-13
-4.438058801e-13
-4.636296969e-13
-4.92678009e-13
-5.292393461e-13
-5.744828754e-13
-7.283907814e-13
-1.004780925e-12
-2.884136644e-12
-4.485873243e-12
-4.60016807e-12
-4.669810908e-12
-4.617304373e-12
)


101
(
-1.842487395e-15
-2.046070507e-15
1.014530726e-14
2.191222368e-14
1.427608819e-14
-7.781145823e-15
-1.852192365e-15
-1.466942164e-15
-3.75573124e-15
-6.793580247e-15
-9.142082588e-15
-1.34423263e-14
-1.521516941e-14
-1.388530515e-14
-1.521657746e-14
-1.824435727e-14
-1.980166844e-14
-1.991725882e-14
-2.372467256e-14
-2.193173237e-14
-2.218038989e-14
-2.445398653e-14
-2.417079782e-14
-2.323843674e-14
-2.233140709e-14
-2.213860101e-14
-2.301110089e-14
-2.497670845e-14
-2.686310892e-14
-2.853427439e-14
-2.945878117e-14
-2.965952175e-14
-3.206702182e-14
-3.188909938e-14
-3.303705649e-14
-3.359717645e-14
-3.37114007e-14
-3.425088954e-14
-3.522537917e-14
-3.635411031e-14
-3.762672114e-14
-4.004320743e-14
-4.206243338e-14
-4.422538416e-14
-4.716874967e-14
-5.010734803e-14
-5.3696647e-14
-5.714916972e-14
-6.087516223e-14
-6.446383108e-14
-6.841859579e-14
-7.269885091e-14
-7.749162393e-14
-8.282627693e-14
-8.864315794e-14
-9.492128766e-14
-1.010285283e-13
-1.075599289e-13
-1.139961994e-13
-1.209570531e-13
-1.284646873e-13
-1.367641868e-13
-1.457989696e-13
-1.55443604e-13
-1.65449255e-13
-1.755292663e-13
-1.854762031e-13
-1.836894918e-13
-1.939434833e-13
-2.162883298e-13
-2.278992463e-13
-2.405720054e-13
-2.547009754e-13
-2.706230108e-13
-2.87379984e-13
-2.978326009e-13
-3.12427539e-13
-3.327450913e-13
-3.497080413e-13
-3.674033074e-13
-3.791412975e-13
-4.009721472e-13
-4.182585293e-13
-4.298857886e-13
-4.469615806e-13
-4.709715886e-13
-4.924868638e-13
-5.126463186e-13
-5.370768276e-13
-5.611182436e-13
-5.853096938e-13
-6.187199537e-13
-6.594072528e-13
-7.128194477e-13
-8.887712233e-13
-1.190686679e-12
-3.179515148e-12
-4.876351179e-12
-5.008647129e-12
-5.083538189e-12
-5.022036472e-12
)


101
(
-2.421800357e-15
-3.329735551e-15
1.807001956e-14
2.275028131e-14
1.507422684e-14
-6.483251901e-15
-2.355945889e-15
-1.703297008e-15
-3.90202387e-15
-6.934444486e-15
-9.508974938e-15
-1.360700834e-14
-1.60369406e-14
-1.519899098e-14
-1.644175064e-14
-1.944065188e-14
-2.155218951e-14
-2.184358748e-14
-2.589139371e-14
-2.465681194e-14
-2.502027564e-14
-2.725416308e-14
-2.734543936e-14
-2.70332126e-14
-2.65929564e-14
-2.653630675e-14
-2.732811236e-14
-2.919793091e-14
-3.115370709e-14
-3.305801755e-14
-3.427941251e-14
-3.469846875e-14
-3.713734782e-14
-3.708508762e-14
-3.849522569e-14
-3.951165275e-14
-4.012821296e-14
-4.103103149e-14
-4.221221565e-14
-4.346620083e-14
-4.505169142e-14
-4.799060437e-14
-5.073575053e-14
-5.366334479e-14
-5.728999621e-14
-6.086135901e-14
-6.508514572e-14
-6.927143987e-14
-7.387100346e-14
-7.847023025e-14
-8.347352757e-14
-8.883836658e-14
-9.475464791e-14
-1.012801724e-13
-1.084397027e-13
-1.162477473e-13
-1.241022871e-13
-1.325283698e-13
-1.408831553e-13
-1.497380886e-13
-1.591362174e-13
-1.693719425e-13
-1.804609519e-13
-1.923385072e-13
-2.048103079e-13
-2.176108012e-13
-2.304253965e-13
-2.431331465e-13
-2.443176793e-13
-2.693049472e-13
-2.836484855e-13
-2.937735588e-13
-3.168040718e-13
-3.36264104e-13
-3.566940712e-13
-3.7080954e-13
-3.890120935e-13
-4.077531913e-13
-4.338845872e-13
-4.557684714e-13
-4.76775088e-13
-4.929083699e-13
-5.198486739e-13
-5.36027265e-13
-5.569098839e-13
-5.846247206e-13
-6.105427494e-13
-6.356448866e-13
-6.653291266e-13
-6.973596981e-13
-7.245118165e-13
-7.604637423e-13
-8.101873446e-13
-8.725630604e-13
-1.068899829e-12
-1.400806226e-12
-3.497547768e-12
-5.28144714e-12
-5.424401156e-12
-5.518564802e-12
-5.430440578e-12
)


101
(
-2.958879778e-15
-2.083173001e-15
1.916935252e-14
2.35653049e-14
1.58587658e-14
-5.211435575e-15
-2.751347782e-15
-1.947472253e-15
-4.047009006e-15
-7.063225879e-15
-9.829400869e-15
-1.377164316e-14
-1.674139907e-14
-1.641024238e-14
-1.765986405e-14
-2.062823116e-14
-2.31908753e-14
-2.374339344e-14
-2.802441623e-14
-2.730403129e-14
-2.788036686e-14
-3.01184776e-14
-3.050776158e-14
-3.074253272e-14
-3.082694348e-14
-3.104530409e-14
-3.186510247e-14
-3.367554151e-14
-3.567803678e-14
-3.779499665e-14
-3.933570612e-14
-4.004479107e-14
-4.259887116e-14
-4.269070627e-14
-4.432288177e-14
-4.573549248e-14
-4.685586871e-14
-4.822693921e-14
-4.975776914e-14
-5.129227616e-14
-5.323817004e-14
-5.669568039e-14
-6.02403559e-14
-6.409043162e-14
-6.860676652e-14
-7.296676816e-14
-7.793513826e-14
-8.298301164e-14
-8.857463253e-14
-9.429564082e-14
-1.005411904e-13
-1.071938192e-13
-1.144069252e-13
-1.222867925e-13
-1.308954533e-13
-1.403343343e-13
-1.500738638e-13
-1.605880421e-13
-1.711678363e-13
-1.690898827e-13
-1.938518766e-13
-2.062845811e-13
-2.196768951e-13
-2.340160306e-13
-2.491524667e-13
-2.64917353e-13
-2.809422934e-13
-3.087526495e-13
-3.129075553e-13
-3.235693914e-13
-3.466919672e-13
-3.600080116e-13
-3.921534276e-13
-4.154216559e-13
-4.345360593e-13
-4.582968897e-13
-4.752855472e-13
-4.980310579e-13
-5.283942623e-13
-5.549063333e-13
-5.756914528e-13
-6.017352933e-13
-6.337329637e-13
-6.601157341e-13
-6.807351203e-13
-7.077159583e-13
-7.431067838e-13
-7.737596712e-13
-8.092198868e-13
-8.474269317e-13
-8.783500295e-13
-9.220328953e-13
-9.81024737e-13
-1.053042102e-12
-1.267890376e-12
-1.629524696e-12
-3.822104707e-12
-5.686829518e-12
-5.8277538e-12
-5.945869918e-12
-5.829496482e-12
)


101
(
-3.454751631e-15
1.152324532e-15
1.42591522e-14
2.435525351e-14
1.662803344e-14
-3.966022436e-15
-3.044890614e-15
-2.191540638e-15
-4.190972986e-15
-7.18149711e-15
-1.010825538e-14
-1.393120073e-14
-1.734213918e-14
-1.751665805e-14
-1.885305221e-14
-2.18090038e-14
-2.473095452e-14
-2.559260991e-14
-3.010920971e-14
-2.987128277e-14
-3.073398245e-14
-3.304654118e-14
-3.368127885e-14
-3.439023397e-14
-3.501251695e-14
-3.561491469e-14
-3.657830199e-14
-3.839138014e-14
-4.043848911e-14
-4.274554881e-14
-4.460950932e-14
-4.566226886e-14
-4.842588855e-14
-4.873120323e-14
-5.05809055e-14
-5.237093393e-14
-5.401848957e-14
-5.593321741e-14
-5.791601016e-14
-5.985748991e-14
-6.221774381e-14
-6.626956354e-14
-7.066199156e-14
-7.553982053e-14
-8.1107282e-14
-8.647423903e-14
-9.238537709e-14
-9.837890962e-14
-1.050451538e-13
-1.120208245e-13
-1.196504614e-13
-1.277818817e-13
-1.365263073e-13
-1.45943444e-13
-1.561468887e-13
-1.673030837e-13
-1.790035687e-13
-1.91771157e-13
-2.04828843e-13
-2.052246248e-13
-2.195265239e-13
-2.475274293e-13
-2.634882989e-13
-2.805205289e-13
-2.985466763e-13
-3.174814077e-13
-3.369709057e-13
-3.566762381e-13
-3.763287119e-13
-3.905275691e-13
-4.114112902e-13
-4.39533009e-13
-4.69810275e-13
-4.971332956e-13
-5.261881329e-13
-5.547560824e-13
-5.764858402e-13
-5.983788478e-13
-6.331533892e-13
-6.645545779e-13
-6.906853261e-13
-7.271624834e-13
-7.545676622e-13
-7.916859391e-13
-8.177887441e-13
-8.445885774e-13
-8.847758368e-13
-9.309396008e-13
-9.655505469e-13
-1.010334416e-12
-1.052709709e-12
-1.099951465e-12
-1.166002146e-12
-1.248179078e-12
-1.48637127e-12
-1.875209607e-12
-4.155082636e-12
-6.098229899e-12
-6.228152379e-12
-6.356773629e-12
-6.225957151e-12
)


101
(
-3.910455371e-15
2.128162352e-15
1.551712608e-14
2.511794584e-14
3.50004441e-14
-2.747969845e-15
-3.243361491e-15
-2.429122424e-15
-4.333690888e-15
-7.290234428e-15
-1.035132293e-14
-1.408298647e-14
-1.78533419e-14
-1.851926314e-14
-2.000564471e-14
-2.297654197e-14
-2.618291384e-14
-2.737103713e-14
-3.21342671e-14
-3.236675383e-14
-3.357446602e-14
-3.603005008e-14
-3.688106775e-14
-3.799899272e-14
-3.913900205e-14
-4.019519459e-14
-4.142228093e-14
-4.332933154e-14
-4.544851447e-14