/*--------------------------------*- C++ -*----------------------------------*\
| =========                 |                                                 |
| \\      /  F ield         | OpenFOAM: The Open Source CFD Toolbox           |
|  \\    /   O peration     | Version:  2.3.1                                 |
|   \\  /    A nd           | Web:      www.OpenFOAM.org                      |
|    \\/     M anipulation  |                                                 |
\*---------------------------------------------------------------------------*/
FoamFile
{
    version     2.0;
    format      ascii;
    class       dictionary;
    location    "constant";
    object      PM31;
}
// * * * * * * * * * * * * * * * * * * * * * * * * * * * * * * * * * * * * * //

PM31_table
101
(

101
(
1.738016288e-21
-2.640698823e-20
-1.169438729e-20
3.962499447e-20
3.37742217e-20
-4.40261945e-20
-8.36530128e-20
-2.462848539e-19
-4.146221051e-19
-6.386427482e-19
-8.791653783e-19
-1.150715468e-18
-1.446151325e-18
-1.720919591e-18
-1.955220199e-18
-2.170216401e-18
-2.358811682e-18
-2.279102219e-18
-2.420791729e-18
-2.173620912e-18
-1.974079328e-18
-1.804483075e-18
-1.518724326e-18
-1.245958092e-18
-1.006728374e-18
-8.010291071e-19
-6.370132102e-19
-4.934874664e-19
-3.870846333e-19
-2.966185313e-19
-2.294798758e-19
-1.958865852e-19
-7.663101797e-20
-9.056669043e-20
-9.85871515e-20
3.636582882e-20
6.418128345e-20
-3.189338831e-19
-2.243822847e-19
-1.192111295e-19
-9.725269794e-20
-7.612542064e-20
-6.029115981e-20
-4.969130089e-20
-3.623195077e-20
-2.676531697e-20
-1.830529999e-20
-1.297539316e-20
-8.667284789e-21
-5.976236133e-21
-3.893949159e-21
-2.315778683e-21
-1.25661822e-21
-6.579777669e-22
-2.977683923e-22
1.381624945e-22
1.702372607e-22
2.77479624e-22
3.018226732e-22
3.062423406e-22
2.62984218e-22
2.153048431e-22
1.812841458e-22
1.471133218e-22
1.066355173e-22
7.700703978e-23
5.606965594e-23
3.964667515e-23
2.595521726e-23
1.643338308e-23
1.004489857e-23
5.985879295e-24
3.459002884e-24
1.901052752e-24
8.52107618e-25
2.473737553e-25
7.518451439e-26
4.220546097e-26
1.986158389e-26
8.062157863e-27
3.104364668e-27
8.038180031e-28
2.082165241e-28
-2.153342654e-29
-8.267617888e-29
-2.162492851e-29
1.07122491e-29
1.017689614e-29
3.789770963e-30
1.356560033e-30
4.666092911e-31
2.350457577e-31
9.927992269e-32
3.318455219e-32
1.182595166e-32
3.442931565e-33
7.205818052e-35
1.045733037e-40
-1.019735929e-50
-1.42560052e-50
-1.469611886e-50
)


101
(
9.903793481e-22
-2.689361247e-20
-1.675402021e-20
2.368092081e-20
6.837388243e-21
-7.457803949e-20
-1.111556261e-19
-2.48820366e-19
-3.740410134e-19
-5.302346616e-19
-6.797716033e-19
-8.360887607e-19
-9.918095006e-19
-1.110373759e-18
-1.181293302e-18
-1.229681238e-18
-1.25774059e-18
-1.086480552e-18
-1.109985137e-18
-8.576841101e-19
-6.808013084e-19
-5.482362431e-19
-3.569486365e-19
-1.962277684e-19
-7.00611475e-20
2.43405214e-20
8.638203859e-20
1.349559004e-19
1.620014549e-19
1.8319982e-19
1.93063799e-19
1.840749696e-19
2.249046818e-19
1.845894482e-19
1.51768117e-19
1.968088811e-19
1.937896879e-19
-3.39671062e-20
2.197388928e-23
9.585430599e-21
1.55467261e-20
2.129594483e-20
2.28621355e-20
2.290900449e-20
2.419422185e-20
2.370182744e-20
2.34179357e-20
2.159525513e-20
1.979873326e-20
1.743718372e-20
1.526230209e-20
1.315825789e-20
1.119991632e-20
9.381844754e-21
7.775116244e-21
6.451695334e-21
5.171036416e-21
4.171480639e-21
3.286026539e-21
2.577293897e-21
1.984292299e-21
1.512165666e-21
1.134983152e-21
8.41570705e-22
6.137049952e-22
4.418204557e-22
3.115830322e-22
2.156260044e-22
1.465070918e-22
9.714574658e-23
6.281273153e-23
3.957601653e-23
2.448578472e-23
1.465408022e-23
8.425728324e-24
4.668612155e-24
2.507194779e-24
1.310556781e-24
6.680317494e-25
3.279927386e-25
1.541852551e-25
6.744765041e-26
2.859101176e-26
1.1179355e-26
3.988047776e-27
1.356085154e-27
4.859816639e-28
2.238406207e-28
8.606913888e-29
3.067949049e-29
1.22475359e-29
5.206557971e-30
2.298963556e-30
9.117405206e-31
3.847605227e-31
1.440184954e-31
8.535070157e-33
-5.436633715e-34
-5.382739921e-34
-5.006433069e-33
2.266791701e-30
)


101
(
2.907044346e-22
-2.494747995e-20
-1.365461838e-20
2.738290965e-20
1.850707188e-20
-4.180210359e-20
-4.533542588e-20
-1.19010994e-19
-1.600857659e-19
-2.001273442e-19
-2.065579798e-19
-1.916611006e-19
-1.51910713e-19
-6.106060996e-20
8.464455615e-20
2.571983996e-19
4.41892053e-19
7.652243357e-19
9.369492258e-19
1.251862856e-18
1.505932692e-18
1.673207907e-18
1.829550188e-18
1.931005589e-18
1.9677324e-18
1.948823597e-18
1.881127342e-18
1.784240477e-18
1.665464988e-18
1.537943072e-18
1.406541384e-18
1.268582197e-18
1.161949361e-18
1.033660489e-18
8.943441532e-19
8.014660726e-19
7.495408778e-19
5.519228155e-19
4.391112766e-19
3.811201131e-19
3.327576873e-19
2.906227173e-19
2.535205825e-19
2.188338783e-19
1.883996093e-19
1.620845578e-19
1.389931477e-19
1.184584139e-19
1.00265518e-19
8.426925813e-20
7.030287408e-20
5.833443175e-20
4.816759441e-20
3.951996392e-20
3.217722223e-20
2.604746919e-20
2.088045596e-20
1.662776009e-20
1.312918324e-20
1.027027403e-20
7.978999975e-21
6.14137175e-21
4.680957891e-21
3.5399085e-21
2.647149282e-21
1.950999078e-21
1.419863343e-21
1.018711278e-21
7.239595971e-22
5.061182996e-22
3.472001983e-22
2.338746462e-22
1.554437915e-22
1.010306155e-22
6.411971421e-23
3.971038564e-23
2.388304459e-23
1.401506882e-23
8.016702173e-24
4.480059745e-24
2.438054477e-24
1.264729802e-24
6.352527675e-25
3.059064148e-25
1.38987655e-25
5.956706416e-26
2.405024536e-26
1.01938401e-26
4.239473635e-27
1.598217433e-27
5.58368527e-28
2.153044778e-28
8.736193335e-29
3.5165706e-29
1.492028574e-29
5.434709902e-30
3.058437308e-31
6.814870387e-32
6.63413882e-31
-2.173134284e-28
-4.527927959e-28
)


101
(
-3.622848472e-22
-2.306942326e-20
-1.067692077e-20
3.086150152e-20
2.94494806e-20
-1.094055046e-20
1.673661184e-20
3.3472522e-21
4.237598019e-20
1.126099509e-19
2.431772297e-19
4.224259719e-19
6.511754231e-19
9.468773982e-19
1.307257514e-18
1.702126644e-18
2.106345261e-18
2.603398369e-18
2.975752529e-18
3.398014461e-18
3.748632187e-18
3.979528092e-18
4.140106149e-18
4.209612077e-18
4.181785826e-18
4.06978915e-18
3.886151e-18
3.65385605e-18
3.39188589e-18
3.115551299e-18
2.83617169e-18
2.559954918e-18
2.305442426e-18
2.063963531e-18
1.81016647e-18
1.619953552e-18
1.458310103e-18
1.222950552e-18
1.022230845e-18
8.752520416e-19
7.567247113e-19
6.568398931e-19
5.705380068e-19
4.929025451e-19
4.240903797e-19
3.644894514e-19
3.121844618e-19
2.665356007e-19
2.263563607e-19
1.914743962e-19
1.610195395e-19
1.348377868e-19
1.124860098e-19
9.346417499e-20
7.727633873e-20
6.344961601e-20
5.185665541e-20
4.216352746e-20
3.407828985e-20
2.730952954e-20
2.178180993e-20
1.727179072e-20
1.359280894e-20
1.064014013e-20
8.261383006e-21
6.336778465e-21
4.813600789e-21
3.622969782e-21
2.706936112e-21
2.001738022e-21
1.45327309e-21
1.042172674e-21
7.380554957e-22
5.154882691e-22
3.538033487e-22
2.384450487e-22
1.567573337e-22
1.012496247e-22
6.395953535e-23
3.963089237e-23
2.406436572e-23
1.41365681e-23
8.059775517e-24
4.474127235e-24
2.384512279e-24
1.212223609e-24
5.839163469e-25
2.771372193e-25
1.303197174e-25
5.851146321e-26
2.368512102e-26
9.528640133e-27
3.78060153e-27
1.477459369e-27
6.134226782e-28
2.11134159e-28
1.995253001e-29
1.158079456e-29
1.651292797e-28
5.314391567e-28
-1.655760359e-28
)


101
(
-9.698611655e-22
-2.125872636e-20
-7.81994176e-21
3.4108871e-20
3.960362746e-20
1.781134085e-20
7.465028864e-20
1.175346682e-19
2.320548802e-19
4.060849302e-19
6.667563819e-19
1.002774641e-18
1.413169598e-18
1.908167292e-18
2.480275885e-18
3.097646009e-18
3.726733023e-18
4.41619285e-18
4.99841923e-18
5.565171415e-18
6.037910479e-18
6.362401667e-18
6.566774159e-18
6.638137382e-18
6.576374752e-18
6.397338746e-18
6.118202878e-18
5.766696102e-18
5.370770624e-18
4.950009789e-18
4.524660201e-18
4.101529794e-18
3.695398708e-18
3.325106953e-18
2.959463164e-18
2.657984064e-18
2.355947915e-18
2.054651592e-18
1.773163121e-18
1.532723474e-18
1.332818408e-18
1.162272209e-18
1.014816426e-18
8.837869898e-19
7.668452811e-19
6.642264716e-19
5.737964764e-19
4.949144855e-19
4.256535512e-19
3.650114119e-19
3.115272781e-19
2.648563317e-19
2.245554275e-19
1.899381836e-19
1.600888372e-19
1.341920668e-19
1.121643747e-19
9.333220894e-20
7.737277797e-20
6.36934862e-20
5.221545552e-20
4.267770039e-20
3.465034346e-20
2.803498887e-20
2.255016875e-20
1.79742519e-20
1.422378672e-20
1.11699589e-20
8.699092377e-21
6.742787647e-21
5.149946378e-21
3.8966744e-21
2.913153296e-21
2.155330013e-21
1.57251503e-21
1.130922479e-21
8.011537122e-22
5.587781523e-22
3.808544287e-22
2.557378235e-22
1.687215823e-22
1.096034116e-22
6.908003149e-23
4.270177081e-23
2.560805379e-23
1.486509565e-23
8.225184834e-24
4.448196541e-24
2.353873246e-24
1.220229569e-24
5.858975402e-25
2.706121883e-25
1.245212178e-25
5.372020256e-26
2.375169547e-26
8.653791277e-27
1.329300878e-27
1.518683355e-27
1.566669838e-26
1.908240444e-26
-3.961595416e-26
)


101
(
-1.533296903e-21
-1.951471007e-20
-5.081561785e-21
3.712937397e-20
4.897504784e-20
4.446095177e-20
1.284230512e-19
2.236666718e-19
4.09113211e-19
6.806461716e-19
1.064706693e-18
1.55037403e-18
2.135257854e-18
2.824428347e-18
3.60549484e-18
4.445325694e-18
5.304684344e-18
6.203121721e-18
7.006345205e-18
7.749826507e-18
8.373689762e-18
8.822851519e-18
9.109973744e-18
9.220970232e-18
9.159273101e-18
8.944745218e-18
8.597452278e-18
8.148413207e-18
7.633471365e-18
7.078876498e-18
6.511753645e-18
5.940664349e-18
5.382219729e-18
4.870101753e-18
4.373447945e-18
3.928434228e-18
3.512427037e-18
3.112524554e-18
2.738092964e-18
2.403724948e-18
2.112880913e-18
1.858534289e-18
1.636455969e-18
1.439250421e-18
1.262020311e-18
1.10478731e-18
9.654719494e-19
8.437285512e-19
7.362782424e-19
6.4091297e-19
5.560306629e-19
4.806793604e-19
4.146984512e-19
3.57287658e-19
3.072450269e-19
2.630023656e-19
2.245128254e-19
1.91150942e-19
1.621655698e-19
1.367690281e-19
1.151400539e-19
9.673822076e-20
8.08313206e-20
6.733570802e-20
5.585221651e-20
4.602856075e-20
3.769043641e-20
3.065591259e-20
2.479120893e-20
1.99423555e-20
1.588158734e-20
1.255685334e-20
9.838937857e-21
7.639740944e-21
5.86444429e-21
4.451570912e-21
3.346341244e-21
2.476556956e-21
1.801599037e-21
1.293799899e-21
9.154409453e-22
6.409736828e-22
4.381287365e-22
2.942750989e-22
1.939895481e-22
1.243701515e-22
7.709969984e-23
4.641925206e-23
2.754462323e-23
1.607972935e-23
8.872741224e-24
4.657360183e-24
2.462902655e-24
1.233895945e-24
6.154759227e-25
2.503416368e-25
5.266895129e-26
6.623834936e-26
7.965021818e-25
1.425628206e-24
3.19833496e-25
)


101
(
-2.053861438e-21
-1.783651556e-20
-2.459327884e-21
3.993153448e-20
5.759466204e-20
6.909915344e-20
1.782614112e-19
3.221687205e-19
5.740096691e-19
9.368927085e-19
1.43780743e-18
2.066050576e-18
2.818426638e-18
3.69624405e-18
4.683154301e-18
5.744720457e-18
6.838098896e-18
7.95924916e-18
8.995500847e-18
9.943738564e-18
1.074868304e-17
1.135465992e-17
1.17626446e-17
1.195288047e-17
1.192836297e-17
1.171389767e-17
1.133206589e-17
1.081477912e-17
1.020368698e-17
9.531904935e-18
8.832704512e-18
8.123548567e-18
7.416383733e-18
6.758529698e-18
6.124063437e-18
5.535872362e-18
4.988522248e-18
4.472111273e-18
3.990929004e-18
3.552681175e-18
3.160883585e-18
2.809234731e-18
2.498656262e-18
2.221163747e-18
1.969935422e-18
1.745130912e-18
1.54429915e-18
1.367300495e-18
1.209768716e-18
1.068725607e-18
9.419539585e-19
8.274204899e-19
7.26000082e-19
6.367651214e-19
5.577059397e-19
4.865942693e-19
4.238974407e-19
3.684046904e-19
3.191801763e-19
2.75309154e-19
2.371017208e-19
2.038027219e-19
1.744417159e-19
1.490309525e-19
1.269512667e-19
1.076346183e-19
9.072415341e-20
7.611284115e-20
6.352126504e-20
5.278231009e-20
4.362022044e-20
3.577033806e-20
2.912394911e-20
2.351987288e-20
1.883547167e-20
1.495015172e-20
1.177809613e-20
9.166830192e-21
7.05336267e-21
5.359734122e-21
4.020418058e-21
2.982408945e-21
2.182355656e-21
1.567812602e-21
1.113104715e-21
7.73108009e-22
5.239258956e-22
3.452329225e-22
2.257222281e-22
1.444428474e-22
8.951270136e-23
5.264086464e-23
3.131459085e-23
1.793629125e-23
9.950541366e-24
4.792783231e-24
1.625936989e-24
2.881481806e-24
2.199268038e-23
3.713607505e-23
1.658521211e-23
)


101
(
-2.532821479e-21
-1.424672599e-20
5.938540854e-21
4.252498796e-20
6.550072153e-20
9.184612216e-20
2.24465993e-19
4.136728879e-19
7.273804967e-19
1.175677256e-18
1.787194046e-18
2.551318065e-18
3.464600563e-18
4.525584886e-18
5.715075904e-18
6.997271968e-18
8.326981401e-18
9.681947363e-18
1.096322442e-17
1.214093994e-17
1.315689762e-17
1.395248881e-17
1.451765453e-17
1.482781494e-17
1.488086479e-17
1.470607568e-17
1.432928948e-17
1.378146158e-17
1.310650386e-17
1.234317368e-17
1.153178073e-17
1.069840811e-17
9.853194746e-18
9.053551828e-18
8.27987512e-18
7.548141114e-18
6.859242741e-18
6.21125464e-18
5.609404866e-18
5.054647456e-18
4.550563343e-18
4.090965364e-18
3.678493062e-18
3.305468009e-18
2.96512823e-18
2.658149643e-18
2.381325921e-18
2.135107515e-18
1.914637163e-18
1.715301742e-18
1.533082642e-18
1.367069676e-18
1.218658555e-18
1.085356418e-18
9.660398922e-19
8.581378512e-19
7.609942044e-19
6.732730316e-19
5.944458778e-19
5.229595495e-19
4.595007583e-19
4.031878119e-19
3.523578571e-19
3.076241312e-19
2.680024378e-19
2.32845097e-19
2.015634617e-19
1.73709752e-19
1.48958097e-19
1.271249096e-19
1.080763588e-19
9.128427931e-20
7.68587599e-20
6.430519649e-20
5.336249056e-20
4.39736175e-20
3.602005277e-20
2.924415109e-20
2.352494285e-20
1.868935539e-20
1.471914589e-20
1.1482833e-20
8.888474338e-21
6.759876316e-21
5.100383073e-21
3.766801138e-21
2.749417273e-21
1.953299554e-21
1.379997665e-21
9.576157937e-22
6.462325647e-22
4.195398841e-22
2.758485785e-22
1.764742646e-22
1.080203714e-22
6.005228209e-23
2.907757755e-23
5.773634364e-23
3.434526271e-22
6.442099683e-22
4.411184726e-22
)


101
(
-2.971443178e-21
-1.287017685e-20
8.037477196e-21
4.492026666e-20
7.273006488e-20
1.12795011e-19
2.672429938e-19
4.986374661e-19
8.697617323e-19
1.397724525e-18
2.113755892e-18
3.007432373e-18
4.075237233e-18
5.314026026e-18
6.702485901e-18
8.203867867e-18
9.771421533e-18
1.136916312e-17
1.290696251e-17
1.433644998e-17
1.559298579e-17
1.661201451e-17
1.737053623e-17
1.784413026e-17
1.802091486e-17
1.793248686e-17
1.760660013e-17
1.707165732e-17
1.637121037e-17
1.554803841e-17
1.464965148e-17
1.371146551e-17
1.274434128e-17
1.181379381e-17
1.090338143e-17
1.002866482e-17
9.195967531e-18
8.410557874e-18
7.679043001e-18
6.99740069e-18
6.37038343e-18
5.789955764e-18
5.260966369e-18
4.777823129e-18
4.334101099e-18
3.930718384e-18
3.563465216e-18
3.234679928e-18
2.936703317e-18
2.663402757e-18
2.411682086e-18
2.182056046e-18
1.972737593e-18
1.782206562e-18
1.610482134e-18
1.452008347e-18
1.307700127e-18
1.175209827e-18
1.055241631e-18
9.450616626e-19
8.451023069e-19
7.54849865e-19
6.720839809e-19
5.981396035e-19
5.315371787e-19
4.714213457e-19
4.170107764e-19
3.671952266e-19
3.219510357e-19
2.813936929e-19
2.453459615e-19
2.130756194e-19
1.843773518e-19
1.585623979e-19
1.35543754e-19
1.153401723e-19
9.753556906e-20
8.197465515e-20
6.847083963e-20
5.657660616e-20
4.632566044e-20
3.775550664e-20
3.053492285e-20
2.444055073e-20
1.931981401e-20
1.50501638e-20
1.166854652e-20
8.824585477e-21
6.640579368e-21
4.92545546e-21
3.56331267e-21
2.525645833e-21
1.795067343e-21
1.253055919e-21
8.338834628e-22
5.041850284e-22
3.307960503e-22
6.698605775e-22
3.206721156e-21
7.054423828e-21
6.609380259e-21
)


101
(
-3.37099216e-21
-1.318963473e-20
4.734123223e-21
5.941435225e-20
7.932495517e-20
1.320355227e-19
3.067156985e-19
5.77275387e-19
1.001684769e-18
1.603923866e-18
2.418420211e-18
3.435197592e-18
4.650962506e-18
6.061881674e-18
7.645222742e-18
9.36376606e-18
1.116973319e-17
1.301737465e-17
1.482229394e-17
1.652343549e-17
1.804898051e-17
1.932674426e-17
2.032002412e-17
2.100356078e-17
2.13565026e-17
2.140839566e-17
2.118443031e-17
2.070950354e-17
2.002604116e-17
1.918012874e-17
1.82251233e-17
1.720518427e-17
1.613449877e-17
1.508953654e-17
1.405296487e-17
1.30450852e-17
1.207737208e-17
1.115853619e-17
1.02918026e-17
9.47337203e-18
8.712313695e-18
7.999059176e-18
7.344189093e-18
6.740633238e-18
6.182542158e-18
5.670962987e-18
5.19968093e-18
4.772318547e-18
4.378898685e-18
4.016527653e-18
3.682638605e-18
3.375807187e-18
3.091802485e-18
2.830632946e-18
2.588921703e-18
2.365521755e-18
2.160651734e-18
1.969799251e-18
1.795928709e-18
1.633593286e-18
1.483607599e-18
1.345873671e-18
1.218487039e-18
1.102299634e-18
9.955803711e-19
8.976859322e-19
8.08718292e-19
7.258492438e-19
6.499300096e-19
5.802666637e-19
5.16686909e-19
4.584017289e-19
4.056972176e-19
3.578246593e-19
3.140607555e-19
2.74115446e-19
2.380450802e-19
2.062000088e-19
1.775566814e-19
1.514602807e-19
1.283406096e-19
1.084686526e-19
9.101629947e-20
7.586977031e-20
6.240693e-20
5.082690291e-20
4.123602936e-20
3.283952055e-20
2.599098018e-20
2.042535672e-20
1.565758934e-20
1.188036561e-20
9.008135738e-21
6.739883589e-21
4.830280266e-21
3.138551406e-21
2.579500291e-21
5.086170404e-21
1.938305747e-20
4.736039265e-20
5.76793584e-20
)


101
(
-3.732731247e-21
-1.176748552e-20
6.914740783e-21
6.098736034e-20
8.532424223e-20
1.49655003e-19
3.430044693e-19
6.497850976e-19
1.123692076e-18
1.795283271e-18
2.702177534e-18
3.835481079e-18
5.192388302e-18
6.769417055e-18
8.543112389e-18
1.047622864e-17
1.252005472e-17
1.462270981e-17
1.670425996e-17
1.869512015e-17
2.051674969e-17
2.208984538e-17
2.336492175e-17
2.43061148e-17
2.489240138e-17
2.514312347e-17
2.50751165e-17
2.471106815e-17
2.409352506e-17
2.327031794e-17
2.22975918e-17
2.122662319e-17
2.007739326e-17
1.894318127e-17
1.780183194e-17
1.667884782e-17
1.558991992e-17
1.454367263e-17
1.353942801e-17
1.258029576e-17
1.16816287e-17
1.083203463e-17
1.004598612e-17
9.316522193e-18
8.637607105e-18
8.008307636e-18
7.418859105e-18
6.875533916e-18
6.371397469e-18
5.906606091e-18
5.476268509e-18
5.077326502e-18
4.704736887e-18
4.355126869e-18
4.027669292e-18
3.729585525e-18
3.448393754e-18
3.184723949e-18
2.940435492e-18
2.711278006e-18
2.49623441e-18
2.296212734e-18
2.109063209e-18
1.934072847e-18
1.77182407e-18
1.6224825e-18
1.484303615e-18
1.355042966e-18
1.234647719e-18
1.121583011e-18
1.016784979e-18
9.194070619e-19
8.30104516e-19
7.472609578e-19
6.698135197e-19
5.973330229e-19
5.31302376e-19
4.717873131e-19
4.162718501e-19
3.649687971e-19
3.185110098e-19
2.769869431e-19
2.398541472e-19
2.066689975e-19
1.757621358e-19
1.482722907e-19
1.248484498e-19
1.039499772e-19
8.603496301e-20
7.051150279e-20
5.669751276e-20
4.550580492e-20
3.634159225e-20
2.87332729e-20
2.186621268e-20
1.510864294e-20
1.477394236e-20
2.800219897e-20
8.458701283e-20
1.554344922e-19
1.609145906e-19
)


101
(
-4.057925133e-21
-1.040761967e-20
8.989863231e-21
5.102010368e-20
9.07566772e-20
1.657190894e-19
3.762092996e-19
7.163813918e-19
1.236242263e-18
1.972491014e-18
2.965689023e-18
4.209101181e-18
5.700318256e-18
7.437281675e-18
9.396571772e-18
1.154122685e-17
1.382192398e-17
1.618323427e-17
1.855039764e-17
2.084801367e-17
2.298967267e-17
2.489171065e-17
2.649166287e-17
2.773650915e-17
2.860819195e-17
2.911280113e-17
2.925935935e-17
2.906747423e-17
2.857809615e-17
2.783630243e-17
2.689865267e-17
2.582360905e-17
2.463829599e-17
2.345011843e-17
2.223313409e-17
2.101911287e-17
1.98262621e-17
1.866206805e-17
1.75261163e-17
1.643410788e-17
1.540262385e-17
1.441870692e-17
1.349983325e-17
1.264249728e-17
1.18373713e-17
1.108155484e-17
1.036428306e-17
9.695442936e-18
9.070425514e-18
8.491293431e-18
7.950388001e-18
7.445848087e-18
6.971063044e-18
6.518611416e-18
6.097568786e-18
5.707208856e-18
5.333004303e-18
4.978974479e-18
4.649324205e-18
4.339044859e-18
4.043432705e-18
3.764774063e-18
3.500979719e-18
3.251542564e-18
3.016734779e-18
2.798957515e-18
2.594966331e-18
2.40380662e-18
2.222746521e-18
2.049647107e-18
1.88738069e-18
1.73482896e-18
1.591444298e-18
1.456713667e-18
1.329321646e-18
1.209019849e-18
1.09739615e-18
9.93153878e-19
8.953549438e-19
8.037216121e-19
7.178797267e-19
6.392409949e-19
5.680843652e-19
5.021059134e-19
4.394888712e-19
3.822643425e-19
3.317326652e-19
2.860747876e-19
2.448347259e-19
2.075762932e-19
1.740699111e-19
1.458972939e-19
1.215952986e-19
1.004380028e-19
8.022569705e-20
5.853429147e-20
6.320041348e-20
1.130373049e-19
2.904130012e-19
5.157893177e-19
5.528672582e-19
)


101
(
-4.347838054e-21
-7.93713077e-21
1.096104193e-20
5.271886971e-20
9.565016514e-20
1.802900462e-19
4.063956176e-19
7.772116622e-19
1.339925401e-18
2.136392881e-18
3.209450901e-18
4.556764589e-18
6.17547723e-18
8.065680168e-18
1.020527263e-17
1.255802496e-17
1.507542979e-17
1.769971314e-17
2.036126924e-17
2.29805121e-17
2.545974683e-17
2.771584671e-17
2.967362849e-17
3.126570424e-17
3.247226776e-17
3.328730006e-17
3.371488578e-17
3.37674239e-17
3.348092896e-17
3.289207175e-17
3.205601061e-17
3.103988958e-17
2.987785936e-17
2.868274678e-17
2.742724557e-17
2.615177218e-17
2.487769988e-17
2.361343554e-17
2.236512154e-17
2.116001629e-17
2.000871856e-17
1.889825457e-17
1.785047797e-17
1.68657989e-17
1.59318423e-17
1.504693474e-17
1.420041004e-17
1.340282677e-17
1.265200333e-17
1.19527897e-17
1.129017989e-17
1.066874783e-17
1.008348346e-17
9.520612432e-18
8.992102976e-18
8.490237317e-18
8.013775489e-18
7.554769778e-18
7.128886989e-18
6.722299546e-18
6.333352057e-18
5.960186513e-18
5.60272356e-18
5.260743958e-18
4.939378095e-18
4.636089468e-18
4.346645438e-18
4.075885282e-18
3.814596336e-18
3.564499319e-18
3.327432008e-18
3.100741392e-18
2.882809219e-18
2.676721037e-18
2.479859337e-18
2.291708522e-18
2.113221041e-18
1.946256619e-18
1.785849611e-18
1.632430816e-18
1.486031207e-18
1.350653831e-18
1.224050092e-18
1.10514298e-18
9.913747571e-19
8.83053653e-19
7.843390761e-19
6.951420887e-19
6.113996787e-19
5.338719341e-19
4.625663983e-19
4.009436491e-19
3.448722942e-19
2.954753389e-19
2.449525403e-19
1.872078614e-19
2.179740715e-19
3.697108516e-19
8.139300612e-19
1.292114541e-18
1.31493784e-18
)


101
(
-4.603733789e-21
-6.843780334e-21
1.282973453e-20
5.426202277e-20
1.000304543e-19
1.934313732e-19
4.336474641e-19
8.324381953e-19
1.435240167e-18
2.287808931e-18
3.433998234e-18
4.87919223e-18
6.618615424e-18
8.654885112e-18
1.096904448e-17
1.352616822e-17
1.628072654e-17
1.917323187e-17
2.213720395e-17
2.509153059e-17
2.792088589e-17
3.054950872e-17
3.289233554e-17
3.487583049e-17
3.647266318e-17
3.766043335e-17
3.843778673e-17
3.880768206e-17
3.879927763e-17
3.844013448e-17
3.778374747e-17
3.69020676e-17
3.583157447e-17
3.468690028e-17
3.344000491e-17
3.214359839e-17
3.082489288e-17
2.949577668e-17
2.817140735e-17
2.688205318e-17
2.563481865e-17
2.441678394e-17
2.325522657e-17
2.215141556e-17
2.109313745e-17
2.008460913e-17
1.911353237e-17
1.818953557e-17
1.73162268e-17
1.649223659e-17
1.569959654e-17
1.495947774e-17
1.426362942e-17
1.358419887e-17
1.293818433e-17
1.232465337e-17
1.173921511e-17
1.116889391e-17
1.063188831e-17
1.01180821e-17
9.624760901e-18
9.143094299e-18
8.67595704e-18
8.230677839e-18
7.808850611e-18
7.397374219e-18
7.008075518e-18
6.632596229e-18
6.276238355e-18
5.936640856e-18
5.60480818e-18
5.282751246e-18
4.968508307e-18
4.668927992e-18
4.379271926e-18
4.099036479e-18
3.835000595e-18
3.579507058e-18
3.331006308e-18
3.0923404e-18
2.858623383e-18
2.638800036e-18
2.429619959e-18
2.232498199e-18
2.039757757e-18
1.851288436e-18
1.676937515e-18
1.516493639e-18
1.36439375e-18
1.220282321e-18
1.08261832e-18
9.636158332e-19
8.485361155e-19
7.477603263e-19
6.376333003e-19
5.066494828e-19
6.164133326e-19
1.001091502e-18
1.935949906e-18
2.946657835e-18
2.975095131e-18
)


101
(
-4.826878074e-21
-6.69478874e-21
1.85493115e-20
5.565573514e-20
1.039206383e-19
2.051999692e-19
4.580825599e-19
8.822619086e-19
1.52248925e-18
2.427294734e-18
3.640418121e-18
5.176986556e-18
7.03063431e-18
9.206209185e-18
1.168941583e-17
1.444702955e-17
1.743739754e-17
2.060075822e-17
2.387229787e-17
2.716739742e-17
3.035773101e-17
3.337839073e-17
3.613808155e-17
3.855676351e-17
4.059973457e-17
4.222652703e-17
4.342305776e-17
4.418022443e-17
4.452264628e-17
4.447403133e-17
4.408688424e-17
4.342736753e-17
4.252384147e-17
4.149858697e-17
4.032156441e-17
3.906075807e-17
3.77504398e-17
3.640731252e-17
3.505522093e-17
3.372215045e-17
3.241940725e-17
3.112605956e-17
2.987465647e-17
2.867114938e-17
2.7508094e-17
2.639318648e-17
2.530934039e-17
2.427229014e-17
2.328390905e-17
2.233542979e-17
2.142221858e-17
2.057363846e-17
1.976846954e-17
1.897736085e-17
1.822140233e-17
1.749928765e-17
1.680249169e-17
1.611756026e-17
1.545995786e-17
1.483698057e-17
1.422793353e-17
1.362845162e-17
1.304353242e-17
1.249298754e-17
1.195531367e-17
1.142381759e-17
1.091494684e-17
1.042464142e-17
9.960198793e-18
9.506314734e-18
9.061633499e-18
8.625924186e-18
8.195521885e-18
7.780234821e-18
7.372104695e-18
6.974324537e-18
6.59554522e-18
6.220606564e-18
5.863206241e-18
5.505038221e-18
5.15134303e-18
4.816389373e-18
4.490873766e-18
4.179639188e-18
3.876063876e-18
3.573931082e-18
3.284363343e-18
3.01457346e-18
2.760058203e-18
2.511525104e-18
2.26870793e-18
2.055684233e-18
1.844502823e-18
1.660854659e-18
1.448193388e-18
1.178611548e-18
1.464662491e-18
2.293473899e-18
4.012366598e-18
6.18179244e-18
6.716722604e-18
)


101
(
-5.018537002e-21
-5.577277068e-21
1.996834874e-20
5.690562228e-20
1.073439944e-19
2.156538815e-19
4.798185986e-19
9.268757773e-19
1.601960212e-18
2.555389393e-18
3.829975535e-18
5.450578572e-18
7.412302643e-18
9.721285418e-18
1.236845174e-17
1.532260773e-17
1.854477787e-17
2.197662192e-17
2.555510754e-17
2.918583363e-17
3.274961823e-17
3.618573618e-17
3.940058987e-17
4.229685798e-17
4.483962666e-17
4.697252456e-17
4.865670403e-17
4.98713756e-17
5.064204212e-17
5.099172219e-17
5.096735529e-17
5.062121799e-17
4.997225938e-17
4.914872999e-17
4.811851876e-17
4.696797086e-17
4.573648415e-17
4.444445487e-17
4.312375598e-17
4.18056529e-17
4.049590504e-17
3.916836921e-17
3.786955138e-17
3.660487584e-17
3.536739724e-17
3.41719123e-17
3.300634491e-17
3.188758055e-17
3.079941387e-17
2.97485973e-17
2.87406814e-17
2.779895982e-17
2.689529885e-17
2.601433939e-17
2.516050559e-17
2.4331241e-17
2.353694126e-17
2.274592651e-17
2.197230688e-17
2.12240292e-17
2.051229441e-17
1.980180428e-17
1.910909312e-17
1.845419641e-17
1.77842966e-17
1.713338286e-17
1.649694359e-17
1.588789459e-17
1.529258518e-17
1.469871649e-17
1.413385898e-17
1.356615302e-17
1.300555069e-17
1.245554168e-17
1.18965722e-17
1.135050943e-17
1.081586081e-17
1.030449033e-17
9.801873559e-18
9.285375161e-18
8.781026496e-18
8.289018106e-18
7.800144679e-18
7.339568241e-18
6.876547093e-18
6.413578408e-18
5.961523522e-18
5.532773109e-18
5.12450414e-18
4.721511742e-18
4.325854691e-18
3.967308824e-18
3.61391635e-18
3.300821852e-18
2.922384246e-18
2.414418081e-18
3.046187436e-18
4.629720772e-18
7.466710249e-18
1.01213894e-17
1.01199406e-17
)


101
(
-5.179976945e-21
-3.889053173e-21
1.78298922e-20
5.801679337e-20
1.103238344e-19
2.248599694e-19
4.989768468e-19
9.664755638e-19
1.673748701e-18
2.6723907e-18
4.003639833e-18
5.700745832e-18
7.76446246e-18
1.020134564e-17
1.300727778e-17
1.615368699e-17
1.960230229e-17
2.329791639e-17
2.718048167e-17
3.113866214e-17
3.50894258e-17
3.896385845e-17
4.266704228e-17
4.607851228e-17
4.916752221e-17
5.186594716e-17
5.410519631e-17
5.585433784e-17
5.714171908e-17
5.798487316e-17
5.841461513e-17
5.847193342e-17
5.817747499e-17
5.765176766e-17
5.68642124e-17
5.591962944e-17
5.485668291e-17
5.369584726e-17
5.247634559e-17
5.123503795e-17
4.997704563e-17
4.86833429e-17
4.739538142e-17
4.611701892e-17
4.485062388e-17
4.362465179e-17
4.243006495e-17
4.126791034e-17
4.011962028e-17
3.901524066e-17
3.795069927e-17
3.694332124e-17
3.597488297e-17
3.503449244e-17
3.410461637e-17
3.319578699e-17
3.233778112e-17
3.145511622e-17
3.058084822e-17
2.973021694e-17
2.892092531e-17
2.812531164e-17
2.734873114e-17
2.65834022e-17
2.579911934e-17
2.504497858e-17
2.426388887e-17
2.351345686e-17
2.278314451e-17
2.20630009e-17
2.136399772e-17
2.065118179e-17
1.994505972e-17
1.923720442e-17
1.850164609e-17
1.776451839e-17
1.705523922e-17
1.636558708e-17
1.567153403e-17
1.497259971e-17
1.427526207e-17
1.355603966e-17
1.285430485e-17
1.219133252e-17
1.151076365e-17
1.082600859e-17
1.014128681e-17
9.486300775e-18
8.850511032e-18
8.232304401e-18
7.6228267e-18
7.04296627e-18
6.483100777e-18
5.977598599e-18
5.344734172e-18
4.466973217e-18
5.683837978e-18
8.429967482e-18
1.284102975e-17
1.715875315e-17
1.716904554e-17
)


101
(
-5.312464769e-21
-3.010286212e-21
1.929721765e-20
5.899403878e-20
1.28858559e-19
2.328826418e-19
5.156781479e-19
1.001265555e-18
1.737674869e-18
2.777909721e-18
4.162265003e-18
5.92878513e-18
8.088473756e-18
1.064703343e-17
1.360472523e-17
1.693646865e-17
2.060473621e-17
2.455925131e-17
2.874351735e-17
3.30344918e-17
3.738563397e-17
4.171704106e-17
4.592473848e-17
4.988132251e-17
5.355409682e-17
5.686993524e-17
5.973268287e-17
6.209804062e-17
6.399512262e-17
6.542690327e-17
6.640195518e-17
6.695776724e-17
6.71267688e-17
6.70074814e-17
6.65727009e-17
6.59438122e-17
6.515275871e-17
6.421524215e-17
6.312724931e-17
6.20473617e-17
6.097710764e-17
5.97946117e-17
5.858823981e-17
5.737034704e-17
5.614786722e-17
5.495992369e-17
5.379608074e-17
5.265066258e-17
5.152227955e-17
5.043178869e-17
4.936744844e-17
4.834609269e-17
4.736331429e-17
4.64101555e-17
4.54544665e-17
4.452799419e-17
4.365119602e-17
4.272059108e-17
4.179735142e-17
4.090299419e-17
3.999885745e-17
3.914289624e-17
3.832761433e-17
3.747011737e-17
3.660743218e-17
3.574551006e-17
3.483602196e-17
3.396166228e-17
3.311037367e-17
3.227505347e-17
3.140297276e-17
3.054111436e-17
2.968250035e-17
2.879938979e-17
2.787408459e-17
2.693984187e-17
2.599258061e-17
2.504796453e-17
2.414046717e-17
2.322417147e-17
2.226392031e-17
2.124926041e-17
2.027251525e-17
1.932831625e-17
1.834425684e-17
1.735593925e-17
1.635395229e-17
1.53772242e-17
1.44133289e-17
1.350233034e-17
1.257905698e-17
1.167346936e-17
1.081877668e-17
1.002640156e-17
9.01623174e-18
7.59521964e-18
9.752360042e-18
1.42250276e-17
2.088624539e-17
2.757407697e-17
2.792484858e-17
)


101
(
-5.417266986e-21