/*--------------------------------*- C++ -*----------------------------------*\
| =========                 |                                                 |
| \\      /  F ield         | OpenFOAM: The Open Source CFD Toolbox           |
|  \\    /   O peration     | Version:  2.3.1                                 |
|   \\  /    A nd           | Web:      www.OpenFOAM.org                      |
|    \\/     M anipulation  |                                                 |
\*---------------------------------------------------------------------------*/
FoamFile
{
    version     2.0;
    format      ascii;
    class       dictionary;
    location    "constant";
    object      PM42;
}
// * * * * * * * * * * * * * * * * * * * * * * * * * * * * * * * * * * * * * //

PM42_table
101
(

101
(
-0.0003790185356
-0.0002690749796
-0.0002612197868
-0.000237858951
-0.0002198660894
-0.0002086770888
-0.0002018318533
-0.0001998760183
-0.0002000880025
-0.0002025579828
-0.0002062162207
-0.0002111786428
-0.0002150936024
-0.0002161871989
-0.0002102096623
-0.0001949331659
-0.0001687378442
-0.0001308196724
-9.057343953e-05
-4.244234419e-05
-2.451936758e-06
2.950138111e-05
5.584930121e-05
7.20189829e-05
7.954401554e-05
8.066597547e-05
7.731608957e-05
7.122122432e-05
6.370528088e-05
5.586791144e-05
4.825340056e-05
4.130495688e-05
3.540520766e-05
2.908410937e-05
2.426025949e-05
2.018317194e-05
1.525887247e-05
1.132310403e-05
1.201067616e-05
1.053226217e-05
8.812057328e-06
7.425082119e-06
6.165266226e-06
5.146349169e-06
4.354231681e-06
3.658641276e-06
3.099881588e-06
2.605724027e-06
2.203707768e-06
1.853936199e-06
1.56789417e-06
1.324439141e-06
1.117436293e-06
9.405568857e-07
7.934012244e-07
6.708153287e-07
5.587428748e-07
4.736054762e-07
3.960804436e-07
3.334481179e-07
2.786865002e-07
2.327491461e-07
1.941665553e-07
1.60465037e-07
1.322123569e-07
1.09134733e-07
8.964533269e-08
7.314085877e-08
5.900193516e-08
4.750406937e-08
3.789663132e-08
3.004420629e-08
2.342840387e-08
1.800812507e-08
1.27101603e-08
9.463277206e-09
7.602695631e-09
5.817686133e-09
4.339610148e-09
3.182686823e-09
2.296836152e-09
1.595779242e-09
1.094387821e-09
6.66261272e-10
4.364915807e-10
3.054955053e-10
2.047510628e-10
1.305809561e-10
8.059032761e-11
4.30394689e-11
2.678434772e-11
1.653571768e-11
9.094636818e-12
4.681675635e-12
2.389260452e-12
1.048310999e-12
2.182890065e-13
3.118591369e-13
5.279294902e-13
1.137881601e-12
2.460123676e-12
)


101
(
-0.0003790185362
-0.0002678545296
-0.0002600314878
-0.0002367275265
-0.0002187152053
-0.0002074502674
-0.0002005142081
-0.0001984177441
-0.0001985140172
-0.0002008623217
-0.0002044491745
-0.0002094064682
-0.0002135424375
-0.0002151543084
-0.0002101122979
-0.000196078396
-0.0001713855035
-0.0001351270907
-9.556515245e-05
-4.867502563e-05
-8.110965478e-06
2.486277648e-05
5.192353995e-05
6.937252334e-05
7.823654151e-05
8.052694657e-05
7.811836756e-05
7.27142058e-05
6.564699678e-05
5.804083294e-05
5.052655941e-05
4.358453691e-05
3.759739571e-05
3.138443232e-05
2.632072254e-05
2.20000264e-05
1.715014743e-05
1.292128437e-05
1.255754964e-05
1.125728763e-05
9.645417267e-06
8.2135718e-06
6.909055346e-06
5.818579761e-06
4.94628514e-06
4.196745892e-06
3.582059835e-06
3.046007734e-06
2.599114495e-06
2.212015555e-06
1.888077937e-06
1.611610399e-06
1.375615502e-06
1.173610851e-06
1.002118782e-06
8.563090574e-07
7.251962373e-07
6.188738055e-07
5.249053426e-07
4.461031824e-07
3.777570717e-07
3.193386151e-07
2.694552217e-07
2.261999584e-07
1.892982025e-07
1.581457088e-07
1.31530707e-07
1.087942305e-07
8.933420596e-08
7.295383734e-08
5.913704289e-08
4.758982656e-08
3.795700567e-08
2.995874197e-08
2.2678827e-08
1.724581735e-08
1.344527444e-08
1.034376381e-08
7.859012688e-09
5.888634996e-09
4.349272628e-09
3.14140527e-09
2.235260379e-09
1.514157479e-09
1.024750673e-09
6.978862599e-10
4.74258798e-10
3.164090957e-10
2.047809367e-10
1.26988914e-10
7.928687854e-11
4.85676193e-11
2.984508617e-11
1.741624016e-11
1.013307161e-11
5.379308019e-12
1.788009803e-12
3.03456205e-12
5.224527613e-12
1.021303244e-11
1.841013586e-11
)


101
(
-0.0003790185362
-0.0002654133011
-0.0002576553616
-0.0002344591659
-0.0002163959875
-0.0002049590112
-0.000197810188
-0.0001953890213
-0.0001951917953
-0.0001972135853
-0.0002005410202
-0.0002053335767
-0.0002097042064
-0.000212092928
-0.0002086285992
-0.0001967849235
-0.0001748033434
-0.0001416006606
-0.000103380262
-5.867920433e-05
-1.71903094e-05
1.777150423e-05
4.641936581e-05
6.636018026e-05
7.784362134e-05
8.243141327e-05
8.185591158e-05
7.776774865e-05
7.152455892e-05
6.428947469e-05
5.684801772e-05
4.977464697e-05
4.347612197e-05
3.730301985e-05
3.17747596e-05
2.682353035e-05
2.198879571e-05
1.728559857e-05
1.506605781e-05
1.361137664e-05
1.203645404e-05
1.047457811e-05
9.017232684e-06
7.725951974e-06
6.637263504e-06
5.716117353e-06
4.938922302e-06
4.271447524e-06
3.696698788e-06
3.198738645e-06
2.768160464e-06
2.396691074e-06
2.076033777e-06
1.799039316e-06
1.558915078e-06
1.350676269e-06
1.165952824e-06
1.005726006e-06
8.664390851e-07
7.452971222e-07
6.402322046e-07
5.489055076e-07
4.696106973e-07
4.007157319e-07
3.407929134e-07
2.88696626e-07
2.436434602e-07
2.046368896e-07
1.711828492e-07
1.423834837e-07
1.176765555e-07
9.658030023e-08
7.88017897e-08
6.384301868e-08
5.097080845e-08
4.016006575e-08
3.148750888e-08
2.456053965e-08
1.902717641e-08
1.461687403e-08
1.111423461e-08
8.333278056e-09
6.161922551e-09
4.470740413e-09
3.181034428e-09
2.22706671e-09
1.542036095e-09
1.068085584e-09
7.27157141e-10
4.815710357e-10
3.133049127e-10
2.015802227e-10
1.311771829e-10
8.288210066e-11
5.20083657e-11
3.023014625e-11
1.171944404e-11
2.282438136e-11
4.030581005e-11
7.756938484e-11
1.451909102e-10
)


101
(
-0.0003790185362
-0.0002629699641
-0.0002552792809
-0.0002321808533
-0.0002140463374
-0.0002024028929
-0.0001949879982
-0.0001921693713
-0.000191573976
-0.0001931309963
-0.0001960029309
-0.0002003705055
-0.0002046179596
-0.00020733059
-0.0002049186626
-0.0001947315826
-0.0001749258671
-0.0001442847681
-0.0001073741638
-6.434136703e-05
-2.234909683e-05
1.43995889e-05
4.486066364e-05
6.715481093e-05
8.111978776e-05
8.791003317e-05
8.907314908e-05
8.619707498e-05
8.066734094e-05
7.367541987e-05
6.611435426e-05
5.868151783e-05
5.184222066e-05
4.537133427e-05
3.939080764e-05
3.394558758e-05
2.861851037e-05
2.350311636e-05
1.994241125e-05
1.761648596e-05
1.568949203e-05
1.387340123e-05
1.215756442e-05
1.058210531e-05
9.194103903e-06
7.999138401e-06
6.974302504e-06
6.0930447e-06
5.326290102e-06
4.657797544e-06
4.071122805e-06
3.55781931e-06
3.109370837e-06
2.718347581e-06
2.376477178e-06
2.076589455e-06
1.81247045e-06
1.578801567e-06
1.373656646e-06
1.192680134e-06
1.034180858e-06
8.955650956e-07
7.74206018e-07
6.680495865e-07
5.749396241e-07
4.928938842e-07
4.211337317e-07
3.585173957e-07
3.041797159e-07
2.571227045e-07
2.160591782e-07
1.805444142e-07
1.49991098e-07
1.23966091e-07
1.016968492e-07
8.265756166e-08
6.65383184e-08
5.315570667e-08
4.213510163e-08
3.315373811e-08
2.589340426e-08
2.000909656e-08
1.528969538e-08
1.153647393e-08
8.571882397e-09
6.266965781e-09
4.500601477e-09
3.205214294e-09
2.277960495e-09
1.586895036e-09
1.081283813e-09
7.243610615e-10
4.811118826e-10
3.210538054e-10
2.122468514e-10
1.314085166e-10
6.084083119e-11
1.236700002e-10
2.146617229e-10
3.98919491e-10
6.352892148e-10
)


101
(
-0.0003790185014
-0.0002605244843
-0.0002529041528
-0.0002298956035
-0.0002116732747
-0.0001997962243
-0.0001920737516
-0.0001888027227
-0.0001877316586
-0.0001887256765
-0.0001910023132
-0.000194760112
-0.0001986261093
-0.0002013311523
-0.0001995832872
-0.000190666166
-0.0001726601618
-0.0001442439392
-0.0001086805308
-6.704513195e-05
-2.488678411e-05
1.334617129e-05
4.566330898e-05
7.023193926e-05
8.659713877e-05
9.555801811e-05
9.845388653e-05
9.679215899e-05
9.197364893e-05
8.521742027e-05
7.750394145e-05
6.959603838e-05
6.207632505e-05
5.505039564e-05
4.850066053e-05
4.259028828e-05
3.662998049e-05
3.099835772e-05
2.642068307e-05
2.304529725e-05
2.043739475e-05
1.817893194e-05
1.61085529e-05
1.419452213e-05
1.245917144e-05
1.092736697e-05
9.592713776e-06
8.438519886e-06
7.432527309e-06
6.550709982e-06
5.771318709e-06
5.081867965e-06
4.473377456e-06
3.938906968e-06
3.469186357e-06
3.053643314e-06
2.687201987e-06
2.361200049e-06
2.073181314e-06
1.816701701e-06
1.589232932e-06
1.389190129e-06
1.212436624e-06
1.056976594e-06
9.201309238e-07
7.987474068e-07
6.911814625e-07
5.962520068e-07
5.125723737e-07
4.398058604e-07
3.756456252e-07
3.193467541e-07
2.699995e-07
2.272279316e-07
1.90230167e-07
1.582718949e-07
1.307366033e-07
1.071624385e-07
8.706393526e-08
7.021483165e-08
5.623142025e-08
4.473906164e-08
3.521362472e-08
2.745506448e-08
2.114149315e-08
1.607335345e-08
1.200787471e-08
8.848936186e-09
6.477294579e-09
4.712900315e-09
3.350314281e-09
2.346661856e-09
1.622904099e-09
1.110744452e-09
7.648571539e-10
4.974803473e-10
2.598146122e-10
5.018346728e-10
8.658135771e-10
1.812010222e-09
3.038012692e-09
)


101
(
-0.0003790185364
-0.0002580769922
-0.000250530866
-0.0002276062932
-0.0002092833527
-0.0001971519604
-0.0001890906505
-0.0001853271959
-0.0001837251011
-0.000184089918
-0.0001856758409
-0.0001886963783
-0.0001919986109
-0.0001944537223
-0.000193078988
-0.000185146414
-0.0001686676734
-0.0001422407198
-0.0001080919396
-6.774166473e-05
-2.569317593e-05
1.369071837e-05
4.778515475e-05
7.456879148e-05
9.329786423e-05
0.0001044553027
0.0001091568403
0.0001087974983
0.0001047743388
9.833265229e-05
9.052959333e-05
8.216776451e-05
7.393330044e-05
6.619330472e-05
5.893117445e-05
5.227090891e-05
4.582902867e-05
3.963350611e-05
3.418432508e-05
2.980141759e-05
2.633546532e-05
2.344500786e-05
2.089843308e-05
1.857841067e-05
1.645390591e-05
1.454181929e-05
1.284757151e-05
1.137032426e-05
1.008007642e-05
8.945081445e-06
7.938935142e-06
7.041775201e-06
6.242617015e-06
5.534279457e-06
4.909423417e-06
4.354410933e-06
3.860886863e-06
3.420273926e-06
3.028179451e-06
2.677658548e-06
2.36459866e-06
2.08653196e-06
1.838886239e-06
1.618691664e-06
1.423835199e-06
1.250711698e-06
1.095877322e-06
9.5751053e-07
8.339273298e-07
7.247676047e-07
6.284193219e-07
5.430496131e-07
4.67190257e-07
4.000835326e-07
3.410480726e-07
2.893593045e-07
2.443896882e-07
2.050187989e-07
1.706373828e-07
1.409965983e-07
1.156948716e-07
9.448473293e-08
7.647059425e-08
6.136771831e-08
4.881178569e-08
3.839093844e-08
2.976655909e-08
2.274213338e-08
1.720405032e-08
1.296417665e-08
9.589346337e-09
6.965120213e-09
5.031280241e-09
3.573918853e-09
2.547664965e-09
1.693566485e-09
9.485905639e-10
2.040871359e-09
3.601123461e-09
7.510021394e-09
1.199290893e-08
)


101
(
-0.0003790185362
-0.0002556269903
-0.0002481600765
-0.0002253154367
-0.0002068820841
-0.0001944805432
-0.0001860569671
-0.0001817731795
-0.0001796045309
-0.0001793005446
-0.0001801353576
-0.0001823371228
-0.0001849509952
-0.0001869835453
-0.0001857624497
-0.0001786003336
-0.0001634513214
-0.0001388466639
-0.0001061890375
-6.711360053e-05
-2.541300595e-05
1.478830576e-05
5.049341271e-05
7.94167161e-05
0.0001004944807
0.0001139082199
0.0001205446704
0.0001216515044
0.0001185887988
0.0001126178674
0.0001048491704
9.61624152e-05
8.728077853e-05
7.878124345e-05
7.074799935e-05
6.330475541e-05
5.623798135e-05
4.945008029e-05
4.322788976e-05
3.789811746e-05
3.350340042e-05
2.98332956e-05
2.667897984e-05
2.386447915e-05
2.129882941e-05
1.896880327e-05
1.687206448e-05
1.501922355e-05
1.339175971e-05
1.195790728e-05
1.068583094e-05
9.546374856e-06
8.525184872e-06
7.611914205e-06
6.799392416e-06
6.075327091e-06
5.429436413e-06
4.848996067e-06
4.328384502e-06
3.860088024e-06
3.439565598e-06
3.062613031e-06
2.724835758e-06
2.422134424e-06
2.15160001e-06
1.910263266e-06
1.693211752e-06
1.498037699e-06
1.32181358e-06
1.163342388e-06
1.022403501e-06
8.963936074e-07
7.835647879e-07
6.822137827e-07
5.916191643e-07
5.108787772e-07
4.397090912e-07
3.766878478e-07
3.208511903e-07
2.714077438e-07
2.279611744e-07
1.904758534e-07
1.582884518e-07
1.30411773e-07
1.067551819e-07
8.660426454e-08
6.947670412e-08
5.495797818e-08
4.308010362e-08
3.350567753e-08
2.58124866e-08
1.943233133e-08
1.456246347e-08
1.078737254e-08
7.914642734e-09
5.523168987e-09
3.324032994e-09
7.491189697e-09
1.326088168e-08
2.725965382e-08
4.28877541e-08
)


101
(
-0.0003790185362
-0.0002531743573
-0.000245792462
-0.00022302544
-0.0002044744227
-0.0001917905646
-0.0001829864172
-0.0001781627483
-0.0001754102775
-0.0001744192396
-0.0001744696179
-0.0001758049301
-0.0001776486889
-0.0001791376891
-0.0001779034094
-0.0001713456864
-0.0001573798241
-0.0001344771886
-0.0001033851494
-6.563621229e-05
-2.449741549e-05
1.620304348e-05
5.32892954e-05
8.424446665e-05
0.0001076591849
0.0001234050683
0.0001321379338
0.0001349316787
0.0001330656249
0.0001277935216
0.0001202661011
0.0001114310899
0.0001020495181
9.284115159e-05
8.402283538e-05
7.577500399e-05
6.799561081e-05
6.0562144e-05
5.361547685e-05
4.740521413e-05
4.207266079e-05
3.753838784e-05
3.365672435e-05
3.024251975e-05
2.716343026e-05
2.436811202e-05
2.182873087e-05
1.955335223e-05
1.753647271e-05
1.575190771e-05
1.416301438e-05
1.273977575e-05
1.146011179e-05
1.030484491e-05
9.268703229e-06
8.342056913e-06
7.511374935e-06
6.761307089e-06
6.085718023e-06
5.473791401e-06
4.919879961e-06
4.419415704e-06
3.966501311e-06
3.558809403e-06
3.191503435e-06
2.862125914e-06
2.565134281e-06
2.295939195e-06
2.050794261e-06
1.826789356e-06
1.62500122e-06
1.442799521e-06
1.279473552e-06
1.13148731e-06
9.969307641e-07
8.75099677e-07
7.658250873e-07
6.680449461e-07
5.804369209e-07
5.01382966e-07
4.305672416e-07
3.675858288e-07
3.127917854e-07
2.641430799e-07
2.218465589e-07
1.847756273e-07
1.529453318e-07
1.248929974e-07
1.011989127e-07
8.127816807e-08
6.473125565e-08
5.058166363e-08
3.9374645e-08
3.037595951e-08
2.310138045e-08
1.705101994e-08
1.093512279e-08
2.418491355e-08
4.219073859e-08
8.435966491e-08
1.36329642e-07
)


101
(
-0.0003790184659
-0.0002507189805
-0.0002434285057
-0.000220738178
-0.0002020649351
-0.0001890905833
-0.0001798925679
-0.0001745159501
-0.0001711766107
-0.0001694975313
-0.0001687522607
-0.000169198942
-0.0001702243885
-0.0001710874167
-0.0001697136502
-0.0001636272109
-0.0001507286052
-0.0001294362873
-9.997500397e-05
-6.363775673e-05
-2.325730899e-05
1.764963524e-05
5.585292667e-05
8.870243273e-05
0.0001144441623
0.0001326159475
0.000143623211
0.0001483467707
0.0001479491981
0.0001436462443
0.000136609545
0.0001278480378
0.0001181679555
0.0001083811894
9.881715248e-05
8.976514725e-05
8.123275613e-05
7.311727568e-05
6.547040913e-05
5.84419726e-05
5.219340514e-05
4.674755203e-05
4.204520855e-05
3.792842157e-05
3.4250781e-05
3.092872734e-05
2.790124483e-05
2.51628291e-05
2.270578104e-05
2.051434654e-05
1.855593157e-05
1.68033409e-05
1.522251718e-05
1.378672422e-05
1.248802611e-05
1.131622431e-05
1.0262345e-05
9.304699299e-06
8.440897475e-06
7.656090378e-06
6.93997504e-06
6.288534945e-06
5.693297944e-06
5.152756725e-06
4.662030995e-06
4.218266477e-06
3.817443793e-06
3.451695188e-06
3.117044272e-06
2.808881537e-06
2.527315198e-06
2.270640579e-06
2.037602002e-06
1.82572455e-06
1.631688025e-06
1.453943209e-06
1.291250991e-06
1.143826236e-06
1.010835526e-06
8.891444609e-07
7.780400362e-07
6.778000621e-07
5.883384499e-07
5.084110099e-07
4.364623003e-07
3.720623829e-07
3.161951389e-07
2.657231999e-07
2.216110219e-07
1.834534566e-07
1.504503484e-07
1.219589665e-07
9.821329913e-08
7.856330079e-08
6.190518295e-08
4.756705497e-08
3.312549955e-08
6.939197531e-08
1.178554103e-07
2.231975368e-07
3.68760899e-07
)


101
(
-0.0003790184664
-0.0002482604309
-0.0002410686674
-0.0002184550198
-0.0001996570634
-0.0001863881861
-0.0001767893271
-0.0001708540133
-0.0001669314866
-0.0001645746644
-0.0001630417201
-0.0001626012032
-0.0001627886152
-0.000162975407
-0.0001613676926
-0.0001556436045
-0.000143716282
-0.0001239584219
-9.617949268e-05
-6.135561165e-05
-2.191975481e-05
1.893271886e-05
5.79997239e-05
9.257366975e-05
0.0001206194458
0.0001413164248
0.0001547797147
0.0001616775047
0.0001630324155
0.0001599967906
0.0001537334171
0.0001452926598
0.000135538459
0.0001253656648
0.0001151679367
0.0001053635519
9.608707253e-05
8.728194605e-05
7.89450614e-05
7.114838353e-05
6.40246393e-05
5.765011935e-05
5.206896833e-05
4.716687725e-05
4.280777362e-05
3.889150058e-05
3.532081775e-05
3.206895465e-05
2.911650407e-05
2.646196046e-05
2.408043285e-05
2.194561622e-05
2.001641402e-05
1.826030064e-05
1.665220441e-05
1.51908594e-05
1.38721876e-05
1.2667148e-05
1.157506099e-05
1.05804497e-05
9.66745603e-06
8.830447934e-06
8.062978279e-06
7.358242288e-06
6.711534698e-06
6.119757013e-06
5.584441239e-06
5.094855838e-06
4.646572401e-06
4.231659789e-06
3.847566428e-06
3.493287196e-06
3.168057655e-06
2.870412838e-06
2.597007665e-06
2.343654705e-06
2.108917997e-06
1.893660094e-06
1.697045267e-06
1.516083384e-06
1.348365643e-06
1.195185475e-06
1.055318895e-06
9.295686655e-07
8.139297411e-07
7.077780609e-07
6.139820557e-07
5.289144233e-07
4.521121786e-07
3.846063081e-07
3.238353e-07
2.70685423e-07
2.247217107e-07
1.855565981e-07
1.5145281e-07
1.204525992e-07
8.909556316e-08
1.779660435e-07
2.940735882e-07
5.187654793e-07
7.84369231e-07
)


101
(
-0.0003790180922
-0.0002457984589
-0.0002387133253
-0.0002161774015
-0.0001972539704
-0.0001836900131
-0.0001736889927
-0.0001671961159
-0.0001626979898
-0.0001596797382
-0.0001573831382
-0.0001560759166
-0.0001554289667
-0.0001549152015
-0.0001530039675
-0.0001475502884
-0.0001365113751
-0.0001182214598
-9.215906873e-05
-5.895010472e-05
-2.063845731e-05
1.991948935e-05
5.962281277e-05
9.571938847e-05
0.0001260140218
0.0001493134469
0.0001653983791
0.0001747100295
0.000178114428
0.0001766744296
0.0001715123222
0.0001636870361
0.0001541146222
0.0001437934065
0.000133147987
0.0001226992523
0.0001127155296
0.0001032219492
9.420126158e-05
8.567887039e-05
7.774164153e-05
7.046946764e-05
6.39847355e-05
5.823845374e-05
5.312294393e-05
4.853984617e-05
4.436232238e-05
4.053821932e-05
3.703744582e-05
3.386517219e-05
3.099938851e-05
2.841856211e-05
2.608468487e-05
2.395541673e-05
2.199249584e-05
2.020464019e-05
1.857084369e-05
1.707438203e-05
1.570556482e-05
1.445798941e-05
1.330983856e-05
1.22486924e-05
1.127042345e-05
1.036464077e-05
9.528065856e-06
8.754352857e-06
8.045532775e-06
7.398449692e-06
6.804867541e-06
6.253849956e-06
5.740417388e-06
5.261404232e-06
4.817760407e-06
4.407686752e-06
4.028779519e-06
3.675528001e-06
3.346570462e-06
3.041682215e-06
2.757639462e-06
2.495605876e-06
2.251762463e-06
2.024894011e-06
1.815268223e-06
1.624055513e-06
1.446622798e-06
1.280073744e-06
1.129360197e-06
9.933062887e-07
8.680222064e-07
7.542310508e-07
6.501741036e-07
5.576880453e-07
4.752258764e-07
4.030748598e-07
3.394874998e-07
2.798289226e-07
2.191313759e-07
4.08161667e-07
6.541670509e-07
1.092497212e-06
1.608031231e-06
)


101
(
-0.000379016283
-0.0002433326678
-0.0002363625114
-0.0002139066972
-0.0001948591403
-0.0001810028176
-0.0001706030686
-0.0001635587061
-0.000158496015
-0.0001548386018
-0.0001518150207
-0.0001496736721
-0.0001482125984
-0.0001469934673
-0.0001447280681
-0.0001394645617
-0.0001292340623
-0.0001123473278
-8.801362802e-05
-5.650694939e-05
-1.949871819e-05
2.051998086e-05
6.061019763e-05
9.798955118e-05
0.0001303942032
0.0001563093416
0.0001751692567
0.0001871517319
0.0001929361489
0.0001934594306
0.0001897786547
0.0001829383042
0.0001738800712
0.0001636926717
0.0001528361212
0.0001419064702
0.0001312906062
0.0001211241184
0.0001114349905
0.0001022396248
9.356013989e-05
8.54483376e-05
7.806516769e-05
7.143626718e-05
6.549641246e-05
6.017010849e-05
5.532262127e-05
5.087671626e-05
4.678084105e-05
4.303842707e-05
3.962736168e-05
3.653508219e-05
3.373198279e-05
3.117091883e-05
2.881100273e-05
2.664330069e-05
2.464572678e-05
2.280221921e-05
2.110641302e-05
1.955386555e-05
1.812491211e-05
1.679835942e-05
1.556743947e-05
1.442034959e-05
1.335284682e-05
1.236298035e-05
1.144086935e-05
1.059328772e-05
9.81443113e-06
9.090431569e-06
8.415591647e-06
7.782204703e-06
7.186829059e-06
6.631136065e-06
6.114372021e-06
5.632971935e-06
5.181906044e-06
4.75884794e-06
4.362012091e-06
3.991012575e-06
3.643617988e-06
3.317546413e-06
3.0130783e-06
2.730284236e-06
2.468055364e-06
2.219206849e-06
1.986394478e-06
1.775461768e-06
1.580284468e-06
1.397945627e-06
1.229252614e-06
1.077584236e-06
9.392521484e-07
8.144026109e-07
7.034545018e-07
5.981242376e-07
4.919627305e-07
8.604668484e-07
1.334667338e-06
2.111083747e-06
3.006446733e-06
)


101
(
-0.0003790149892
-0.00024086255
-0.0002340163917
-0.0002116443643
-0.0001924759301
-0.0001783330335
-0.0001675434723
-0.0001599583805
-0.0001543391854
-0.0001500685006
-0.0001463699629
-0.0001434351331
-0.0001411923902
-0.0001392815719
-0.0001366287677
-0.0001314843135
-0.0001219726027
-0.0001064084015
-8.379129662e-05
-5.40582533e-05
-1.854240397e-05
2.066464105e-05
6.084544996e-05
9.924692564e-05
0.0001335642992
0.000162041403
0.0001837998317
0.0001987132632
0.0002072302849
0.0002101153892
0.0002083328952
0.000202900689
0.000194763842
0.0001850545787
0.0001742730183
0.0001630798277
0.0001519633266
0.0001411838346
0.0001308633741
0.0001210529965
0.0001117101496
0.0001028366524
9.459706741e-05
8.707293802e-05
8.025522369e-05
7.411470923e-05
6.853395829e-05
6.341924912e-05
5.868838882e-05
5.433513131e-05
5.0322935e-05
4.665544087e-05
4.332147171e-05
4.026924396e-05
3.745511469e-05
3.484383309e-05
3.244001609e-05
3.019733891e-05
2.812720168e-05
2.621284161e-05
2.445150826e-05
2.28092055e-05
2.127816768e-05
1.984663235e-05
1.850741157e-05
1.725579042e-05
1.607978402e-05
1.498654649e-05
1.397205777e-05
1.303228676e-05
1.215488422e-05
1.133132659e-05
1.054858089e-05
9.809596512e-06
9.115305611e-06
8.465670439e-06
7.856796832e-06
7.283640737e-06
6.740173533e-06
6.227210169e-06
5.741338877e-06
5.284029562e-06
4.85118789e-06
4.443207211e-06
4.064771792e-06
3.705361955e-06
3.359439772e-06
3.040811286e-06
2.745241757e-06
2.467846404e-06
2.205217412e-06
1.966481815e-06
1.745101922e-06
1.542697591e-06
1.358705062e-06
1.184320487e-06
1.011218418e-06
1.673571844e-06
2.511650442e-06
3.770248214e-06
5.216149375e-06
)


101
(
-0.0003790148477
-0.0002383875626
-0.0002316750316
-0.0002093916782
-0.0001901074217
-0.0001756861425
-0.000164520201
-0.0001564100301
-0.0001502400081
-0.000145381157
-0.0001410726411
-0.0001373912644
-0.0001344074443
-0.0001318334338
-0.0001287748617
-0.0001236873446
-0.0001147981017
-0.0001004556076
-7.951882659e-05
-5.160036955e-05
-1.775450985e-05
2.035940922e-05
6.030626836e-05
9.945357831e-05
0.0001354778786
0.0001664251618
0.0001911383595
0.0002091783799
0.0002207356408
0.0002263730226
0.0002269271724
0.0002233531885
0.0002165755657
0.0002077476599
0.0001973932533
0.0001862273115
0.0001748231334
0.0001635654778
0.0001526995793
0.0001423373336
0.0001324174561
0.0001228850246
0.0001138772887
0.0001054906963
9.777566375e-05
9.077036727e-05
8.439230729e-05
7.855140388e-05
7.314597915e-05
6.814205668e-05
6.348450812e-05
5.919043803e-05
5.527018509e-05
5.166657222e-05
4.833960416e-05
4.52426524e-05
4.238037349e-05
3.969778046e-05
3.719490491e-05
3.486472458e-05
3.27154088e-05
3.070584765e-05
2.881799846e-05
2.705330506e-05
2.540080001e-05
2.383541638e-05
2.236192638e-05
2.097087739e-05
1.967360308e-05
1.846626036e-05
1.733442366e-05
1.627340646e-05
1.52634997e-05
1.430114237e-05
1.338460225e-05
1.251560624e-05
1.170301631e-05
1.093531792e-05
1.020342804e-05
9.508331102e-06
8.840214155e-06
8.20683444e-06
7.604727682e-06
7.030296417e-06
6.488058305e-06
5.977073968e-06
5.483091258e-06
5.013469727e-06
4.576604182e-06
4.167939697e-06
3.771976267e-06
3.410302601e-06
3.065223079e-06
2.751564089e-06
2.461258571e-06
2.18728095e-06
1.914334255e-06
3.004614944e-06
4.361519933e-06
6.274579492e-06
8.7019604e-06
)


101
(
-0.0003790147066
-0.0002359073918
-0.0002293386567
-0.000207149922
-0.000187756853
-0.000173067684
-0.0001615410229
-0.0001529259348
-0.0001462125687
-0.0001407884837
-0.0001359340448
-0.0001315669605
-0.0001278853556
-0.0001246807369
-0.0001212059844
-0.0001161212054
-0.0001077703412
-9.455223105e-05
-7.525079522e-05
-4.919203556e-05
-1.715182992e-05
1.963370409e-05
5.90580173e-05
9.865355348e-05
0.0001361403846
0.0001694233024
0.0001970812525
0.0002183657644
0.0002332011884
0.0002419447964
0.0002452829271
0.0002440477488
0.0002390873236
0.000231586104
0.0002220748917
0.0002113083739
0.0001999197855
0.0001884007594
0.0001771320251
0.0001663103825
0.0001559162117
0.000145842355
0.0001361873416
0.0001270298688
0.000118457865
0.0001105760373
0.000103352815
9.673617166e-05
9.060974127e-05
8.491233443e-05
7.95874739e-05
7.463633331e-05
7.007464945e-05
6.586774099e-05
6.197938149e-05
5.835711417e-05
5.498628189e-05
5.182268965e-05
4.883784329e-05
4.603918728e-05
4.343251431e-05
4.100338608e-05
3.870930556e-05
3.65640071e-05
3.454339169e-05
3.26168233e-05
3.07929438e-05
2.905645358e-05
2.742879332e-05
2.589241912e-05
2.444609448e-05
2.308889764e-05
2.179753303e-05
2.056683771e-05
1.9382155e-05
1.82371903e-05
1.715556216e-05
1.612906747e-05
1.516023175e-05
1.422758931e-05
1.332439878e-05
1.245880615e-05
1.162838249e-05
1.083483547e-05
1.007442982e-05
9.350376605e-06
8.655590311e-06
7.982451424e-06
7.345751719e-06
6.752648946e-06
6.17067122e-06
5.635592185e-06
5.118707746e-06
4.643649497e-06
4.204447362e-06
3.786870283e-06
3.368820159e-06
5.051143217e-06
7.103269292e-06
9.863477637e-06
1.28496272e-05
)


101
(
-0.0003790149886
-0.000233421659
-0.0002270075591
-0.0002049204949
-0.0001854271746
-0.0001704827014
-0.0001586127735
-0.0001495171547
-0.0001422694813
-0.0001363004361
-0.0001309563863
-0.0001259820624
-0.0001216477438
-0.0001178425739
-0.000113945439
-0.000108813493
-0.0001009331826
-8.876104102e-05
-7.104954382e-05
-4.692101231e-05
-1.677601897e-05
1.850107534e-05
5.717269459e-05
9.691667449e-05
0.0001355793494
0.0001710103013
0.0002015345965
0.0002261171672
0.0002444219815
0.0002565856488
0.0002631162062
0.0002646941595
0.0002620457184
0.000256357762
0.0002481637825
0.0002382461464
0.0002272667097
0.0002157887078
0.0002043256641
0.0001931927984
0.0001824369474
0.0001719486201
0.0001618013549
0.0001520183446
0.0001426867371
0.0001339696179
0.0001259032903
0.0001184953081
0.000111609413
0.0001051938071
9.919345272e-05
9.357297506e-05
8.83294514e-05
8.348182873e-05
7.898124333e-05
7.477274609e-05
7.085986635e-05
6.717914289e-05
6.368178837e-05
6.036573864e-05
5.725029926e-05
5.434210491e-05
5.16018199e-05
4.902929335e-05
4.657425519e-05
4.425222705e-05
4.202401838e-05
3.989006265e-05
3.786467536e-05
3.593500378e-05
3.411461401e-05
3.239033144e-05
3.075141073e-05
2.918958795e-05
2.768117175e-05
2.620442621e-05
2.476940315e-05
2.341326053e-05
2.212430094e-05
2.088403423e-05
1.968537356e-05
1.851655607e-05
1.737445913e-05
1.628739816e-05
1.523648029e-05
1.422400663e-05
1.3247671e-05
1.230280607e-05
1.138616414e-05
1.05315563e-05
9.697159229e-06
8.91220196e-06
8.164157081e-06
7.459374952e-06
6.810631867e-06
6.193644815e-06
5.582099083e-06
8.042252055e-06
1.098609939e-05
1.485771829e-05
1.891737739e-05
)


101
(
-0.0003790149886
-0.0002309294938
-0.0002246763197
-0.0002027041755
-0.0001831204597
-0.0001679345078
-0.0001557406459
-0.0001461927789
-0.0001384261242
-0.0001319291616
-0.0001261406991
-0.0001206456984
-0.0001157089541
-0.0001113337059
-0.0001070148096
-0.0001017902807
-9.431569809e-05
-8.311241858e-05
-6.692403591e-05
-4.478030928e-05
-1.658616689e-05
1.703102998e-05
5.472294042e-05
9.431191615e-05
0.0001338130866
0.0001711260141
0.0002043734203
0.0002322592408
0.0002541930333
0.0002700619606
0.0002801413241
0.0002849595537
0.0002851336759
0.0002817806827
0.000275430934
0.0002668860157
0.0002568044871
0.0002457709975
0.0002343999911
0.0002231529795
0.0002121826598
0.0002014376285
0.0001909734468
0.0001807509502
0.0001708207955
0.0001613811136
0.0001525330206
0.0001443492221
0.0001367137734
0.000129589962
0.0001229118999
0.0001166280263
0.0001107050916
0.0001051925337
0.0001000517522
9.521706823e-05
9.072720603e-05
8.649115652e-05
8.246523168e-05
7.860800211e-05
7.495338416e-05
7.150909932e-05
6.827959152e-05
6.522632207e-05
6.229250389e-05
5.952665972e-05
5.683942449e-05
5.42504239e-05
5.176149591e-05
4.938819416e-05
4.71233293e-05
4.494806313e-05
4.288042767e-05
4.0900133e-05
3.898422518e-05
3.711101424e-05
3.526476958e-05
3.347347957e-05
3.175442445e-05
3.01133891e-05
2.853286184e-05
2.696172079e-05
2.541803546e-05
2.392911287e-05
2.248432063e-05
2.108286692e-05
1.971413001e-05
1.839838972e-05
1.71006103e-05
1.58796073e-05
1.470578733e-05
1.356756286e-05
1.249665151e-05
1.147815904e-05
1.053084754e-05
9.641693769e-06
8.768633244e-06
1.22326257e-05
1.631264118e-05
2.169909555e-05
2.786195212e-05
)


101
(
-0.0003790147066
-0.0002284305015
-0.0002223497872
-0.0002005019414
-0.0001808389166
-0.0001654263057
-0.0001529291816
-0.0001429600577
-0.0001347039927
-0.000127700034
-0.0001214871247
-0.0001155551793
-0.0001100715441
-0.0001051674353
-0.0001004476537
-9.510668113e-05
-8.797642072e-05
-7.765256718e-05
-6.288070768e-05
-4.266341042e-05
-1.645303669e-05
1.536681229e-05
5.180260409e-05
9.092727562e-05
0.0001308948304
0.0001697487771
0.0002055068735
0.0002366354248
0.0002622949872
0.0002821005348
0.0002960512858
0.0003045086837
0.0003080028784
0.0003075250264
0.0003035750255
0.0002969659585
0.0002883389992
0.0002782553935
0.0002673795645
0.0002563125965
0.0002453492692
0.0002345285935
0.0002239373544
0.0002135037879
0.0002032125252
0.0001932451278
0.0001837320613
0.0001748326729
0.0001665254485
0.0001587491381
0.0001514248194
0.0001445041397
0.0001379347038
0.0001317587965
0.0001259780774
0.0001205409357
0.0001154605545
0.0001106413609
0.0001060890063
0.0001017099015
9.747382003e-05
9.346992729e-05
8.969593684e-05
8.610491712e-05
8.266345286e-05
7.938160039e-05
7.619006962e-05
7.309642847e-05
7.009282941e-05
6.72117361e-05
6.440406016e-05
6.170374756e-05
5.911639386e-05
5.66141789e-05
5.41900561e-05
5.183000839e-05
4.948038512e-05
4.71399696e-05
4.487739433e-05
4.270353706e-05
4.060135843e-05
3.851193689e-05
3.644879733e-05
3.442566759e-05
3.243665712e-05