/*--------------------------------*- C++ -*----------------------------------*\
| =========                 |                                                 |
| \\      /  F ield         | OpenFOAM: The Open Source CFD Toolbox           |
|  \\    /   O peration     | Version:  2.3.1                                 |
|   \\  /    A nd           | Web:      www.OpenFOAM.org                      |
|    \\/     M anipulation  |                                                 |
\*---------------------------------------------------------------------------*/
FoamFile
{
    version     2.0;
    format      ascii;
    class       dictionary;
    location    "constant";
    object      PM46;
}
// * * * * * * * * * * * * * * * * * * * * * * * * * * * * * * * * * * * * * //

PM46_table
101
(

101
(
-2.191174623e-16
-5.914354751e-11
-4.319815064e-10
-1.610590653e-09
-4.027288841e-09
-7.186527628e-09
-1.029755301e-08
-1.434603479e-08
-1.834230545e-08
-2.213860713e-08
-2.531613713e-08
-2.773037551e-08
-2.917571552e-08
-2.949700403e-08
-2.868617923e-08
-2.690588336e-08
-2.423233828e-08
-2.056817569e-08
-1.730930148e-08
-1.313249745e-08
-9.673354092e-09
-6.849634143e-09
-4.198071684e-09
-2.153271678e-09
-7.072439492e-10
2.548902344e-10
8.375697189e-10
1.142208445e-09
1.256344866e-09
1.25041281e-09
1.171564847e-09
1.060879719e-09
9.57198311e-10
7.820349343e-10
6.409763911e-10
5.114555451e-10
1.203372448e-10
-3.196391239e-10
-3.984211177e-11
2.020548655e-11
3.031033697e-11
3.689243053e-11
3.607904161e-11
3.41241165e-11
3.320484375e-11
3.006885459e-11
2.73256327e-11
2.352262077e-11
2.023920656e-11
1.681448193e-11
1.397459206e-11
1.143382745e-11
9.235140234e-12
7.32787565e-12
5.755850765e-12
4.520060746e-12
3.405623067e-12
2.631721455e-12
1.965735225e-12
1.470851173e-12
1.071847457e-12
7.776864077e-13
5.571857444e-13
3.901471752e-13
2.656371009e-13
1.801892554e-13
1.19793952e-13
7.773715547e-14
4.883639765e-14
3.012952519e-14
1.801862042e-14
1.052019597e-14
5.922737087e-15
3.187869377e-15
1.545675185e-15
7.495469075e-16
3.968400395e-16
1.936306709e-16
9.029459008e-17
4.044949282e-17
1.750489462e-17
7.016222781e-18
2.770396319e-18
9.806983546e-19
3.63084614e-19
1.626778623e-19
7.360802937e-20
3.083626721e-20
1.185319089e-20
4.158523407e-21
1.686457911e-21
6.745062148e-22
2.41239314e-22
7.811217495e-23
2.730247712e-23
8.067906011e-24
5.76802384e-25
1.110036654e-24
2.3094829e-24
9.38063527e-24
4.474564367e-23
)


101
(
-2.191178024e-16
-5.331022613e-11
-3.898707466e-10
-1.399709635e-09
-3.333444631e-09
-5.750108354e-09
-8.044233068e-09
-1.082841e-08
-1.338687226e-08
-1.562728274e-08
-1.726558648e-08
-1.824308602e-08
-1.843835378e-08
-1.780838181e-08
-1.636769281e-08
-1.427341095e-08
-1.164241677e-08
-8.502434196e-09
-5.688777051e-09
-2.59467919e-09
-1.03919752e-10
1.786324911e-09
3.303067322e-09
4.277016311e-09
4.75842302e-09
4.856754307e-09
4.67849126e-09
4.323943944e-09
3.871738965e-09
3.388070482e-09
2.912101005e-09
2.473353849e-09
2.093426926e-09
1.709538222e-09
1.38868987e-09
1.115384141e-09
7.140822702e-10
3.118514521e-10
4.004651434e-10
3.838191834e-10
3.282464178e-10
2.737283336e-10
2.239513681e-10
1.827919962e-10
1.500836728e-10
1.223718153e-10
9.997699504e-11
8.089000013e-11
6.536039735e-11
5.235983202e-11
4.185170269e-11
3.326501167e-11
2.631149012e-11
2.06833941e-11
1.614351445e-11
1.252569177e-11
9.571516901e-12
7.319191294e-12
5.529255438e-12
4.153085272e-12
3.084601623e-12
2.27245589e-12
1.655978565e-12
1.191871156e-12
8.457881825e-13
5.936037228e-13
4.101822035e-13
2.787240474e-13
1.861467887e-13
1.218470858e-13
7.809515637e-14
4.887588785e-14
3.004606293e-14
1.795985534e-14
1.033936422e-14
5.811575934e-15
3.205763043e-15
1.712203745e-15
8.879545185e-16
4.439946647e-16
2.142324514e-16
9.837461842e-17
4.35802181e-17
1.821211375e-17
7.239810543e-18
2.801686929e-18
1.121366609e-18
4.767849382e-19
1.89747095e-19
7.352089848e-20
2.937155311e-20
1.167856423e-20
5.00847468e-21
1.986615491e-21
8.384187166e-22
3.249342821e-22
4.85603117e-23
1.548680947e-22
4.583448002e-22
2.392943838e-21
-3.742572691e-19
)


101
(
-2.191180724e-16
-4.407177684e-11
-3.265804634e-10
-1.0999801e-09
-2.38670431e-09
-3.851111895e-09
-5.147784207e-09
-6.416367701e-09
-7.299002931e-09
-7.762754341e-09
-7.678247757e-09
-7.070140502e-09
-5.90661166e-09
-4.250610194e-09
-2.140767959e-09
2.906127195e-10
2.890267384e-09
5.494469679e-09
7.867504308e-09
9.877099769e-09
1.137869262e-08
1.232694042e-08
1.269190244e-08
1.254034063e-08
1.19818156e-08
1.112528225e-08
1.007750481e-08
8.939923721e-09
7.790884276e-09
6.693831139e-09
5.688034668e-09
4.796422087e-09
4.02397813e-09
3.33903585e-09
2.744196e-09
2.226033172e-09
1.76506228e-09
1.350003479e-09
1.155344262e-09
1.014520451e-09
8.626228975e-10
7.159657667e-10
5.874035352e-10
4.795710228e-10
3.912056255e-10
3.191610515e-10
2.603245934e-10
2.120028852e-10
1.722212207e-10
1.395229023e-10
1.126592582e-10
9.07008821e-11
7.282156434e-11
5.828744276e-11
4.644919106e-11
3.684741037e-11
2.901528246e-11
2.272592895e-11
1.770645782e-11
1.370498265e-11
1.054614161e-11
8.061528639e-12
6.114332306e-12
4.600217112e-12
3.429043088e-12
2.528721165e-12
1.844261491e-12
1.327209433e-12
9.454417842e-13
6.640068944e-13
4.587343148e-13
3.110306383e-13
2.078043254e-13
1.362520768e-13
8.726756538e-14
5.456104917e-14
3.324934351e-14
1.9749991e-14
1.145345448e-14
6.481378144e-15
3.571677384e-15
1.890285059e-15
9.672631671e-16
4.74789912e-16
2.215619795e-16
9.8122846e-17
4.141728673e-17
1.789221485e-17
7.596117471e-18
2.986448276e-18
1.121663447e-18
4.386773264e-19
1.828919245e-19
7.539364974e-20
3.26187672e-20
1.281309558e-20
1.902628059e-21
1.243075925e-20
5.374471656e-20
4.206169332e-19
2.348224235e-18
)


101
(
-2.191183006e-16
-3.837540877e-11
-2.927728763e-10
-9.674500406e-10
-2.028708844e-09
-3.218447254e-09
-4.290235732e-09
-5.253019077e-09
-5.855694508e-09
-6.063716909e-09
-5.768461836e-09
-4.985321421e-09
-3.684523711e-09
-1.923208056e-09
2.710196453e-10
2.786962118e-09
5.476440561e-09
8.167331582e-09
1.067586295e-08
1.280888107e-08
1.444064147e-08
1.551418841e-08
1.597650999e-08
1.5864961e-08
1.528602205e-08
1.43533693e-08
1.317595795e-08
1.186172018e-08
1.050356566e-08
9.174023188e-09
7.925178298e-09
6.796109623e-09
5.796821739e-09
4.919011378e-09
4.142088056e-09
3.456387652e-09
2.836460287e-09
2.293766158e-09
1.924343678e-09
1.665936882e-09
1.438618035e-09
1.224155632e-09
1.029929352e-09
8.604929907e-10
7.168405643e-10
5.972642726e-10
4.976220796e-10
4.146126868e-10
3.448731563e-10
2.864684913e-10
2.373020084e-10
1.960995976e-10
1.61700636e-10
1.330769594e-10
1.09209313e-10
8.929823941e-11
7.274579632e-11
5.896174485e-11
4.760168181e-11
3.819725112e-11
3.051188389e-11
2.426207266e-11
1.918276129e-11
1.50840981e-11
1.178246842e-11
9.116278842e-12
6.990899454e-12
5.310171164e-12
3.999348395e-12
2.984570673e-12
2.194994318e-12
1.591891099e-12
1.139054355e-12
8.044514267e-13
5.586819036e-13
3.807050736e-13
2.534106677e-13
1.654040049e-13
1.056541003e-13
6.60953766e-14
4.053323954e-14
2.410252738e-14
1.391880485e-14
7.805238722e-15
4.209401001e-15
2.168710015e-15
1.060387088e-15
5.070494423e-16
2.412014864e-16
1.097042406e-16
4.554675539e-17
1.847207207e-17
7.390407778e-18
2.97747135e-18
1.264158756e-18
4.738421851e-19
8.690983524e-20
1.026068221e-18
4.661214501e-18
3.48182397e-17
1.1835916e-16
)


101
(
-2.191184801e-16
-3.433459089e-11
-2.71169184e-10
-8.971398694e-10
-1.86799058e-09
-2.963970872e-09
-3.969293329e-09
-4.847763157e-09
-5.378346723e-09
-5.513348842e-09
-5.145217869e-09
-4.277560756e-09
-2.880090018e-09
-1.002502191e-09
1.329441384e-09
4.016938515e-09
6.914929243e-09
9.85024704e-09
1.263929244e-08
1.508196368e-08
1.702146241e-08
1.838616005e-08
1.911664353e-08
1.920849335e-08
1.875303206e-08
1.786475422e-08
1.665523075e-08
1.523945098e-08
1.372460172e-08
1.219519016e-08
1.071837304e-08
9.343572431e-09
8.098734835e-09
7.001705905e-09
6.019613573e-09
5.157133791e-09
4.337028425e-09
3.620432389e-09
3.063645968e-09
2.645718604e-09
2.304393917e-09
1.99755919e-09
1.71859282e-09
1.468780876e-09
1.249775929e-09
1.062357815e-09
9.029911984e-10
7.683094253e-10
6.53554169e-10
5.556104408e-10
4.713982139e-10
3.990852693e-10
3.372425464e-10
2.846625068e-10
2.399164628e-10
2.016140951e-10
1.690281349e-10
1.411708298e-10
1.176158279e-10
9.748714751e-11
8.043061916e-11
6.616995645e-11
5.417563706e-11
4.418992576e-11
3.589654335e-11
2.895465617e-11
2.317666612e-11
1.840498305e-11
1.449541157e-11
1.136234099e-11
8.80695811e-12
6.749034417e-12
5.108357354e-12
3.825161168e-12
2.828315299e-12
2.062207287e-12
1.479423807e-12
1.042799437e-12
7.195835389e-13
4.880705175e-13
3.254611868e-13
2.134291521e-13
1.359866923e-13
8.478064091e-14
5.132130567e-14
3.008368798e-14
1.680187757e-14
9.107170986e-15
4.831947833e-15
2.525890171e-15
1.226900913e-15
5.701559996e-16
2.608554054e-16
1.128537408e-16
5.047615857e-17
1.958176836e-17
4.380595702e-18
4.633140048e-17
2.087558251e-16
1.792193282e-15
5.741057094e-15
)


101
(
-2.191186775e-16
-3.110747087e-11
-2.547799215e-10
-8.503536505e-10
-1.774102942e-09
-2.824205978e-09
-3.79373783e-09
-4.627455909e-09
-5.11560479e-09
-5.198733127e-09
-4.768578771e-09
-3.819632776e-09
-2.322000222e-09
-3.174812181e-10
2.168005463e-09
5.047466668e-09
8.182787514e-09
1.140127423e-08
1.451567646e-08
1.732661601e-08
1.96451468e-08
2.137972722e-08
2.246564635e-08
2.285745418e-08
2.262034516e-08
2.186478516e-08
2.070099429e-08
1.924656152e-08
1.762111682e-08
1.592201097e-08
1.42330556e-08
1.261114685e-08
1.110297327e-08
9.756995043e-09
8.536243602e-09
7.442781292e-09
6.422491913e-09
5.49563825e-09
4.719768823e-09
4.103732383e-09
3.602786238e-09
3.166504233e-09
2.774683277e-09
2.419834831e-09
2.100706449e-09
1.819937252e-09
1.575684868e-09
1.366226415e-09
1.185657909e-09
1.029079717e-09
8.922469593e-10
7.72107512e-10
6.669726127e-10
5.756073409e-10
4.965827019e-10
4.275649082e-10
3.673671393e-10
3.147691714e-10
2.691578576e-10
2.293249953e-10
1.947082997e-10
1.649059497e-10
1.391432247e-10
1.169817899e-10
9.808266331e-11
8.187734713e-11
6.792983358e-11
5.59845303e-11
4.580258263e-11
3.728045089e-11
3.014782585e-11
2.418169587e-11
1.920408616e-11
1.509984705e-11
1.174768532e-11
9.040526026e-12
6.883901014e-12
5.165376001e-12
3.808407477e-12
2.763540032e-12
1.974885812e-12
1.395874603e-12
9.65419542e-13
6.545529985e-13
4.352654912e-13
2.819929085e-13
1.764574351e-13
1.066831431e-13
6.327953883e-14
3.709591923e-14
2.066990678e-14
1.090600027e-14
5.742398443e-15
2.879740917e-15
1.4486551e-15
6.142170098e-16
1.661994857e-16
1.910352616e-15
7.727618217e-15
5.04965399e-14
1.302288923e-13
)


101
(
-2.191188357e-16
-2.831303678e-11
-2.407664471e-10
-8.128280407e-10
-1.703642087e-09
-2.720973772e-09
-3.661224367e-09
-4.459157775e-09
-4.912228063e-09
-4.950977127e-09
-4.465358002e-09
-3.441824916e-09
-1.849813778e-09
2.77790816e-10
2.916323923e-09
5.990377538e-09
9.372727487e-09
1.289388299e-08
1.636392863e-08
1.958672465e-08
2.234491353e-08
2.452207608e-08
2.604692854e-08
2.683596418e-08
2.691838986e-08
2.639492371e-08
2.537128271e-08
2.396115227e-08
2.229161793e-08
2.04718533e-08
1.860099418e-08
1.675133408e-08
1.497800572e-08
1.336438389e-08
1.188124572e-08
1.053219041e-08
9.275588314e-09
8.109410976e-09
7.083681211e-09
6.226954858e-09
5.516396378e-09
4.903315384e-09
4.360852728e-09
3.869369444e-09
3.420699716e-09
3.017121853e-09
2.657367213e-09
2.342724008e-09
2.068114992e-09
1.827391686e-09
1.614555696e-09
1.424382232e-09
1.254860233e-09
1.104493159e-09
9.719057922e-10
8.543946817e-10
7.502339033e-10
6.571638175e-10
5.745995088e-10
5.009440659e-10
4.355680988e-10
3.779227983e-10
3.270241624e-10
2.821980911e-10
2.429282865e-10
2.085512565e-10
1.782127554e-10
1.515711918e-10
1.281242936e-10
1.077360368e-10
9.019108656e-11
7.503506741e-11
6.197936956e-11
5.076306443e-11
4.121786911e-11
3.315262635e-11
2.646196187e-11
2.090556252e-11
1.630906864e-11
1.254091835e-11
9.501258151e-12
7.121202222e-12
5.271646044e-12
3.828484149e-12
2.742611007e-12
1.927110027e-12
1.320298356e-12
8.766267336e-13
5.728140096e-13
3.681020263e-13
2.307211552e-13
1.365479847e-13
8.073547498e-14
4.632997079e-14
2.60079843e-14
1.310585432e-14
4.485200296e-15
4.11234876e-14
1.491783156e-13
8.098012737e-13
1.955705203e-12
)


101
(
-2.191189773e-16
-2.577670382e-11
-2.279702066e-10
-7.793020883e-10
-1.642174263e-09
-2.630998372e-09
-3.544573439e-09
-4.311087088e-09
-4.734810698e-09
-4.736860807e-09
-4.203969499e-09
-3.114849072e-09
-1.436904736e-09
8.066851516e-10
3.594576079e-09
6.86259387e-09
1.049686523e-08
1.433501615e-08
1.818672808e-08
2.186101316e-08
2.511733284e-08
2.781016789e-08
2.985736821e-08
3.114509077e-08
3.165770589e-08
3.147857435e-08
3.070725734e-08
2.94480005e-08
2.782705861e-08
2.596112912e-08
2.396420936e-08
2.192467958e-08
1.990592122e-08
1.802339244e-08
1.626296255e-08
1.463800276e-08
1.311593272e-08
1.168265715e-08
1.037932013e-08
9.242760066e-09
8.272560855e-09
7.43129791e-09
6.691293959e-09
6.022793961e-09
5.408809286e-09
4.848698281e-09
4.339117827e-09
3.883793672e-09
3.480621662e-09
3.123260394e-09
2.803335784e-09
2.514796506e-09
2.254088914e-09
2.017904706e-09
1.806192792e-09
1.616461683e-09
1.44567663e-09
1.290517464e-09
1.150594664e-09
1.023395571e-09
9.081948966e-10
8.044785016e-10
7.10784406e-10
6.268956169e-10
5.518837043e-10
4.851261808e-10
4.252458033e-10
3.713421555e-10
3.226812389e-10
2.788342512e-10
2.400849589e-10
2.057290762e-10
1.756229789e-10
1.489802401e-10
1.253860163e-10
1.046943415e-10
8.684052817e-11
7.150387298e-11
5.83548885e-11
4.705445703e-11
3.74994607e-11
2.954756354e-11
2.311495121e-11
1.779486221e-11
1.354939394e-11
1.013804793e-11
7.487918191e-12
5.372922348e-12
3.804428573e-12
2.651822949e-12
1.810805365e-12
1.185614739e-12
7.754443928e-13
4.977132651e-13
3.100421551e-13
1.823056325e-13
7.677058634e-14
5.356692494e-13
1.734863174e-12
7.839742453e-12
1.976397136e-11
)


101
(
-2.191190628e-16
-2.3417068e-11
-2.159139761e-10
-7.478273948e-10
-1.584880266e-09
-2.547284013e-09
-3.436359938e-09
-4.175130253e-09
-4.575252342e-09
-4.548522787e-09
-3.976974396e-09
-2.831369457e-09
-1.076260499e-09
1.27577553e-09
4.208320349e-09
7.668617532e-09
1.155765373e-08
1.572374404e-08
1.997943811e-08
2.414137296e-08
2.795221248e-08
3.123484219e-08
3.388826745e-08
3.578139838e-08
3.684692767e-08
3.714056698e-08
3.675125608e-08
3.577006463e-08
3.431470869e-08
3.250246009e-08
3.045931556e-08
2.829115736e-08
2.607125708e-08
2.394234146e-08
2.190421562e-08
1.99922411e-08
1.818721019e-08
1.646881239e-08
1.486902321e-08
1.342299373e-08
1.214777362e-08
1.102349042e-08
1.003293407e-08
9.140240252e-09
8.319527568e-09
7.565133506e-09
6.868703832e-09
6.235243734e-09
5.663789823e-09
5.150498065e-09
4.686655181e-09
4.266215606e-09
3.88194954e-09
3.528431936e-09
3.20600992e-09
2.912333448e-09
2.645744318e-09
2.399594678e-09
2.175463388e-09
1.96918606e-09
1.778820651e-09
1.604564706e-09
1.443960658e-09
1.297449079e-09
1.164067328e-09
1.043252064e-09
9.337440032e-10
8.333175329e-10
7.410447687e-10
6.560557741e-10
5.788372484e-10
5.088261007e-10
4.457517933e-10
3.889310112e-10
3.374323064e-10
2.909027868e-10
2.49138051e-10
2.121760315e-10
1.797136945e-10
1.507489869e-10
1.251317725e-10
1.030094463e-10
8.421061101e-11
6.82000221e-11
5.454217494e-11
4.301709269e-11
3.371636503e-11
2.582910726e-11
1.95295699e-11
1.458366215e-11
1.068832306e-11
7.637315353e-12
5.413112465e-12
3.798435523e-12
2.583049025e-12
1.675136246e-12
8.704431026e-13
4.66334688e-12
1.341127729e-11
4.949940139e-11
1.273231102e-10
)


101
(
-2.19119175e-16
-2.119477613e-11
-2.043993691e-10
-7.176740329e-10
-1.530109196e-09
-2.467619092e-09
-3.334381085e-09
-4.048944711e-09
-4.430711128e-09
-4.382637716e-09
-3.781033436e-09
-2.588250795e-09
-7.651214408e-10
1.687130694e-09
4.758604453e-09
8.408158081e-09
1.255249601e-08
1.705414241e-08
2.173179107e-08
2.64125923e-08
3.083034698e-08
3.477832e-08
3.812842592e-08
4.073706044e-08
4.248953556e-08
4.340157454e-08
4.354169065e-08
4.298455994e-08
4.183439925e-08
4.020252556e-08
3.821981119e-08
3.6007069e-08
3.365220085e-08
3.132781362e-08
2.903729328e-08
2.684690313e-08
2.475973309e-08
2.275384175e-08
2.084943191e-08
1.907685905e-08
1.746314506e-08
1.600543679e-08
1.471175219e-08
1.354554377e-08
1.24743461e-08
1.148676743e-08
1.05649303e-08
9.712906739e-09
8.929089937e-09
8.216089759e-09
7.5670202e-09
6.975918998e-09
6.431732732e-09
5.92641463e-09
5.455167891e-09
5.020561546e-09
4.623432509e-09
4.252385338e-09
3.910812909e-09
3.593611807e-09
3.296595108e-09
3.020100382e-09
2.762510967e-09
2.522761524e-09
2.300109115e-09
2.094401703e-09
1.906942248e-09
1.733273834e-09
1.572212098e-09
1.421141666e-09
1.280350329e-09
1.149769588e-09
1.029764715e-09
9.197437373e-10
8.183812607e-10
7.242530341e-10
6.373715782e-10
5.584651781e-10
4.872509046e-10
4.22299655e-10
3.628160721e-10
3.09693762e-10
2.626059005e-10
2.214874917e-10
1.847950737e-10
1.521457605e-10
1.247664841e-10
1.008449373e-10
8.045008907e-11
6.371210717e-11
4.950487905e-11
3.787181131e-11
2.873265926e-11
2.165101127e-11
1.595250676e-11
1.120184082e-11
6.669425006e-12
2.91044399e-11
7.501191428e-11
2.24799905e-10
4.535340909e-10
)


101
(
-2.191028821e-16
-1.909058851e-11
-1.933396728e-10
-6.885573742e-10
-1.477260629e-09
-2.391202238e-09
-3.237772506e-09
-3.931508779e-09
-4.299534516e-09
-4.23671718e-09
-3.613518264e-09
-2.382985129e-09
-5.01481418e-10
2.041967072e-09
5.245473469e-09
9.079787497e-09
1.347714671e-08
1.831789931e-08
2.343088989e-08
2.865646396e-08
3.372756499e-08
3.841479687e-08
4.256013674e-08
4.59958775e-08
4.857797108e-08
5.026804827e-08
5.110004951e-08
5.11311983e-08
5.045042692e-08
4.915650167e-08
4.737549264e-08
4.523483092e-08
4.283788848e-08
4.039976789e-08
3.791684845e-08
3.548352609e-08
3.313256586e-08
3.085031347e-08
2.864756202e-08
2.654903135e-08
2.4585001e-08
2.276331315e-08
2.112175933e-08
1.963605369e-08
1.827158022e-08
1.701233169e-08
1.582686521e-08
1.471542546e-08
1.367646493e-08
1.271946772e-08
1.183928344e-08
1.103241039e-08
1.028765118e-08
9.591304925e-09
8.932492102e-09
8.32149627e-09
7.75273278e-09
7.218684344e-09
6.71966794e-09
6.254728513e-09
5.815744856e-09
5.400545354e-09
5.009101352e-09
4.638991579e-09
4.290764691e-09
3.962991636e-09
3.658710902e-09
3.376727497e-09
3.113409691e-09
2.863737867e-09
2.627022914e-09
2.40264547e-09
2.192587032e-09
1.996566921e-09
1.813411639e-09
1.640288448e-09
1.477422447e-09
1.326071919e-09
1.184942191e-09
1.054490835e-09
9.327105726e-10
8.199543146e-10
7.170800248e-10
6.247232478e-10
5.398206609e-10
4.608191794e-10
3.917093981e-10
3.306684375e-10
2.761519199e-10
2.285507833e-10
1.865657789e-10
1.508356723e-10
1.208579382e-10
9.63199145e-11
7.578420716e-11
5.728715098e-11
3.867617621e-11
1.343541101e-10
3.117753838e-10
7.987156673e-10
1.505508676e-09
)


101
(
-2.190450612e-16
-1.709447385e-11
-1.82694251e-10
-6.603554443e-10
-1.426088407e-09
-2.317676897e-09
-3.146057787e-09
-3.822098358e-09
-4.180499579e-09
-4.109001941e-09
-3.472522834e-09
-2.213428273e-09
-2.834080467e-10
2.341564909e-09
5.669147614e-09
9.682283703e-09
1.43284272e-08
1.950791428e-08
2.506548106e-08
3.085705531e-08
3.661881075e-08
4.210968717e-08
4.714284383e-08
5.151334192e-08
5.505985862e-08
5.76899145e-08
5.939378226e-08
6.020362293e-08
6.018918872e-08
5.942799997e-08
5.803261597e-08
5.612887267e-08
5.382922921e-08
5.139481274e-08
4.881545318e-08
4.620809905e-08
4.363582201e-08
4.110418644e-08
3.862783001e-08
3.623056971e-08
3.393138186e-08
3.174064386e-08
2.972349072e-08
2.787974953e-08
2.618086695e-08
2.461275678e-08
2.313206542e-08
2.173063378e-08
2.04017646e-08
1.916106809e-08
1.800514876e-08
1.693631119e-08
1.59469799e-08
1.501932665e-08
1.413909733e-08
1.331139921e-08
1.253108903e-08
1.179036063e-08
1.109230091e-08
1.043771812e-08
9.818256112e-09
9.226449572e-09
8.662014456e-09
8.121408888e-09
7.605489526e-09
7.116366873e-09
6.651282918e-09
6.216080834e-09
5.808625497e-09
5.419872481e-09
5.048756007e-09
4.691691688e-09
4.34904961e-09
4.023921359e-09
3.716620391e-09
3.424484382e-09
3.144893617e-09
2.878743162e-09
2.626406669e-09
2.387788134e-09
2.16124833e-09
1.946768628e-09
1.746069957e-09
1.560420583e-09
1.387998332e-09
1.222529296e-09
1.069714527e-09
9.330702205e-10
8.082629213e-10
6.935955229e-10
5.890198082e-10
4.976528644e-10
4.172405804e-10
3.474597747e-10
2.875224138e-10
2.306989703e-10
1.717411457e-10
4.961838903e-10
1.043726573e-09
2.313546286e-09
3.967464336e-09
)


101
(
-2.190037021e-16
-1.519999326e-11
-1.724425364e-10
-6.330082034e-10
-1.376463322e-09
-2.246819724e-09
-3.058920329e-09
-3.720202049e-09
-4.072315765e-09
-3.997610431e-09
-3.356538309e-09
-2.077812605e-09
-1.093665958e-10
2.586150056e-09
6.028184306e-09
1.021250628e-08
1.510310701e-08
2.062016655e-08
2.662786176e-08
3.300061554e-08
3.947629299e-08
4.581660391e-08
5.181241026e-08
5.72214748e-08
6.186126742e-08
6.559216027e-08
6.836173721e-08
7.01660973e-08
7.10482027e-08
7.105294934e-08
7.027033139e-08
6.88189018e-08
6.681218307e-08
6.454694161e-08
6.200811306e-08
5.933410144e-08
5.661685676e-08
5.389059105e-08
5.119020098e-08
4.85492812e-08
4.596277194e-08
4.343100859e-08
4.104029713e-08
3.881724266e-08
3.675070174e-08
3.484101827e-08
3.304128731e-08
3.133245121e-08
2.969442892e-08
2.814617277e-08
2.667833319e-08
2.530565075e-08
2.403269543e-08
2.283693605e-08
2.170046967e-08
2.061496915e-08
1.95925999e-08
1.860642731e-08
1.767311653e-08
1.678624617e-08
1.594799855e-08
1.514041757e-08
1.436358718e-08
1.361402558e-08
1.289187432e-08
1.219781761e-08
1.152746588e-08
1.089080012e-08
1.028713408e-08
9.71396775e-09
9.16410817e-09
8.632273511e-09
8.111024173e-09
7.60654777e-09
7.122375953e-09
6.658811196e-09
6.21295545e-09
5.783106148e-09
5.366175288e-09
4.96546976e-09
4.577789529e-09
4.206267682e-09
3.84932597e-09
3.510528243e-09
3.194056159e-09
2.886330847e-09
2.587573746e-09
2.313954353e-09
2.060835105e-09
1.823191734e-09
1.597239416e-09
1.395517601e-09
1.211150734e-09
1.046472628e-09
8.992163364e-10
7.561123368e-10
6.056374702e-10
1.495770768e-09
2.879070843e-09
5.631605076e-09
9.09600996e-09
)


101
(
-2.190036845e-16
-1.340367958e-11
-1.625689416e-10
-6.064779366e-10
-1.328296895e-09
-2.178443644e-09
-2.976050946e-09
-3.625357985e-09
-3.973926494e-09
-3.900716288e-09
-3.264074027e-09
-1.974463442e-09
2.2165691e-11
2.775946393e-09
6.321022022e-09
1.066677437e-08
1.579662409e-08
2.165013287e-08
2.811012569e-08
3.507624415e-08
4.227808568e-08
4.949590376e-08
5.651014329e-08
6.305515559e-08
6.892173982e-08
7.391949404e-08
7.79519499e-08
8.097295808e-08
8.299497393e-08
8.402622182e-08
8.412458185e-08
8.338731631e-08
8.191768041e-08
8.004141605e-08
7.773306389e-08
7.515169683e-08
7.241657365e-08
6.959648211e-08
6.676030794e-08
6.395766977e-08
6.116724758e-08
5.836680582e-08
5.565154284e-08
5.306398482e-08
5.061946205e-08
4.834978825e-08
4.621497634e-08
4.41898602e-08
4.224070739e-08
4.037749084e-08
3.858121271e-08
3.688038374e-08
3.529716888e-08
3.38046537e-08
3.238562599e-08
3.102306486e-08
2.973358725e-08
2.848086787e-08
2.727767388e-08
2.612454321e-08
2.503396119e-08
2.397866319e-08
2.295128552e-08
2.195936112e-08
2.100105571e-08
2.006085492e-08
1.91472561e-08
1.825909321e-08
1.741200977e-08
1.660412002e-08
1.5825276e-08
1.507236058e-08
1.432883746e-08
1.359616056e-08
1.287774632e-08
1.217834013e-08
1.150776373e-08
1.085533704e-08
1.02139775e-08
9.588940782e-09
8.970372226e-09
8.370125215e-09
7.786265599e-09
7.21876756e-09
6.676543361e-09
6.152149106e-09
5.631791984e-09
5.133605934e-09
4.66902492e-09
4.230943556e-09
3.796838314e-09
3.40580254e-09
3.029062813e-09
2.692547779e-09
2.38207667e-09
2.075888175e-09
1.744353906e-09
3.760868581e-09
6.681895759e-09
1.182546149e-08
1.884858926e-08
)


101
(
-2.190036571e-16
-1.170331762e-11
-1.530594719e-10
-5.807370075e-10
-1.28151964e-09
-2.112390874e-09
-2.897118461e-09
-3.537078969e-09
-3.884616759e-09
-3.816941071e-09
-3.192911621e-09
-1.902008454e-09
1.128065191e-10
2.912622254e-09
6.548603266e-09
1.104409672e-08
1.640318326e-08
2.258655472e-08
2.949352964e-08
3.705135879e-08
4.498615862e-08
5.310409451e-08
6.118835282e-08
6.895452009e-08
7.617394285e-08
8.26066136e-08
8.810118199e-08
9.256114437e-08
9.596855609e-08
9.830246672e-08
9.958805561e-08
9.98776792e-08
9.923622953e-08
9.802360882e-08
9.619590266e-08
9.393021526e-08
9.136742521e-08
8.861025856e-08
8.577258728e-08
8.292703157e-08
8.005768445e-08
7.710657145e-08
7.416725163e-08
7.12864061e-08
6.850317052e-08
6.588724411e-08
6.341801703e-08
6.108585044e-08
5.883854304e-08
5.667106805e-08
5.456422243e-08
5.254310898e-08
5.063931745e-08
4.884085754e-08
4.713404458e-08
4.549449605e-08
4.39298153e-08
4.240727431e-08
4.092061269e-08
3.948200348e-08
3.810636079e-08
3.678448616e-08
3.548713869e-08
3.423520182e-08
3.301634614e-08
3.180572426e-08
3.06173864e-08
2.944473453e-08
2.831759306e-08
2.722388405e-08
2.616518663e-08
2.514245685e-08
2.413115471e-08
2.31300743e-08
2.212839663e-08
2.112466349e-08
2.015208835e-08
1.920188476e-08
1.82761862e-08
1.735388009e-08
1.642720018e-08
1.551338265e-08
1.461108363e-08
1.372627048e-08
1.286200576e-08
1.201740785e-08
1.117849863e-08
1.034799791e-08
9.554823415e-09
8.809815952e-09
8.050926339e-09
7.361339298e-09
6.675844658e-09
6.052671714e-09
5.475476454e-09
4.891151318e-09
4.243598566e-09
8.181130437e-09
1.354740968e-08
2.209873709e-08
3.176818277e-08
)


101
(
-2.19003865e-16
-1.00962292e-11
-1.438975448e-10
-5.557622257e-10
-1.236069298e-09
-2.048514798e-09
-2.821811614e-09
-3.454916524e-09
-3.803731403e-09
-3.745039979e-09
-3.140550218e-09
-1.859352881e-09
1.637326014e-10
2.998112232e-09
6.712637318e-09
1.134506349e-08
1.691765844e-08
2.341482044e-08
3.075317965e-08
3.887874138e-08
4.754813783e-08
5.658529082e-08
6.579272873e-08
7.485404801e-08
8.353841548e-08
9.156920723e-08
9.872295434e-08
1.048465972e-07
1.098936247e-07
1.138182374e-07
1.166134981e-07
1.182777277e-07
1.188114671e-07
1.185960684e-07
1.175649189e-07
1.159101946e-07
1.137835437e-07
1.113117895e-07
1.086617322e-07
1.059459687e-07
1.031571182e-07
1.002169814e-07
9.721656852e-08
9.418122959e-08
9.115893503e-08
8.826224716e-08
8.550552373e-08
8.291250361e-08
8.040370851e-08
7.79772329e-08
7.561526801e-08
7.332199655e-08
7.112062568e-08
6.904040763e-08
6.705965118e-08
6.515052787e-08
6.333740374e-08
6.156958786e-08
5.982288317e-08
5.810344815e-08
5.644218568e-08
5.484886661e-08
5.329311891e-08
5.178664453e-08
5.029109578e-08
4.882245475e-08
4.734940063e-08
4.587688485e-08
4.443485591e-08
4.30162114e-08
4.164200383e-08
4.030066679e-08
3.897858341e-08
3.766947529e-08
3.634671413e-08
3.498649477e-08
3.361571725e-08
3.228741753e-08
3.098630316e-08
2.968752053e-08
2.837803801e-08
2.705183269e-08
2.570938e-08
2.43953732e-08
2.308856901e-08
2.179607457e-08
2.050417598e-08
1.921110268e-08
1.79300969e-08
1.672739027e-08
1.550079376e-08
1.435032671e-08
1.321631812e-08
1.214505205e-08
1.115819327e-08
1.014639738e-08
9.023269791e-09
1.583786608e-08
2.467690234e-08
3.784670678e-08
5.217981503e-08
)


101
(
-2.190039013e-16
-8.578758736e-12
-1.351344048e-10
-5.315309194e-10
-1.191884295e-09
-1.986659358e-09
-2.749819169e-09
-3.378426918e-09
-3.730911268e-09
-3.684167008e-09
-3.104911301e-09
-1.84485412e-09
1.760739588e-10
3.033642064e-09
6.813506162e-09
1.156903186e-08
1.733655345e-08
2.412611053e-08
3.187564939e-08
4.053154857e-08
4.992991947e-08
5.989474024e-08
7.02623979e-08
8.067621599e-08
9.091176743e-08
1.006806645e-07
1.096843558e-07
1.177046478e-07
1.246630114e-07
1.304836367e-07
1.351156328e-07
1.385123303e-07
1.406148887e-07
1.417892027e-07
1.419404741e-07
1.412728637e-07
1.399340529e-07
1.380539984e-07
1.358435668e-07
1.334766923e-07
1.309740814e-07
1.282621558e-07
1.254208498e-07
1.224406104e-07
1.193575691e-07
1.163223617e-07
1.133898716e-07
1.10624635e-07
1.079469882e-07
1.053594037e-07
1.028337454e-07
1.003641195e-07
9.79520899e-08
9.565628539e-08
9.346304143e-08
9.133377763e-08
8.932912466e-08
8.737022488e-08
8.543429101e-08
8.349168437e-08
8.159211825e-08
7.975046824e-08
7.797723502e-08
7.62465022e-08
7.450696911e-08
7.281243511e-08
7.10732051e-08
6.931283782e-08
6.754983453e-08
6.581036988e-08
6.409904787e-08
6.23961451e-08
6.07226192e-08
5.905783257e-08
5.736902677e-08
5.562124978e-08
5.380707579e-08
5.198455649e-08
5.01842805e-08
4.841072509e-08
4.662836086e-08
4.476413499e-08
4.285295292e-08
4.095165423e-08
3.904033024e-08
3.712862961e-08
3.519279315e-08
3.326096951e-08
3.128618684e-08
2.941317866e-08
2.753856764e-08
2.56945609e-08
2.39104341e-08
2.218600301e-08
2.057547921e-08
1.894344763e-08
1.713748661e-08
2.791335707e-08
4.137752875e-08
6.082229225e-08
8.358693778e-08
)


101
(
-2.190037669e-16
-7.146713317e-12
-1.267111889e-10
-5.080236342e-10
-1.148910191e-09
-1.926683361e-09
-2.680847223e-09
-3.307153003e-09
-3.666231006e-09
-3.634638214e-09
-3.084147518e-09
-1.856011016e-09
1.518845176e-10
3.019617616e-09
6.847868627e-09
1.170747345e-08
1.76477114e-08
2.470575682e-08
3.284728178e-08
4.20131989e-08
5.21256219e-08
6.301185664e-08
7.453866056e-08
8.634098831e-08
9.81854635e-08
1.098002035e-07
1.208296233e-07
1.309783398e-07
1.401260811e-07
1.481556835e-07
1.549604173e-07
1.60458075e-07
1.645518671e-07
1.675586793e-07
1.693377144e-07
1.70101212e-07
1.699841763e-07
1.690960814e-07
1.676707794e-07
1.659503366e-07
1.640080298e-07
1.617870291e-07
1.593776736e-07
1.567416623e-07
1.538763218e-07
1.509415648e-07
1.480179462e-07
1.452326744e-07
1.425605079e-07
1.399802109e-07
1.374448151e-07
1.349488677e-07
1.324790952e-07
1.300948764e-07
1.278149651e-07
1.256106851e-07
1.235298163e-07
1.214826327e-07
1.194921509e-07
1.174728562e-07
1.154160792e-07
1.134205726e-07
1.114975965e-07
1.096080872e-07
1.077162652e-07
1.058444439e-07
1.039107011e-07
1.019250559e-07
9.989345189e-08
9.786492926e-08
9.579790423e-08
9.373435927e-08
9.168677508e-08
8.962328078e-08
8.752877473e-08
8.536820849e-08
8.306315251e-08
8.063927339e-08
7.821503594e-08
7.581899619e-08
7.34094361e-08
7.087056457e-08
6.823002929e-08
6.554222352e-08
6.278589174e-08
6.004239311e-08
5.720462087e-08
5.437062222e-08
5.142776899e-08
4.858688873e-08
4.578408003e-08
4.295042269e-08
4.020130867e-08