/*--------------------------------*- C++ -*----------------------------------*\
| =========                 |                                                 |
| \\      /  F ield         | OpenFOAM: The Open Source CFD Toolbox           |
|  \\    /   O peration     | Version:  2.3.1                                 |
|   \\  /    A nd           | Web:      www.OpenFOAM.org                      |
|    \\/     M anipulation  |                                                 |
\*---------------------------------------------------------------------------*/
FoamFile
{
    version     2.0;
    format      ascii;
    class       dictionary;
    location    "constant";
    object      PM48;
}
// * * * * * * * * * * * * * * * * * * * * * * * * * * * * * * * * * * * * * //

PM48_table
101
(

101
(
-0.008372962991
-0.6811716691
-1.111176863
-1.510668624
-1.723207531
-1.775054813
-1.734305119
-1.65620426
-1.541110746
-1.411111256
-1.275001433
-1.138713441
-1.007523494
-0.8805191875
-0.7631013228
-0.6553781189
-0.5563658781
-0.4652697136
-0.3891437299
-0.314535976
-0.2544260456
-0.2026110493
-0.1542995763
-0.1145764651
-0.08171399363
-0.0541828879
-0.0313879246
-0.01284458707
0.00243023576
0.01449601392
0.0240333675
0.03132342162
0.03653349974
0.0416132298
0.04469994882
0.04691494307
0.04859507525
0.04963446893
0.04975569611
0.04977443413
0.04950425429
0.04897467002
0.04829932795
0.04748508569
0.04658847231
0.04560580671
0.04459000468
0.04351674601
0.04243751914
0.04132816749
0.04023732525
0.0391461425
0.03806691244
0.03700948646
0.03598105643
0.03497832868
0.03395126502
0.03301443739
0.03206083569
0.03116121898
0.03027452482
0.02942751095
0.02861398521
0.02782492745
0.02706922477
0.02634021064
0.02564623635
0.02498367731
0.02434156588
0.02373809383
0.0231604625
0.02261054072
0.02207822199
0.0215863212
0.02114997758
0.02070892281
0.02025209847
0.01984415622
0.01947907147
0.01914516095
0.01883841464
0.01854865239
0.01829358923
0.01807518048
0.01782938006
0.01761445298
0.01744036142
0.01729129395
0.0171672143
0.01708465236
0.0169543509
0.01686732006
0.01682127105
0.01675546183
0.01672033681
0.01661751293
0.01649054001
0.01645197354
0.01640715844
0.01633477219
0.01626097594
)


101
(
-0.008372963009
-0.6713188489
-1.100844917
-1.499428901
-1.712645386
-1.766470313
-1.727963797
-1.651745108
-1.538977884
-1.410961352
-1.276626112
-1.141881734
-1.011906621
-0.8860836454
-0.7693769729
-0.66217006
-0.5635786292
-0.4728116812
-0.3962077755
-0.3221408275
-0.2612721662
-0.2090214855
-0.1607312035
-0.1203976792
-0.08692388131
-0.0588742077
-0.03557048562
-0.0165144898
-0.0008074057537
0.01171724184
0.02165491464
0.02932228447
0.03490742326
0.04005395942
0.0434817374
0.04591980612
0.0477341318
0.04891921343
0.04926565833
0.04937147228
0.04919314412
0.04875348648
0.04814816002
0.04739799271
0.04655175801
0.04561808718
0.04463818365
0.04360366156
0.04255146742
0.04147176036
0.04039881946
0.03932594431
0.03826132781
0.03721377295
0.03619116998
0.0351933332
0.03418442664
0.03323871181
0.03229482614
0.03139200964
0.03050799159
0.02965796819
0.02884028543
0.02804849568
0.02728737555
0.02655361159
0.02585230561
0.02518189815
0.02453447522
0.02392120755
0.02333523712
0.02277710832
0.02223942651
0.02173610594
0.02128030342
0.02083395745
0.02038153973
0.01996209469
0.01958094295
0.01923296864
0.01891365722
0.01861446389
0.01834540154
0.0181110862
0.01786935807
0.01764481758
0.01745401193
0.01729271602
0.01715587891
0.01705287761
0.01693470371
0.01683377134
0.01676991792
0.01670731032
0.01665556916
0.016560845
0.01642830729
0.01638084508
0.01632686113
0.01624032632
0.01615278269
)


101
(
-0.008372963013
-0.6516478523
-1.080184883
-1.476922737
-1.691448144
-1.749173698
-1.715119469
-1.642648827
-1.534489858
-1.410441939
-1.279661178
-1.148019189
-1.020507705
-0.8970577544
-0.7818405141
-0.6757067747
-0.5779877485
-0.4879141992
-0.4104978823
-0.3373707092
-0.2752165853
-0.2220593399
-0.173729649
-0.1323108008
-0.09763422423
-0.06852927335
-0.04420395035
-0.02412238076
-0.007528429772
0.005913521767
0.0166734742
0.02511172365
0.03145702324
0.03683131721
0.04087193818
0.04379095541
0.04591764934
0.04740585357
0.04817259217
0.0484972695
0.0485125746
0.04825659145
0.04779905479
0.04718198531
0.04644430178
0.04561056804
0.04470900565
0.04375168298
0.04275877132
0.04173817255
0.04070669378
0.03967212342
0.03863943438
0.03761557136
0.03660845802
0.03562221444
0.03464322558
0.03369179751
0.03276201211
0.03185783769
0.03097808672
0.03012489119
0.02930086995
0.02850404499
0.02773434356
0.02699199472
0.02627807844
0.02559352477
0.02493499866
0.02430462555
0.02370228776
0.02312756669
0.02257725986
0.02205368832
0.021565207
0.02110314292
0.02065201773
0.02021602066
0.01980724873
0.0194310753
0.01908624229
0.01876679131
0.01847187734
0.01820668108
0.01796059591
0.01772323251
0.01750442414
0.0173165136
0.01715652619
0.01702074278
0.01690459368
0.01678989501
0.01669417765
0.0166247532
0.01655527147
0.01646092152
0.01631894943
0.01625923154
0.01619308828
0.01609166628
0.01598931998
)


101
(
-0.008372963017
-0.6320369385
-1.059521066
-1.454358565
-1.670112069
-1.731643393
-1.701984187
-1.633241229
-1.529603706
-1.409522978
-1.282295216
-1.153767328
-1.028763179
-0.9076815252
-0.7940543565
-0.6890516532
-0.5922388806
-0.5028961244
-0.4249378647
-0.3524630687
-0.289437787
-0.2353502974
-0.1867995169
-0.144529829
-0.1087271973
-0.07855412718
-0.05320946865
-0.03211664027
-0.01460944588
-0.0002638023129
0.01134002959
0.02056590421
0.0276739461
0.03345130247
0.03799485041
0.04139892327
0.04392160327
0.04573831551
0.04687402196
0.04748316499
0.04771616441
0.04765042803
0.04735361262
0.04687674228
0.04625872784
0.04552989401
0.04471677421
0.04383834461
0.04291244455
0.04195184195
0.04096990924
0.03997739117
0.03898110847
0.03798709246
0.03700234394
0.03603270284
0.03507509834
0.03413435059
0.03321415718
0.03231584386
0.03144042648
0.03058867666
0.02976258688
0.02896253498
0.02818798675
0.02743942624
0.02671690122
0.02602142083
0.02535219244
0.02470902933
0.02409246057
0.0235024438
0.02293788619
0.02239796744
0.02188654802
0.02140360389
0.02094215606
0.02049604365
0.02006845885
0.01966668453
0.01929600069
0.01895425981
0.01863683246
0.01834452503
0.01807742336
0.01782860491
0.01759272882
0.01737766773
0.01719374646
0.01703419979
0.01689665495
0.01677413809
0.01665956344
0.01656936766
0.01649242126
0.01638141954
0.0162228036
0.01616105501
0.01609336399
0.01599492354
0.01589586215
)


101
(
-0.008372962253
-0.6124905646
-1.038855921
-1.431737993
-1.648637811
-1.713880282
-1.688557793
-1.623521293
-1.524320855
-1.408200521
-1.284523749
-1.159120284
-1.036663702
-0.9179503017
-0.8060011816
-0.7021924416
-0.6063231705
-0.5177474949
-0.4394806366
-0.3674675645
-0.303862102
-0.2488986106
-0.1999868345
-0.1570104943
-0.1201859388
-0.08896015946
-0.06259927644
-0.04050710502
-0.02207302717
-0.00682963898
0.00562706829
0.01565661732
0.02353572108
0.02983635782
0.03486670405
0.03874179136
0.04169267232
0.04387029508
0.04536058339
0.04628119444
0.04676306689
0.04690484654
0.04678254244
0.04645528425
0.04596697386
0.04535149783
0.04463596581
0.04384243165
0.04298955523
0.0420930155
0.04116606206
0.04022062219
0.03926511188
0.03830573551
0.03734896798
0.03640151284
0.03546497343
0.03454088674
0.03363332175
0.03274446989
0.03187624172
0.03102902193
0.03020482263
0.02940453
0.02862796804
0.02787583692
0.02714800442
0.02644502789
0.02576739538
0.02511430101
0.02448642509
0.02388390501
0.02330649512
0.02275276855
0.02222400849
0.02172177532
0.02124479518
0.0207873479
0.02034699819
0.019925707
0.01953069433
0.01916542766
0.01882670217
0.01851174354
0.01822072408
0.01795222596
0.01770209596
0.01746634243
0.01725594285
0.01707297867
0.01691353325
0.0167717363
0.01664448539
0.01653391594
0.01644183847
0.01631376372
0.01613349258
0.01607736275
0.01601347426
0.01590913021
0.01580287647
)


101
(
-0.008372963028
-0.5930141418
-1.01819224
-1.40906333
-1.627027407
-1.695886028
-1.674840725
-1.613488542
-1.518643156
-1.406471359
-1.286342592
-1.164072456
-1.044200247
-0.9278588481
-0.8176650294
-0.7151158144
-0.6202307367
-0.5324579115
-0.4540837633
-0.3824162946
-0.3184366025
-0.2626928483
-0.2133264875
-0.1697272649
-0.1319867831
-0.09974781195
-0.07238130639
-0.04930057281
-0.02993386687
-0.01379531725
-0.000482659623
0.01036081564
0.01902039109
0.02592753931
0.03147212846
0.03583351757
0.03921097875
0.04177145729
0.0436216583
0.04486629546
0.04562268184
0.0459939257
0.04606313466
0.04589789547
0.0455493452
0.04505587072
0.04444652022
0.04374478704
0.04297089087
0.04214304174
0.04127526346
0.04038090371
0.03946970569
0.0385486655
0.0376236985
0.03670208402
0.03578854841
0.03488394426
0.03399228179
0.03311565413
0.03225667407
0.03141616978
0.03059622793
0.02979837004
0.02902240535
0.02826912802
0.02753873144
0.02683152161
0.02614825742
0.02548839642
0.02485201675
0.0242398361
0.02365207989
0.02308752459
0.02254611312
0.02202882911
0.02153655573
0.02106684273
0.02061641317
0.02018250224
0.01976875173
0.01938140858
0.01902209465
0.01868757569
0.01837586526
0.01808627511
0.01781823784
0.01756668111
0.01733341779
0.01712670177
0.01694608095
0.01678325181
0.01663817677
0.01650814851
0.01639803089
0.01625511566
0.01605762353
0.01599826557
0.01592898167
0.01581035041
0.01568983509
)


101
(
-0.008372963028
-0.5736111345
-0.9975323685
-1.38633616
-1.605282016
-1.677661339
-1.660832502
-1.603141618
-1.512571531
-1.404331749
-1.28774677
-1.168617372
-1.05136325
-0.9374005804
-0.829030123
-0.7278071404
-0.6339499294
-0.5470158657
-0.4687074956
-0.397326389
-0.3331217644
-0.2767110654
-0.2268403541
-0.1826647922
-0.1441037636
-0.1109072573
-0.08255667846
-0.05849998366
-0.03820021979
-0.02116832296
-0.006999194862
0.004662349625
0.0141095428
0.02168034615
0.02777928714
0.03263846206
0.0364600705
0.03941838017
0.041635923
0.04321655525
0.04426754649
0.04489019886
0.04516968008
0.04518079647
0.0449823398
0.0446184246
0.04412216505
0.04351887065
0.04282971572
0.04207454085
0.04126872807
0.04042743512
0.03956153126
0.03867946701
0.03778753403
0.03689280083
0.03600158585
0.03511633074
0.03424101762
0.03337764792
0.03252881423
0.03169587416
0.03088088229
0.03008599695
0.02931174664
0.02855884781
0.0278279034
0.02711857194
0.0264320047
0.02576820143
0.02512650358
0.02450817469
0.02391352574
0.02334188116
0.02279251069
0.02226587129
0.02176284797
0.02128291679
0.02082442062
0.02038380303
0.01996034515
0.01955811715
0.01918166558
0.01883154065
0.01850419368
0.01819828916
0.017914276
0.01764873708
0.01739951033
0.01717182446
0.01697162579
0.01679091997
0.01662813018
0.01647991577
0.01635258142
0.01619450372
0.01598046436
0.01590403307
0.01581622231
0.01567712123
0.01553832789
)


101
(
-0.008372963031
-0.5542867262
-0.9768793495
-1.363558727
-1.583403511
-1.659207616
-1.646533283
-1.592479793
-1.506107444
-1.401778817
-1.288731888
-1.172749173
-1.058143744
-0.9465688667
-0.8400816585
-0.7402513575
-0.6474685488
-0.5614095127
-0.4833161258
-0.4122031565
-0.3478870885
-0.2909279886
-0.2405395062
-0.1958148508
-0.1565138042
-0.1224240041
-0.09312213834
-0.06810680184
-0.04687819282
-0.02895539857
-0.013931767
-0.001451017921
0.008786984494
0.0170597219
0.0237564394
0.0291372782
0.03342095127
0.03679177036
0.03938519044
0.04131100877
0.04267140807
0.04356314656
0.04407066989
0.04427283425
0.04423475108
0.04400665031
0.04362731019
0.04312541373
0.04252313607
0.04184179168
0.04109893086
0.04031012003
0.03948772536
0.03864293421
0.03778210094
0.03691201368
0.03604085102
0.03517253906
0.03431108173
0.03345938256
0.03262013648
0.03179456896
0.03098545751
0.0301939099
0.02942175656
0.02866979232
0.02793908202
0.027229872
0.0265428328
0.02587879741
0.0252360411
0.02461621051
0.0240185072
0.02344374223
0.02289168873
0.02236176083
0.02185456187
0.02136982631
0.02090736948
0.02046510632
0.02004000033
0.01963324371
0.01924737157
0.01888774605
0.01855121029
0.01823636206
0.01794256354
0.0176683074
0.01741073518
0.01716962123
0.01695520267
0.01676156374
0.01658517379
0.01642333369
0.0162817889
0.01611049767
0.01588861479
0.01578528698
0.01567040105
0.01549833489
0.01532571106
)


101
(
-0.008372961481
-0.53504669
-0.956235866
-1.340732947
-1.56139336
-1.640525821
-1.63194271
-1.58150176
-1.499251815
-1.398809531
-1.289293182
-1.176461635
-1.064532502
-0.9553564391
-0.8508054758
-0.7524328324
-0.6607736035
-0.5756266252
-0.4978774148
-0.4270442127
-0.3627075488
-0.30531645
-0.2544265997
-0.2091738078
-0.1691987608
-0.1342826366
-0.1040718913
-0.07812136297
-0.05597285556
-0.03716272792
-0.02128720167
-0.007988348923
0.003040595258
0.01203886743
0.01937225736
0.02530604471
0.03007317576
0.03387098659
0.03684840201
0.03912517483
0.04080410528
0.04197800518
0.04272771324
0.04313338589
0.04326453124
0.04317709601
0.04291621381
0.04251495895
0.04199894216
0.04139083322
0.04070959124
0.03997105441
0.03919025394
0.03838022929
0.03754853596
0.03670303381
0.03585095961
0.03499946975
0.03415134558
0.03331065554
0.03248151006
0.03166444838
0.0308631143
0.03007789703
0.02931072292
0.02856312259
0.02783575074
0.02713071663
0.02644757769
0.02578705856
0.02514775509
0.02453065329
0.02393600123
0.02336353544
0.0228136766
0.02228561247
0.02178059763
0.02129719861
0.02083542117
0.02039554376
0.01997464822
0.01957076571
0.01918487498
0.01882167439
0.01848269502
0.01816538186
0.01786789679
0.01759089212
0.01733120537
0.01708557096
0.01686391014
0.01666287731
0.0164785519
0.0163091585
0.01615819016
0.01598146451
0.01575906723
0.01562177054
0.01547638323
0.01527839894
0.01507765402
)


101
(
-0.008372961494
-0.5158957288
-0.93560548
-1.317861643
-1.539254018
-1.621617905
-1.61706139
-1.570207015
-1.492006336
-1.395421973
-1.289426718
-1.179749149
-1.07052087
-0.9637558518
-0.8611882507
-0.7643359967
-0.6738514975
-0.5896548296
-0.5123615412
-0.4418407144
-0.3775609654
-0.3198488139
-0.2684973663
-0.2227386259
-0.1821437217
-0.1464668386
-0.1153971302
-0.0885418612
-0.06548743899
-0.04579566089
-0.02907153566
-0.01495681873
-0.003138934365
0.006597515467
0.01459683194
0.02111493219
0.02638959017
0.03062986198
0.03399956724
0.03663061672
0.03863182725
0.04009569362
0.04109710552
0.04171593509
0.04202410773
0.04208224023
0.04194258438
0.04164353171
0.04121578056
0.04068270119
0.04006432433
0.03937776458
0.03864041159
0.03786643502
0.03706826686
0.03625155756
0.03542224007
0.034590825
0.03376041286
0.03293512136
0.03212065615
0.03131796462
0.03052870552
0.02975557725
0.02900006678
0.02826404324
0.02754596345
0.02684975247
0.02617468043
0.02552180143
0.02489081671
0.02428145932
0.02369462514
0.02312938712
0.02258581984
0.02206453392
0.02156609504
0.02108821548
0.02063138262
0.02019623092
0.01978209563
0.01938484398
0.01900508148
0.01864368127
0.01830636348
0.0179907394
0.01769453499
0.01741821447
0.01716031916
0.01691483426
0.01669105525
0.01648689889
0.01629990376
0.01612736331
0.01597111095
0.01579580746
0.01557863976
0.01540833452
0.01523632217
0.01503045817
0.01483443441
)


101
(
-0.0083729053
-0.4968397246
-0.9149917033
-1.294947432
-1.516987668
-1.602485506
-1.601889622
-1.558594714
-1.484372298
-1.391614242
-1.289128473
-1.182605986
-1.076100249
-0.9717590367
-0.8712168085
-0.7759451025
-0.6866878577
-0.6034809459
-0.526741844
-0.4565786175
-0.3924259916
-0.3344977949
-0.2827416301
-0.2365053218
-0.195336702
-0.158959997
-0.1270854381
-0.09936298137
-0.07542306024
-0.05485899203
-0.03729145173
-0.02236496827
-0.009762297759
0.0007158506442
0.009398881049
0.01652748592
0.02233515253
0.02703654758
0.03080886537
0.03379765431
0.03612169775
0.03787826061
0.03913873
0.03998034885
0.04047578211
0.04068891582
0.04067912052
0.04049075068
0.04015869043
0.039708091
0.03916137354
0.03853693539
0.03785237042
0.03712424818
0.03636823128
0.03558673325
0.03479113667
0.03398776435
0.03318469223
0.03238319746
0.03159020942
0.03080939262
0.03004047029
0.02928709489
0.02854963919
0.02783095461
0.02712994978
0.0264475449
0.02578531208
0.02514493674
0.02452632941
0.02392917099
0.02335293855
0.0227979594
0.02226413244
0.02175250411
0.02126265922
0.02079264942
0.0203442897
0.01991550658
0.01950744624
0.01911841176
0.01874613982
0.01839041842
0.01805649826
0.01774467058
0.01745226994
0.01717737634
0.01692211505
0.01667981609
0.01645622973
0.01625129968
0.01606430894
0.0158907498
0.01573126406
0.01555875847
0.01535180674
0.01516240039
0.01497536566
0.01476753907
0.01457197834
)


101
(
-0.008372696845
-0.4778849102
-0.8943973445
-1.271991907
-1.494595253
-1.583128906
-1.586426301
-1.546662595
-1.476349504
-1.387383287
-1.288393277
-1.185025374
-1.081261261
-0.9793570381
-0.880877761
-0.7872437844
-0.6992672085
-0.61709132
-0.5409930882
-0.4712415468
-0.4072816882
-0.349234506
-0.2971422926
-0.2504654324
-0.2087645906
-0.1717428868
-0.1391189609
-0.1105735464
-0.08577646225
-0.06435506014
-0.04595239556
-0.03022163135
-0.01684250224
-0.005625986855
0.003748350888
0.01150594918
0.01787061056
0.02305563834
0.02724561113
0.0305986004
0.03324818777
0.03530099122
0.03682938935
0.03790735938
0.03860687587
0.0389926505
0.03912854818
0.03906501016
0.03884221397
0.0384880105
0.03802771702
0.03748088205
0.03686480283
0.03619709227
0.03549318267
0.03476070259
0.0340110188
0.03324920252
0.03248394769
0.03171712109
0.03095447123
0.03020213086
0.02946099066
0.02873396869
0.02802110123
0.02732351079
0.02664482227
0.02598239845
0.0253380397
0.02471393649
0.02411003762
0.02352688034
0.02296488438
0.02242293813
0.0219007572
0.02139870767
0.02091820464
0.02045791646
0.020017916
0.01959681034
0.01919530388
0.01881367538
0.01844869094
0.01810000419
0.01776980993
0.01746100963
0.01717306141
0.01690057329
0.01664708963
0.01640926693
0.01618695326
0.01598133846
0.01579434279
0.01562118167
0.01546000422
0.01528937506
0.0150906245
0.01489538156
0.01470439797
0.01449843376
0.01429935814
)


101
(
-0.008372547705
-0.4590370198
-0.8738265288
-1.248998247
-1.472079537
-1.56355029
-1.570672208
-1.534410132
-1.467939356
-1.382727863
-1.287217529
-1.187001965
-1.085995841
-0.9865417955
-0.890159094
-0.798216406
-0.7115743647
-0.63047287
-0.5550928105
-0.4858114756
-0.4221073452
-0.3640312873
-0.3116778734
-0.2646065376
-0.2224145949
-0.1847982672
-0.1514796001
-0.1221601682
-0.09654194175
-0.07428511821
-0.05505982148
-0.03853454277
-0.02439032547
-0.0124442606
-0.002379082814
0.006018660547
0.01296131623
0.0186550985
0.02328443487
0.0270160145
0.03000054546
0.03235809421
0.03416659343
0.0354992579
0.03642607158
0.03700962294
0.03731436065
0.03739575641
0.03730040377
0.03705980918
0.03670406718
0.03625274757
0.03572202857
0.03513055343
0.03449387601
0.03382653554
0.03313306475
0.03242468085
0.031706073
0.03098419999
0.03026102421
0.0295447415
0.02883727748
0.02814125891
0.0274575033
0.0267866127
0.02613248193
0.02549395229
0.02487202436
0.02426684828
0.0236800403
0.0231121749
0.02256536989
0.02203781583
0.02152864984
0.02103744467
0.020566324
0.02011518024
0.01968366029
0.01927033725
0.01887580987
0.01850012319
0.01814219751
0.0178005365
0.01747410539
0.01716721959
0.01688289482
0.01661389175
0.01636191541
0.01612607957
0.01590597458
0.01569989421
0.01551190796
0.0153385659
0.01517666203
0.01500815133
0.01481575728
0.01461864861
0.01442790432
0.01423233936
0.01404459671
)


101
(
-0.008372544583
-0.4403026284
-0.8532828578
-1.225968833
-1.4494423
-1.543750764
-1.554627021
-1.521835672
-1.459142032
-1.377645889
-1.285596863
-1.188529623
-1.090295366
-0.9933043716
-0.8990483727
-0.8088468907
-0.723593182
-0.6436110181
-0.5690201877
-0.5002692703
-0.4368819173
-0.3788610934
-0.3263248431
-0.2789140605
-0.2362753627
-0.1981126888
-0.1641520228
-0.1341095295
-0.1077117584
-0.08464808457
-0.06461765954
-0.04730956765
-0.03241147967
-0.01974641856
-0.008995552678
4.74094517e-05
0.007584875039
0.0138129022
0.01890938544
0.02304451666
0.02638270593
0.02905972125
0.03116332378
0.03277095367
0.03395050936
0.0347602657
0.03526272395
0.03551546618
0.03556971658
0.03546316123
0.03523023168
0.03489153282
0.03446257839
0.03396330041
0.03340923096
0.03281685136
0.03219158766
0.03154486994
0.03088356166
0.03021421531
0.02953834901
0.0288645134
0.02819686147
0.02753605653
0.02688373259
0.02624421412
0.02561720838
0.02500516827
0.02440734453
0.02382337266
0.0232558783
0.02270497789
0.02217313701
0.02165996054
0.02116459768
0.02068609003
0.02022452032
0.01978181744
0.01935888097
0.01895301782
0.01856527571
0.01819524846
0.01784296392
0.01750724559
0.01718619265
0.01688135071
0.01659819737
0.01633234897
0.01608192607
0.01584627892
0.01562787471
0.01542105085
0.01523328665
0.01505826011
0.01489552022
0.01472822293
0.01454172234
0.01435058061
0.01416531807
0.01397994212
0.01378795651
)


101
(
-0.008372541467
-0.4216894295
-0.8327708455
-1.20290716
-1.42668661
-1.523732773
-1.538291669
-1.508938739
-1.449958661
-1.372136439
-1.28352818
-1.189603209
-1.094152241
-0.999636668
-0.9075342645
-0.819120357
-0.7353073987
-0.6564908314
-0.5827543246
-0.5145945933
-0.4515837801
-0.3936971202
-0.3410591405
-0.2933716001
-0.2503346229
-0.2116733484
-0.1771218621
-0.1464079009
-0.1192761475
-0.09544018498
-0.07462754142
-0.0565507643
-0.04090880295
-0.0275338973
-0.01610318764
-0.006413551275
0.00173158869
0.008518383893
0.0141140599
0.01868608621
0.02240575842
0.02542440705
0.02784215427
0.02974458204
0.03120002565
0.03226323252
0.03299354948
0.03344590514
0.03367539459
0.03372568555
0.03363222676
0.03342068285
0.03310964625
0.03271683086
0.03225778209
0.03174994153
0.03120366254
0.03062715502
0.03003154839
0.02942159508
0.02880121533
0.02817514199
0.02755094317
0.02692882708
0.02631217413
0.02570563321
0.0251083552
0.02452386459
0.02395039779
0.02339010623
0.02284358799
0.02231132141
0.02179536764
0.02129609926
0.02081409024
0.020348833
0.01989865046
0.01946548452
0.01904958765
0.01865147079
0.01827035721
0.01790589523
0.01755857915
0.01722759963
0.01691156943
0.01660982015
0.0163271935
0.0160631397
0.01581457382
0.01557913673
0.01536141692
0.01515353046
0.01496560872
0.01478937312
0.01462465737
0.01445868821
0.01427885838
0.01409605888
0.01391835202
0.01374403669
0.01357615077
)


101
(
-0.008372547698
-0.403204785
-0.8122958066
-1.179817749
-1.403816696
-1.503499999
-1.521668282
-1.495719984
-1.440391332
-1.366199757
-1.281009556
-1.1902186
-1.097559831
-1.00553136
-0.9156066174
-0.8290229904
-0.7467011878
-0.6690969333
-0.5962757613
-0.5287661072
-0.4661906716
-0.4085129954
-0.355855064
-0.30796008
-0.2645786331
-0.2254673218
-0.190374692
-0.1590402749
-0.1312233801
-0.1066554113
-0.0850881405
-0.06625855298
-0.04988129161
-0.0358028639
-0.02369650315
-0.01335984242
-0.004597527935
0.002770095914
0.008897802003
0.01394411113
0.01808159671
0.02147161321
0.02422592436
0.02644265564
0.02819498977
0.02953560597
0.03051981277
0.03119802285
0.03162867445
0.0318571421
0.0319202844
0.03185022867
0.03167109058
0.03139709076
0.03104590216
0.0306351492
0.03017581406
0.02967793386
0.02915359686
0.02860946576
0.0280498079
0.02747740268
0.02689941013
0.02631929769
0.02574251106
0.02516956692
0.02460438828
0.02404830836
0.02350192515
0.02296650008
0.02244152935
0.02192921347
0.02143038044
0.02094584871
0.02047704446
0.02002454532
0.01958780426
0.01916433887
0.01875672463
0.0183661041
0.01799089194
0.01763193748
0.01729008406
0.01696333564
0.016651552
0.01635308483
0.01607199787
0.01580863142
0.01556199438
0.01532743834
0.0151093567
0.01490150698
0.01471140382
0.01453473512
0.01436773197
0.01420270876
0.0140266883
0.01385334361
0.01368416842
0.01352136133
0.01336919557
)


101
(
-0.0083725477
-0.3848554632
-0.79186277
-1.156701703
-1.380832662
-1.483051654
-1.504754454
-1.482175617
-1.430437746
-1.359832106
-1.278035377
-1.190368347
-1.100508459
-1.01097808
-0.9232527574
-0.8385383489
-0.7577566048
-0.6814116158
-0.6095644346
-0.5427628659
-0.4806807612
-0.4232815845
-0.3706840513
-0.3226554711
-0.2789895844
-0.2394789839
-0.2038941413
-0.1719894819
-0.1435380324
-0.1182831198
-0.09599311715
-0.07642824197
-0.05932363465
-0.04454383825
-0.03176290116
-0.0207782949
-0.01139226086
-0.003426721828
0.003263281283
0.0088232396
0.0134192253
0.01721500633
0.02033248761
0.02288399398
0.02495191724
0.02658957527
0.02784915646
0.02877758562
0.02943179097
0.02985795591
0.03009639511
0.03018265265
0.03014631505
0.03000267034
0.02977006757
0.02946680335
0.02910312545
0.02869205126
0.0282448339
0.02777138889
0.02727596638
0.02676270056
0.02623535789
0.02570147731
0.02516678973
0.02463024104
0.0240989609
0.02357353864
0.02305587574
0.02254553669
0.02204340899
0.02155244805
0.02107198962
0.02060398733
0.02014968714
0.01970950055
0.0192848101
0.01887288829
0.01847538673
0.018092251
0.01772325624
0.01737068483
0.01703357382
0.01671150177
0.01640440617
0.01610948472
0.01583066056
0.0155682513
0.0153231212
0.01508977782
0.01487067196
0.01466378587
0.0144715323
0.01429389896
0.01412565934
0.01396044049
0.01378628204
0.01362403152
0.01346425853
0.01331051711
0.01315080414
)


101
(
-0.008372541473
-0.3666496792
-0.7714747381
-1.133562673
-1.357737565
-1.462390059
-1.487550803
-1.468304768
-1.420098327
-1.353032399
-1.274602604
-1.190047496
-1.10299075
-1.01596823
-0.9304616109
-0.8476513288
-0.7684560533
-0.6934176356
-0.6226011217
-0.5565665708
-0.4950350535
-0.4379795675
-0.3855179073
-0.3374317856
-0.2935470589
-0.2536919751
-0.2176640422
-0.1852374359
-0.156200613
-0.1303055873
-0.1073292366
-0.08704993188
-0.0692264796
-0.05374479941
-0.04028580905
-0.02864932091
-0.01863380256
-0.01005829174
-0.002782632422
0.003325415601
0.008419353519
0.01265928011
0.01617140232
0.01907939734
0.02147863025
0.02342889591
0.02498291029
0.02618303949
0.02707942533
0.02772145838
0.02815303929
0.02841129338
0.02852912248
0.02852672604
0.02842171692
0.02823237715
0.02797261056
0.02765621265
0.0272918969
0.02689282004
0.02646754992
0.02601742923
0.02554676978
0.02506390239
0.0245734181
0.02407815111
0.02358303255
0.02308997813
0.02260191837
0.02211818948
0.02164165687
0.02117279029
0.02071218291
0.02026222238
0.01982377581
0.01939692359
0.0189842581
0.0185851881
0.01819832455
0.01782410942
0.01746316374
0.01711737787
0.01678521483
0.01646798433
0.01616618841
0.0158753408
0.0155994555
0.01533885936
0.01509526991
0.01486339809
0.01464420731
0.01443798061
0.01424502422
0.01406619303
0.01389720001
0.01373146735
0.01355905439
0.01340737316
0.01325654204
0.0131103211
0.01296568967
)


101
(
-0.008372547718
-0.3485965529
-0.7511366758
-1.110406934
-1.334537581
-1.441520899
-1.470061644
-1.454109829
-1.40937662
-1.345802732
-1.270711192
-1.189253895
-1.105002024
-1.020495666
-0.9372245493
-0.8563495944
-0.7787837465
-0.7050984226
-0.6353677817
-0.5701596953
-0.5092353942
-0.4525861125
-0.4003297317
-0.3522624115
-0.3082285423
-0.2680881662
-0.231667946
-0.1987656965
-0.169188557
-0.142698067
-0.1190749232
-0.09810752459
-0.0795756097
-0.06339180651
-0.0492488026
-0.03695348362
-0.02630176083
-0.0171079638
-0.009232133434
-0.002550666656
0.003076483818
0.007799103122
0.01173931306
0.01502805128
0.0177746143
0.02005054074
0.0219131546
0.02340145407
0.02455871304
0.02543460242
0.02607567737
0.02652066173
0.02680520357
0.02695509659
0.02698828882
0.0269209952
0.02677191603
0.02655548269
0.02628090953
0.02596181946
0.02561040426
0.02522754415
0.02481943032
0.02439249758
0.02395038178
0.02350008391
0.02304367747
0.0225856777
0.02212950279
0.02167606609
0.0212268186
0.02078176752
0.02034336959
0.0199132376
0.01949171445
0.01907987238
0.01868088437
0.01829413519
0.01791935994
0.01755606659
0.0172046846
0.0168660105
0.01654048429
0.01622911146
0.01593240899
0.01564673734
0.01537436738
0.0151164887
0.01487495511
0.01464510668
0.01442739699
0.01422210684
0.01402888597
0.01384968651
0.01367980861
0.01351421007
0.0133433774
0.01320105281
0.01305813395
0.01291838463
0.01277984871
)


101
(
-0.008372547712
-0.3307040185
-0.7308544599
-1.087235854
-1.311232956
-1.420443455
-1.452284669
-1.439586825
-1.398269859
-1.338139419
-1.266355405
-1.187980285
-1.106532669
-1.024549607
-0.9435291283
-0.8646177508
-0.7887214223
-0.7164342351
-0.6478424441
-0.5835196996
-0.5232593736
-0.467075603
-0.4150915456
-0.3671171813
-0.3230070884
-0.2826447204
-0.2458859219
-0.2125547525
-0.1824788104
-0.1554332633
-0.1312038072
-0.1095803667
-0.09035542594
-0.07347158709
-0.05863868659
-0.04567499649
-0.03437892436
-0.02456037681
-0.0160758306
-0.008804409951
-0.002617902678
0.002620421908
0.007022750253
0.01072014247
0.01383271929
0.01644584259
0.01862651824
0.02041531748
0.02185235975
0.0229806005
0.02384685757
0.02449241372
0.02495470997
0.02526747941
0.0254497749
0.02551689873
0.02548743205
0.02537789258
0.02520006205
0.02496769956
0.02469238162
0.02438192376
0.02404083501
0.02367472008
0.02328536031
0.02288349394
0.02247003138
0.02205051661
0.02162936421
0.02120799987
0.02078719284
0.02036952469
0.01995648722
0.01954852643
0.01914642967
0.018751741
0.01836708833
0.01799362455
0.01763252811
0.01728184811
0.01694069681
0.01661093932
0.01629356982
0.01598962917
0.01569848576
0.01541917606
0.01515149856
0.0148972899
0.01465870372
0.01443196866
0.01421683643
0.01401297012
0.01382022787
0.01364135974
0.01347152701
0.01330723973
0.01313893528
0.0130032898
0.01286624136
0.01273144849
0.01259304158
)


101
(
-0.008372547482
-0.3129834672
-0.7106411317
-1.064054572
-1.287828287
-1.399161684
-1.43422199
-1.424736287
-1.386779513
-1.330042991
-1.26153351
-1.186223188
-1.107576563
-1.028122179
-0.9493656874
-0.872443218
-0.7982534931
-0.7274073452
-0.6600050788
-0.5966241797
-0.5370845667
-0.4814236997
-0.4297772358
-0.3819665075
-0.3378540558
-0.2973371016
-0.2602965243
-0.2265837382
-0.1960482723
-0.1684841537
-0.143687396
-0.1214464385
-0.1015538487
-0.08397621202
-0.06844767017
-0.05480312716
-0.04285235917
-0.03240232496
-0.02330436268
-0.01543649042
-0.008675141519
-0.002895098309
0.002001208729
0.006138532244
0.009640511272
0.01260393218
0.01511085318
0.01721041391
0.01894221578
0.02034025672
0.02144809375
0.02230855405
0.02296087629
0.02344553081
0.02378576617
0.02399843934
0.02409973104
0.02410764766
0.02403447247
0.0238946833
0.02370098439
0.02346712948
0.02319663279
0.02289611403
0.02256567506
0.02221633443
0.02185045727
0.0214734811