/*--------------------------------*- C++ -*----------------------------------*\
| =========                 |                                                 |
| \\      /  F ield         | OpenFOAM: The Open Source CFD Toolbox           |
|  \\    /   O peration     | Version:  2.3.1                                 |
|   \\  /    A nd           | Web:      www.OpenFOAM.org                      |
|    \\/     M anipulation  |                                                 |
\*---------------------------------------------------------------------------*/
FoamFile
{
    version     2.0;
    format      ascii;
    class       dictionary;
    location    "constant";
    object      PM50;
}
// * * * * * * * * * * * * * * * * * * * * * * * * * * * * * * * * * * * * * //

PM50_table
101
(

101
(
-4.806484218e-20
-3.065564167e-12
-2.073760462e-11
-8.330413765e-11
-2.12362921e-10
-3.701403906e-10
-5.053664265e-10
-6.382185406e-10
-7.190782143e-10
-7.472608641e-10
-7.176905949e-10
-6.422095637e-10
-5.366506037e-10
-4.05008796e-10
-2.724173725e-10
-1.532527373e-10
-5.403364161e-11
1.850996712e-11
6.115025145e-11
8.044303435e-11
8.291590947e-11
7.742831064e-11
6.358829661e-11
4.906840065e-11
3.653909198e-11
2.639073145e-11
1.866070528e-11
1.308646966e-11
9.004713775e-12
6.205078534e-12
4.27767801e-12
2.996559686e-12
2.188332781e-12
1.418004463e-12
9.721443928e-13
6.659976942e-13
3.626957614e-13
1.156640972e-13
2.030311998e-13
1.609682751e-13
1.118906326e-13
8.099182303e-14
5.593619353e-14
3.877279376e-14
2.789307691e-14
1.947234386e-14
1.382594405e-14
9.501764945e-15
6.56687954e-15
4.41655398e-15
2.986962705e-15
1.994880892e-15
1.318269891e-15
8.599061003e-16
5.572751825e-16
3.607664315e-16
2.209656795e-16
1.40411204e-16
8.525809647e-17
5.199608195e-17
3.060445889e-17
1.795749578e-17
1.035436e-17
5.797478734e-18
3.148153573e-18
1.686010967e-18
8.808534053e-19
4.464883771e-19
2.164548176e-19
1.019219829e-19
4.58479142e-20
1.989179603e-20
8.183071546e-21
3.165604113e-21
1.12671812e-21
3.894704352e-22
1.381382259e-22
4.412972072e-23
1.311825277e-23
3.585138525e-24
8.972225763e-25
1.834995164e-25
3.728253426e-26
6.06131496e-27
1.089370704e-27
4.092918859e-28
1.469122004e-28
3.793153704e-29
5.821152145e-30
9.48136247e-31
1.519621832e-31
2.045062537e-32
2.528057637e-33
2.056396663e-34
2.587532407e-35
3.003394824e-36
2.70732639e-38
1.108604537e-37
1.258546268e-34
-9.503009424e-25
-1.186044508e-24
)


101
(
-4.808192126e-20
-2.77266891e-12
-1.957388698e-11
-7.927342282e-11
-2.004420926e-10
-3.463765628e-10
-4.687503675e-10
-5.814281869e-10
-6.411125797e-10
-6.485507335e-10
-6.015224425e-10
-5.134187836e-10
-4.003611209e-10
-2.689002156e-10
-1.414494056e-10
-3.147723158e-11
5.499041417e-11
1.130637715e-10
1.410716416e-10
1.464890498e-10
1.359372558e-10
1.182036825e-10
9.507180324e-11
7.289431918e-11
5.413949516e-11
3.916424413e-11
2.778005911e-11
1.949036081e-11
1.349929202e-11
9.334288997e-12
6.456796802e-12
4.505335537e-12
3.21160527e-12
2.175694997e-12
1.50342172e-12
1.040001926e-12
6.583015667e-13
3.615276131e-13
3.397005491e-13
2.690720383e-13
1.959299892e-13
1.414754936e-13
9.979248536e-14
7.02240887e-14
5.00106313e-14
3.526769286e-14
2.497783429e-14
1.745036052e-14
1.216562168e-14
8.372384803e-15
5.745305211e-15
3.911444072e-15
2.644245912e-15
1.773395801e-15
1.179209449e-15
7.778663945e-16
5.010419209e-16
3.234453341e-16
2.049771452e-16
1.288542134e-16
7.969531855e-17
4.875578597e-17
2.936634914e-17
1.738229675e-17
1.009418118e-17
5.758345066e-18
3.216172059e-18
1.755664306e-18
9.366907822e-19
4.856016141e-19
2.439497691e-19
1.185331497e-19
5.617665042e-20
2.561246645e-20
1.114314144e-20
4.662896425e-21
1.877058232e-21
7.221246391e-22
2.667329128e-22
9.348914563e-23
3.080918181e-23
9.268895678e-24
2.633653928e-24
6.801398401e-25
1.551876162e-25
3.274408677e-26
7.429881271e-27
2.233773328e-27
5.173677189e-28
1.01119424e-28
2.153267632e-29
4.562363722e-30
1.011279624e-30
1.749967286e-31
3.167334055e-32
5.416292401e-33
1.582076134e-34
1.236087693e-33
1.041620171e-32
3.221077764e-29
-4.883292021e-19
)


101
(
-4.809548869e-20
-2.243360797e-12
-1.746085202e-11
-7.207149515e-11
-1.796413778e-10
-3.057390371e-10
-4.073718974e-10
-4.881650014e-10
-5.152368745e-10
-4.913111269e-10
-4.183721503e-10
-3.117322406e-10
-1.877130379e-10
-5.633272349e-11
6.406072956e-11
1.61429832e-10
2.302932589e-10
2.681437838e-10
2.751803805e-10
2.602046758e-10
2.297671253e-10
1.928250431e-10
1.542311591e-10
1.187425299e-10
8.881744676e-11
6.491999216e-11
4.659473526e-11
3.301795894e-11
2.318172118e-11
1.620859219e-11
1.132945653e-11
7.950752697e-12
5.623676844e-12
3.957476061e-12
2.78115418e-12
1.941223429e-12
1.352826529e-12
9.12917232e-13
6.847216545e-13
5.3118826e-13
3.996593107e-13
2.934184503e-13
2.124673511e-13
1.527585237e-13
1.097340616e-13
7.882271387e-14
5.658810935e-14
4.050726425e-14
2.886125736e-14
2.045316312e-14
1.440584221e-14
1.009121785e-14
7.033426347e-15
4.875897612e-15
3.356166445e-15
2.293034456e-15
1.549423141e-15
1.037998195e-15
6.894220206e-16
4.530691463e-16
2.950998138e-16
1.902985217e-16
1.212669595e-16
7.637487558e-17
4.744593537e-17
2.899609948e-17
1.744136809e-17
1.02960328e-17
5.99326345e-18
3.422072156e-18
1.906860845e-18
1.035528831e-18
5.509254185e-19
2.857429594e-19
1.434818945e-19
6.967802825e-20
3.261987608e-20
1.476069777e-20
6.456354375e-21
2.734957595e-21
1.116405266e-21
4.287512786e-22
1.566203036e-22
5.412979335e-23
1.729318208e-23
5.079588528e-24
1.375181551e-24
3.926155345e-25
1.097793164e-25
2.634821486e-26
5.596934905e-27
1.292899133e-27
3.148030096e-28
7.145814757e-29
1.663493359e-29
3.2485002e-30
1.045887436e-31
2.563853487e-30
2.128797199e-29
4.768132336e-25
5.983068997e-25
)


101
(
-4.810624298e-20
-1.814347262e-12
-1.571858716e-11
-6.632520422e-11
-1.639378671e-10
-2.764904094e-10
-3.652177848e-10
-4.273180667e-10
-4.365556607e-10
-3.962197585e-10
-3.101503905e-10
-1.939566478e-10
-6.363851519e-11
6.933842851e-11
1.887899077e-10
2.832410647e-10
3.46961772e-10
3.779734772e-10
3.768074649e-10
3.522295985e-10
3.10988472e-10
2.622737496e-10
2.124323162e-10
1.661730098e-10
1.264459391e-10
9.413117534e-11
6.88511781e-11
4.969977246e-11
3.554970138e-11
2.529414858e-11
1.796513972e-11
1.279140702e-11
9.149285174e-12
6.571547536e-12
4.717795954e-12
3.380726276e-12
2.410562233e-12
1.712159472e-12
1.258470284e-12
9.558031194e-13
7.271629839e-13
5.460808279e-13
4.055031472e-13
2.986829507e-13
2.191487058e-13
1.607947241e-13
1.179625479e-13
8.651163173e-14
6.325974693e-14
4.611496672e-14
3.344726137e-14
2.41441727e-14
1.735691364e-14
1.243274727e-14
8.861813674e-15
6.276409552e-15
4.418235205e-15
3.086500293e-15
2.142390961e-15
1.472761921e-15
1.005208754e-15
6.814157558e-16
4.577782128e-16
3.051017058e-16
2.014212045e-16
1.31118765e-16
8.426065335e-17
5.342221757e-17
3.346735343e-17
2.072190515e-17
1.256580506e-17
7.476145839e-18
4.366290933e-18
2.5057426e-18
1.405430878e-18
7.686211843e-19
4.072425626e-19
2.100900442e-19
1.052002185e-19
5.127809773e-20
2.436332531e-20
1.111080491e-20
4.849824627e-21
2.037889692e-21
8.114984927e-22
3.029770413e-22
1.049620412e-22
3.527184218e-23
1.180260329e-23
3.698567351e-24
1.008406999e-24
2.643046574e-25
6.767961792e-26
1.694502602e-26
4.467987647e-27
9.387642915e-28
6.009292474e-29
1.968906373e-27
1.542879284e-26
2.344504818e-25
4.882093901e-19
)


101
(
-4.811472334e-20
-1.463933466e-12
-1.425060065e-11
-6.159596133e-11
-1.516831502e-10
-2.546431957e-10
-3.349097474e-10
-3.854670431e-10
-3.841972344e-10
-3.341174829e-10
-2.396901296e-10
-1.162281975e-10
2.058142805e-11
1.58449871e-10
2.821847458e-10
3.802850115e-10
4.462925552e-10
4.778633272e-10
4.751652821e-10
4.464519743e-10
3.984755644e-10
3.408284661e-10
2.810715289e-10
2.242966631e-10
1.742494221e-10
1.325084847e-10
9.903439193e-11
7.302711255e-11
5.334240652e-11
3.872313629e-11
2.803013663e-11
2.029405574e-11
1.473053968e-11
1.076621139e-11
7.877976796e-12
5.782743984e-12
4.206512088e-12
3.066296564e-12
2.271807462e-12
1.719102482e-12
1.315224601e-12
1.003915977e-12
7.618298161e-13
5.744000839e-13
4.309181613e-13
3.228833041e-13
2.419097478e-13
1.814777164e-13
1.36056847e-13
1.018490987e-13
7.596584222e-14
5.642686832e-14
4.176493281e-14
3.084048266e-14
2.271132474e-14
1.664112071e-14
1.214014345e-14
8.806203548e-15
6.362624114e-15
4.560681462e-15
3.246043468e-15
2.30075291e-15
1.618454361e-15
1.13211525e-15
7.873645556e-16
5.420692652e-16
3.691550634e-16
2.486106939e-16
1.654560985e-16
1.094807463e-16
7.13282885e-17
4.576416101e-17
2.887080818e-17
1.795084089e-17
1.096904324e-17
6.578628125e-18
3.862981506e-18
2.214872268e-18
1.233334331e-18
6.712521146e-19
3.573062891e-19
1.863410242e-19
9.333057726e-20
4.537394215e-20
2.121322167e-20
9.483282451e-21
3.972463024e-21
1.596549875e-21
6.248320054e-22
2.388718278e-22
8.275913696e-23
2.685118791e-23
8.548011221e-24
2.512242884e-24
7.633922012e-25
1.857646991e-25
1.914696334e-26
4.402237375e-25
3.299339302e-24
6.071319904e-23
3.121980784e-22
)


101
(
-4.812136934e-20
-1.175542265e-12
-1.298813608e-11
-5.758527121e-11
-1.417831144e-10
-2.376618375e-10
-3.12030911e-10
-3.550000131e-10
-3.469444337e-10
-2.901720653e-10
-1.891106522e-10
-5.85562095e-11
8.596205457e-11
2.316268742e-10
3.63523845e-10
4.69810024e-10
5.431362907e-10
5.802460529e-10
5.805012331e-10
5.514814707e-10
4.995699608e-10
4.347325924e-10
3.657500348e-10
2.982458204e-10
2.368969212e-10
1.842655137e-10
1.408915931e-10
1.062614916e-10
7.9353915e-11
5.884893765e-11
4.347895628e-11
3.207361022e-11
2.367289429e-11
1.759520684e-11
1.310416768e-11
9.782583559e-12
7.284614833e-12
5.422456609e-12
4.07097103e-12
3.101482055e-12
2.390249167e-12
1.847833359e-12
1.427556383e-12
1.099061257e-12
8.423924039e-13
6.443912879e-13
4.92638201e-13
3.774527787e-13
2.895595984e-13
2.221047806e-13
1.700533159e-13
1.29755062e-13
9.870101262e-14
7.493711564e-14
5.684742686e-14
4.297809033e-14
3.237365955e-14
2.428392772e-14
1.815852269e-14
1.350178755e-14
9.988387679e-15
7.364120159e-15
5.398573301e-15
3.936614445e-15
2.859564603e-15
2.06424345e-15
1.477255523e-15
1.04764987e-15
7.35331857e-16
5.125852207e-16
3.541654325e-16
2.42039665e-16
1.632262408e-16
1.086025741e-16
7.120918284e-17
4.59954912e-17
2.930508264e-17
1.830623818e-17
1.116471808e-17
6.662546854e-18
3.894521821e-18
2.245827747e-18
1.258241462e-18
6.853714207e-19
3.638433916e-19
1.862960432e-19
9.102385463e-20
4.242508232e-20
1.930141872e-20
8.621456687e-21
3.602235426e-21
1.397930028e-21
5.399999509e-22
1.95426106e-22
7.075235654e-23
2.021951433e-23
2.947126394e-24
7.34703875e-23
5.126130638e-22
7.299379725e-21
1.098578046e-19
)


101
(
-4.812650419e-20
-9.364144269e-13
-1.188203501e-11
-5.408982486e-11
-1.335093014e-10
-2.239218126e-10
-2.939049412e-10
-3.315461322e-10
-3.18713186e-10
-2.567709874e-10
-1.497114358e-10
-1.174766879e-11
1.417054195e-10
2.974346684e-10
4.404878461e-10
5.584806458e-10
6.431248612e-10
6.899627488e-10
6.971697811e-10
6.714861243e-10
6.185083352e-10
5.483524835e-10
4.710212304e-10
3.927378183e-10
3.19142959e-10
2.540446397e-10
1.988380074e-10
1.534880285e-10
1.172633204e-10
8.890599856e-11
6.709227451e-11
5.050262093e-11
3.796624451e-11
2.871083553e-11
2.17641133e-11
1.654027348e-11
1.256613851e-11
9.540862124e-12
7.278221035e-12
5.607316351e-12
4.363552835e-12
3.412558504e-12
2.676961967e-12
2.09908043e-12
1.641353636e-12
1.281303503e-12
9.990694895e-13
7.804521858e-13
6.110558445e-13
4.79061139e-13
3.75527074e-13
2.936446234e-13
2.291223556e-13
1.785101155e-13
1.390204699e-13
1.080734238e-13
8.384732024e-14
6.482230158e-14
4.998917944e-14
3.83740245e-14
2.934171169e-14
2.237762841e-14
1.699746376e-14
1.286300488e-14
9.70191548e-15
7.289762305e-15
5.441240975e-15
4.036180352e-15
2.968362675e-15
2.167995814e-15
1.574011449e-15
1.132822395e-15
8.075932459e-16
5.691661888e-16
3.963924858e-16
2.724444641e-16
1.853683658e-16
1.243850704e-16
8.205081705e-17
5.305710776e-17
3.361814256e-17
2.099512788e-17
1.290891248e-17
7.724891075e-18
4.538128245e-18
2.595215079e-18
1.433830718e-18
7.584188819e-19
3.928869057e-19
1.98838911e-19
9.711965396e-20
4.401892316e-20
1.989429121e-20
8.625997599e-21
3.632230002e-21
1.313073216e-21
2.723626548e-22
5.618667787e-21
3.629813434e-20
4.376013029e-19
1.690473409e-18
)


101
(
-4.813039992e-20
-7.367039174e-13
-1.08970277e-11
-5.097103472e-11
-1.263766032e-10
-2.123796093e-10
-2.788941376e-10
-3.12545593e-10
-2.961359912e-10
-2.299039075e-10
-1.171193297e-10
2.863301715e-11
1.920864402e-10
3.597319425e-10
5.164763101e-10
6.4928327e-10
7.488947303e-10
8.095250478e-10
8.278334728e-10
8.095099119e-10
7.589314195e-10
6.859659695e-10
6.017014808e-10
5.130770198e-10
4.266120876e-10
3.475626703e-10
2.785021129e-10
2.200997712e-10
1.720953494e-10
1.334527451e-10
1.029227237e-10
7.911063139e-11
6.065050081e-11
4.670190853e-11
3.603679985e-11
2.788147578e-11
2.158352131e-11
1.669988664e-11
1.295999194e-11
1.012275931e-11
7.970088861e-12
6.309688197e-12
5.018445442e-12
3.99838994e-12
3.183015927e-12
2.532541598e-12
2.012877568e-12
1.601960635e-12
1.278284129e-12
1.022156377e-12
8.177914156e-13
6.53770312e-13
5.221195251e-13
4.162368175e-13
3.318911869e-13
2.645857709e-13
2.106562321e-13
1.672776035e-13
1.326506108e-13
1.048224193e-13
8.256211023e-14
6.489816753e-14
5.08164801e-14
3.970545037e-14
3.09519719e-14
2.408500352e-14
1.867013117e-14
1.43973633e-14
1.102753768e-14
8.381436696e-15
6.342020798e-15
4.766048028e-15
3.565265606e-15
2.644625074e-15
1.940157434e-15
1.407833226e-15
1.012460491e-15
7.207893661e-16
5.069971939e-16
3.506313691e-16
2.38718311e-16
1.600004295e-16
1.062871481e-16
6.903803443e-17
4.416754204e-17
2.75680021e-17
1.691575216e-17
9.965775004e-18
5.766152205e-18
3.265582629e-18
1.795516976e-18
9.3462599e-19
4.84810031e-19
2.448841512e-19
1.188635714e-19
5.283139164e-20
1.472979381e-20
2.384590327e-19
1.389008048e-18
1.351705237e-17
5.992073172e-17
)


101
(
-4.813326203e-20
-5.687701394e-13
-1.000769133e-11
-4.813433055e-11
-1.200619972e-10
-2.023704178e-10
-2.660118905e-10
-2.965183846e-10
-2.77339164e-10
-2.074410506e-10
-8.91260926e-11
6.474519768e-11
2.391056132e-10
4.202970768e-10
5.930560411e-10
7.436828242e-10
8.619291127e-10
9.406099343e-10
9.746026939e-10
9.683300899e-10
9.245020382e-10
8.522079262e-10
7.632578789e-10
6.655316535e-10
5.662149581e-10
4.720965749e-10
3.872302254e-10
3.132772739e-10
2.506813364e-10
1.988235748e-10
1.567108111e-10
1.230127488e-10
9.622878034e-11
7.549533062e-11
5.929378871e-11
4.668494575e-11
3.680096824e-11
2.900716705e-11
2.291519627e-11
1.81767485e-11
1.450010929e-11
1.162237043e-11
9.365592787e-12
7.570437461e-12
6.124807249e-12
4.959228235e-12
4.013766867e-12
3.252933877e-12
2.642001147e-12
2.150583172e-12
1.752969805e-12
1.430132022e-12
1.166528441e-12
9.502932598e-13
7.742486478e-13
6.307397981e-13
5.139614063e-13
4.177540244e-13
3.395733694e-13
2.754708447e-13
2.228066842e-13
1.799946948e-13
1.449276159e-13
1.164943017e-13
9.347915425e-14
7.491807178e-14
5.995455476e-14
4.778878819e-14
3.790922941e-14
2.989498822e-14
2.347721554e-14
1.834463848e-14
1.426767573e-14
1.103868068e-14
8.475461078e-15
6.452222796e-15
4.8674497e-15
3.643593949e-15
2.708235136e-15
1.985163178e-15
1.434062955e-15
1.02502455e-15
7.257538551e-16
5.076162982e-16
3.486493087e-16
2.348444562e-16
1.570119365e-16
1.016159514e-16
6.459637675e-17
4.034680829e-17
2.454570537e-17
1.443703038e-17
8.397194707e-18
4.816115813e-18
2.648881394e-18
1.357183022e-18
5.08058425e-19
6.191882568e-18
3.139902242e-17
2.320780514e-16
1.193760747e-15
)


101
(
-4.813528154e-20
-4.266330272e-13
-9.195782594e-12
-4.551527297e-11
-1.143477904e-10
-1.934628994e-10
-2.546585232e-10
-2.826154295e-10
-2.612453004e-10
-1.881814802e-10
-6.455735566e-11
9.764080661e-11
2.836651916e-10
4.798804943e-10
6.708948713e-10
8.42376583e-10
9.830803703e-10
1.084417216e-09
1.139250781e-09
1.150536517e-09
1.118900891e-09
1.052088948e-09
9.620520082e-10
8.575585977e-10
7.464052963e-10
6.368125536e-10
5.345060279e-10
4.424777848e-10
3.621931135e-10
2.937120273e-10
2.365100725e-10
1.89508969e-10
1.512213233e-10
1.208992039e-10
9.664870715e-11
7.741625428e-11
6.211541153e-11
4.986159892e-11
4.009123722e-11
3.231696482e-11
2.614756905e-11
2.122722697e-11
1.732839489e-11
1.420024615e-11
1.166241804e-11
9.598453956e-12
7.901439749e-12
6.512671844e-12
5.376182629e-12
4.44865631e-12
3.688907259e-12
3.065060676e-12
2.548659901e-12
2.11849449e-12
1.759246979e-12
1.461738028e-12
1.216179819e-12
1.010085251e-12
8.393599497e-13
6.969718564e-13
5.773686683e-13
4.777220912e-13
3.945749209e-13
3.253248987e-13
2.677555733e-13
2.200445459e-13
1.809657196e-13
1.484829791e-13
1.215320876e-13
9.899833327e-14
8.03226633e-14
6.488762333e-14
5.225802919e-14
4.193858336e-14
3.348756512e-14
2.654110401e-14
2.088066184e-14
1.63341554e-14
1.270401068e-14
9.78758496e-15
7.449304629e-15
5.623842728e-15
4.207365217e-15
3.126449574e-15
2.28842044e-15
1.643252113e-15
1.175046702e-15
8.227083326e-16
5.659414487e-16
3.854272286e-16
2.553186437e-16
1.657930157e-16
1.064838127e-16
6.772884571e-17
4.180105502e-17
2.41263321e-17
1.10219589e-17
1.0355446e-16
4.544900228e-16
2.504569309e-15
7.788192398e-15
)


101
(
-4.812442138e-20
-3.056269668e-13
-8.447958384e-12
-4.306958468e-11
-1.09087434e-10
-1.853733953e-10
-2.444547119e-10
-2.703250056e-10
-2.472137987e-10
-1.714025415e-10
-4.274144912e-11
1.278816622e-10
3.261965462e-10
5.388077134e-10
7.502917799e-10
9.457515435e-10
1.112918941e-09
1.241889151e-09
1.323379657e-09
1.358678423e-09
1.345928726e-09
1.291003572e-09
1.205333548e-09
1.09787726e-09
9.773375019e-10
8.52988685e-10
7.322428147e-10
6.198424817e-10
5.186888944e-10
4.298261125e-10
3.534454595e-10
2.889392034e-10
2.350474224e-10
1.914616297e-10
1.557962179e-10
1.269292385e-10
1.035878132e-10
8.461072054e-11
6.920158072e-11
5.669143733e-11
4.655861454e-11
3.831614612e-11
3.168895419e-11
2.631918106e-11
2.192548134e-11
1.832075324e-11
1.5319919e-11
1.282533567e-11
1.075077362e-11
9.034265813e-12
7.609194823e-12
6.425074755e-12
5.435098133e-12
4.599043245e-12
3.887808467e-12
3.292554334e-12
2.789860902e-12
2.362743898e-12
2.001380414e-12
1.696596347e-12
1.436284314e-12
1.214472318e-12
1.025711267e-12
8.649138117e-13
7.28634967e-13
6.129386353e-13
5.156245663e-13
4.338106268e-13
3.646262237e-13
3.055064449e-13
2.551940575e-13
2.123459012e-13
1.76249193e-13
1.459105625e-13
1.203939994e-13
9.878723327e-14
8.062752236e-14
6.553331819e-14
5.292691772e-14
4.249977585e-14
3.384185567e-14
2.673623336e-14
2.097829373e-14
1.638099942e-14
1.264351433e-14
9.591077507e-15
7.241663844e-15
5.411549025e-15
3.984035312e-15
2.897288646e-15
2.063821392e-15
1.45326113e-15
1.010673252e-15
6.980654527e-16
4.733884594e-16
3.04036543e-16
1.663826189e-16
1.14209097e-15
4.323390729e-15
1.894720076e-14
5.426936893e-14
)


101
(
-4.808229509e-20
-2.020869658e-13
-7.754456389e-12
-4.076648836e-11
-1.041823859e-10
-1.779162845e-10
-2.351583372e-10
-2.593242422e-10
-2.348564122e-10
-1.56691162e-10
-2.33169289e-11
1.55772232e-10
3.669182346e-10
5.972272201e-10
8.313996538e-10
1.05407219e-09
1.251961885e-09
1.413929431e-09
1.528609837e-09
1.595458606e-09
1.609563936e-09
1.574551349e-09
1.500606283e-09
1.395829522e-09
1.269954932e-09
1.133100711e-09
9.942773656e-10
8.601494607e-10
7.354343918e-10
6.224649593e-10
5.224759158e-10
4.356415889e-10
3.611823624e-10
2.996455483e-10
2.481413139e-10
2.05563271e-10
1.705059988e-10
1.415483325e-10
1.176562687e-10
9.795176642e-11
8.168215864e-11
6.818380815e-11
5.713539427e-11
4.807439332e-11
4.058464814e-11
3.438499119e-11
2.917602035e-11
2.479071478e-11
2.108803437e-11
1.798128881e-11
1.536470219e-11
1.31640251e-11
1.130688904e-11
9.72205809e-12
8.359740557e-12
7.198551525e-12
6.203095179e-12
5.343363836e-12
4.605673317e-12
3.974848651e-12
3.430151392e-12
2.957773541e-12
2.548681546e-12
2.19326224e-12
1.88553918e-12
1.620827623e-12
1.392117105e-12
1.196284978e-12
1.02849559e-12
8.824888846e-13
7.560249975e-13
6.458598335e-13
5.500793525e-13
4.675416195e-13
3.965411558e-13
3.352860647e-13
2.823239345e-13
2.367993299e-13
1.977788025e-13
1.643432065e-13
1.356832798e-13
1.11343225e-13
9.086862763e-14
7.378991292e-14
5.953530439e-14
4.736305866e-14
3.735723012e-14
2.932589103e-14
2.278217061e-14
1.748298518e-14
1.32065731e-14
9.912541236e-15
7.359191463e-15
5.415018304e-15
3.949293338e-15
2.76155792e-15
1.735206015e-15
9.150740719e-15
3.001078324e-14
1.061074291e-13
2.482296259e-13
)


101
(
-4.805185593e-20
-1.130855543e-13
-7.108144702e-12
-3.858449943e-11
-9.95648935e-11
-1.709665224e-10
-2.266151433e-10
-2.494154241e-10
-2.238934e-10
-1.437426628e-10
-6.089248664e-12
1.814662592e-10
4.059045578e-10
6.550846206e-10
9.141237888e-10
1.167353031e-09
1.400650428e-09
1.601606253e-09
1.756795016e-09
1.86380523e-09
1.913835554e-09
1.908198132e-09
1.855187129e-09
1.761173325e-09
1.63632786e-09
1.491391271e-09
1.336925143e-09
1.181415874e-09
1.031633891e-09
8.914132935e-10
7.634132307e-10
6.49046576e-10
5.483533419e-10
4.631885248e-10
3.902074041e-10
3.285350633e-10
2.767571046e-10
2.332808892e-10
1.968936592e-10
1.665025054e-10
1.409747232e-10
1.193862376e-10
1.013762408e-10
8.637980059e-11
7.383272483e-11
6.334952622e-11
5.448002228e-11
4.694403062e-11
4.049866969e-11
3.502132545e-11
3.032930479e-11
2.633124877e-11
2.293351682e-11
2.000701511e-11
1.746672369e-11
1.526097087e-11
1.335984574e-11
1.16877943e-11
1.023766318e-11
8.975966963e-12
7.878897521e-12
6.911971559e-12
6.061702139e-12
5.312528329e-12
4.654179563e-12
4.076150152e-12
3.566977643e-12
3.123269009e-12
2.735258219e-12
2.395669922e-12
2.096638115e-12
1.83232024e-12
1.596301911e-12
1.387752568e-12
1.204211477e-12
1.042837e-12
9.010448061e-13
7.765920762e-13
6.663780066e-13
5.696892909e-13
4.843253832e-13
4.099969842e-13
3.452072677e-13
2.892573129e-13
2.415459137e-13
1.997001047e-13
1.633164452e-13
1.330850207e-13
1.0771353e-13
8.639177509e-14
6.829214247e-14
5.378824411e-14
4.194541723e-14
3.252354874e-14
2.502008003e-14
1.869049424e-14
1.300881818e-14
5.445386628e-14
1.564398146e-13
4.5992693e-13
9.960638901e-13
)


101
(
-4.805163195e-20
-3.634660392e-14
-6.503434174e-12
-3.650831551e-11
-9.518776239e-11
-1.644368835e-10
-2.187167763e-10
-2.404670232e-10
-2.141372686e-10
-1.323211814e-10
9.067013063e-12
2.050478391e-10
4.431669959e-10
7.12245908e-10
9.982586732e-10
1.285452297e-09
1.559244524e-09
1.805932919e-09
2.009817318e-09
2.166981701e-09
2.263252926e-09
2.297946082e-09
2.277058496e-09
2.204737913e-09
2.090583432e-09
1.945093887e-09
1.780085568e-09
1.605692805e-09
1.430965933e-09
1.261525488e-09
1.10179068e-09
9.547532223e-10
8.2164598e-10
7.06347607e-10
6.050878441e-10
5.175639418e-10
4.425758473e-10
3.785309888e-10
3.241839387e-10
2.782320841e-10
2.390806875e-10
2.054025648e-10
1.767815491e-10
1.525111153e-10
1.319064135e-10
1.14516351e-10
9.969572166e-11
8.700681365e-11
7.605833057e-11
6.663681562e-11
5.844338102e-11
5.137468987e-11
4.53213551e-11
4.005809438e-11
3.545373128e-11
3.141111168e-11
2.788805568e-11
2.475745122e-11
2.199300456e-11
1.955906275e-11
1.742679043e-11
1.552630312e-11
1.382547725e-11
1.231428145e-11
1.097242509e-11
9.766809909e-12
8.693272333e-12
7.733910323e-12
6.887527482e-12
6.136475003e-12
5.465579927e-12
4.866635911e-12
4.323536838e-12
3.833183177e-12
3.391068208e-12
2.993519722e-12
2.64106051e-12
2.325278539e-12
2.040412191e-12
1.785172307e-12
1.553160378e-12
1.346552578e-12
1.162739034e-12
9.991760768e-13
8.552152807e-13
7.277803473e-13
6.13779096e-13
5.143317048e-13
4.293591762e-13
3.563823204e-13
2.915144552e-13
2.38346785e-13
1.924142139e-13
1.551682293e-13
1.243381279e-13
9.760101301e-14
7.261538628e-14
2.486124857e-13
6.32787844e-13
1.601955059e-12
3.499617915e-12
)


101
(
-4.805105561e-20
2.992463213e-14
-5.935947394e-12
-3.452694437e-11
-9.101776622e-11
-1.582663815e-10
-2.113800704e-10
-2.323792699e-10
-2.054755031e-10
-1.222723835e-10
2.232925313e-11
2.265299166e-10
4.786859527e-10
7.686623119e-10
1.083754005e-09
1.408367794e-09
1.727788187e-09
2.027303147e-09
2.288682238e-09
2.506668544e-09
2.661234248e-09
2.749595083e-09
2.77517893e-09
2.738685147e-09
2.648536352e-09
2.514033855e-09
2.347238873e-09
2.159448788e-09
1.962248921e-09
1.763561557e-09
1.570016227e-09
1.38616116e-09
1.214426994e-09
1.062000423e-09
9.246760969e-10
8.032329668e-10
6.969794276e-10
6.045763111e-10
5.250415596e-10
4.569334011e-10
3.98240041e-10
3.469616188e-10
3.026224496e-10
2.643397254e-10
2.313150237e-10
2.030822265e-10
1.787898421e-10
1.578706335e-10
1.396728952e-10
1.238369314e-10
1.099412258e-10
9.78041544e-11
8.728242385e-11
7.80739118e-11
6.996981987e-11
6.279472763e-11
5.646491197e-11
5.080038937e-11
4.57149042e-11
4.118180698e-11
3.715381634e-11
3.355698043e-11
3.029607072e-11
2.737891952e-11
2.475200038e-11
2.235453489e-11
2.018799492e-11
1.822308497e-11
1.646878453e-11
1.488252781e-11
1.344944459e-11
1.215907203e-11
1.097535156e-11
9.895004271e-12
8.900409273e-12
7.981073231e-12
7.152350604e-12
6.399614146e-12
5.719145101e-12
5.093139686e-12
4.51390023e-12
3.987205708e-12
3.507373027e-12
3.074290311e-12
2.684041345e-12
2.330788024e-12
2.010916721e-12
1.722861547e-12
1.469637482e-12
1.250122069e-12
1.04873899e-12
8.803715666e-13
7.303959734e-13
6.052874665e-13
5.000454674e-13
4.060621336e-13
3.160100431e-13
9.156866981e-13
2.093609201e-12
4.687030629e-12
8.404619746e-12
)


101
(
-4.805023785e-20
8.722112432e-14
-5.402250445e-12
-3.26322653e-11
-8.703071761e-11
-1.524102141e-10
-2.045413619e-10
-2.25077318e-10
-1.978214721e-10
-1.134711689e-10
3.389896268e-11
2.45866024e-10
5.123640335e-10
8.242852916e-10
1.170601478e-09
1.536196641e-09
1.906266374e-09
2.265597537e-09
2.593569646e-09
2.882873758e-09
3.109776136e-09
3.267994209e-09
3.358523825e-09
3.37591721e-09
3.327353615e-09
3.22031807e-09
3.065226809e-09
2.873814847e-09
2.660442165e-09
2.435664003e-09
2.20864249e-09
1.985640161e-09
1.770147633e-09
1.573854776e-09
1.392239559e-09
1.227865646e-09
1.080887949e-09
9.504973474e-10
8.364990391e-10
7.376598203e-10
6.514497099e-10
5.751516285e-10
5.082630103e-10
4.494865201e-10
3.978782693e-10
3.531199621e-10
3.142226629e-10
2.805274393e-10
2.509073768e-10
2.249274138e-10
2.020058393e-10
1.817636369e-10
1.639425974e-10
1.48278441e-10
1.343797227e-10
1.219502286e-10
1.109480285e-10
1.010335733e-10
9.201295556e-11
8.38465661e-11
7.651365141e-11
6.992568394e-11
6.39309604e-11
5.851993647e-11
5.354325513e-11
4.901325135e-11
4.483176505e-11
4.098134693e-11
3.748529826e-11
3.428030692e-11
3.136785437e-11
2.870463981e-11
2.62479009e-11
2.398404808e-11
2.187216813e-11
1.987894859e-11
1.802150416e-11
1.633529775e-11
1.478649211e-11
1.334994321e-11
1.201020157e-11
1.076019795e-11
9.591696587e-12
8.5308198e-12
7.556318547e-12
6.661619234e-12
5.838449624e-12
5.086697967e-12
4.404311159e-12
3.80803604e-12
3.256107259e-12
2.779891814e-12
2.354511277e-12
1.987381751e-12
1.676340281e-12
1.394820509e-12
1.12292707e-12
2.825649191e-12
5.884288312e-12
1.200059458e-11
2.048394729e-11
)


101
(
-4.804913824e-20
1.369028735e-13
-4.905933568e-12
-3.08180008e-11
-8.320825708e-11
-1.468322709e-10
-1.981477674e-10
-2.184994082e-10
-1.911390543e-10
-1.058499299e-10
4.392846542e-11
2.630517034e-10
5.440686062e-10
8.789549247e-10
1.258605185e-09
1.668848461e-09
2.094689545e-09
2.520971624e-09
2.925240096e-09
3.296361635e-09
3.611473727e-09
3.858270477e-09
4.035711647e-09
4.129315933e-09
4.144407584e-09
4.086647094e-09
3.962947046e-09
3.784039704e-09
3.56682409e-09
3.324296846e-09
3.067817781e-09
2.806032865e-09
2.544057386e-09
2.298641568e-09
2.065089318e-09
1.84868033e-09
1.65075091e-09
1.471218115e-09
1.311246475e-09
1.170604219e-09
1.046535496e-09
9.356331614e-10
8.372228434e-10
7.493917366e-10
6.709280462e-10
6.018358785e-10
5.411008026e-10
4.88042042e-10
4.410267781e-10
3.995087054e-10
3.626264682e-10
3.297910289e-10
3.005101851e-10
2.745639012e-10
2.513948896e-10
2.304595907e-10
2.118699391e-10
1.949912091e-10
1.79557877e-10
1.653790532e-10
1.525011614e-10
1.408013661e-10
1.301735724e-10
1.204672931e-10
1.114283289e-10
1.031780356e-10
9.540931037e-11
8.817744339e-11
8.148876934e-11
7.533160208e-11
6.964595811e-11
6.435375305e-11
5.945214799e-11
5.488705573e-11
5.058388723e-11
4.649150103e-11
4.260905997e-11
3.897238021e-11
3.559945341e-11
3.247213001e-11
2.954426093e-11
2.673903594e-11
2.408908131e-11
2.163836014e-11
1.936263931e-11
1.724840574e-11
1.527223104e-11
1.346159848e-11
1.177751453e-11
1.028897487e-11
8.920174879e-12
7.694816105e-12
6.605328679e-12
5.64751946e-12
4.822696491e-12
4.078867947e-12
3.359326566e-12
7.554090512e-12
1.45764168e-11
2.785446221e-11
4.734371721e-11
)


101
(
-4.80477976e-20
1.801196067e-13
-4.438917663e-12
-2.907936833e-11
-7.953645062e-11
-1.415041391e-10
-1.921544953e-10
-2.125878986e-10
-1.854571252e-10
-9.950002482e-11
5.255213578e-11
2.781841982e-10
5.737694949e-10
9.323788457e-10
1.347035105e-09
1.805156123e-09
2.291841808e-09
2.792595513e-09
3.284017012e-09
3.750487141e-09
4.17120363e-09
4.527444878e-09
4.815301878e-09
5.011859015e-09
5.117669681e-09
5.13694727e-09
5.071804216e-09
4.929527337e-09
4.728682302e-09
4.483854938e-09
4.207847788e-09
3.912344657e-09
3.605233052e-09
3.30860594e-09
3.017395343e-09
2.740813578e-09
2.481898662e-09
2.241364665e-09
2.022315624e-09
1.826595876e-09
1.651848576e-09
1.494030246e-09
1.352629987e-09
1.224931743e-09
1.10908814e-09
1.00544287e-09
9.12967726e-10
8.313479245e-10
7.588300972e-10
6.942802895e-10
6.364420612e-10
5.845534432e-10
5.378290873e-10
4.959987545e-10
4.584505921e-10
4.244281394e-10
3.939297953e-10
3.659696937e-10
3.40444471e-10
3.168049434e-10
2.947922386e-10
2.747575865e-10
2.564293758e-10
2.395210529e-10
2.237251303e-10
2.091046735e-10
1.952393781e-10
1.821750194e-10
1.699124355e-10
1.585105599e-10
1.477265963e-10
1.37656438e-10
1.282385096e-10
1.193443998e-10
1.109050554e-10
1.028528306e-10
9.50547607e-11
8.756982694e-11
8.056369547e-11
7.401481506e-11
6.783663111e-11
6.187534942e-11
5.618138903e-11
5.082583217e-11
4.575777957e-11
4.107589663e-11
3.661800661e-11
3.250763377e-11
2.863950015e-11
2.517664054e-11
2.200795603e-11
1.911686809e-11
1.652829187e-11
1.423965515e-11
1.225072319e-11
1.047230951e-11