/*--------------------------------*- C++ -*----------------------------------*\
| =========                 |                                                 |
| \\      /  F ield         | OpenFOAM: The Open Source CFD Toolbox           |
|  \\    /   O peration     | Version:  2.3.1                                 |
|   \\  /    A nd           | Web:      www.OpenFOAM.org                      |
|    \\/     M anipulation  |                                                 |
\*---------------------------------------------------------------------------*/
FoamFile
{
    version     2.0;
    format      ascii;
    class       dictionary;
    location    "constant";
    object      PM51;
}
// * * * * * * * * * * * * * * * * * * * * * * * * * * * * * * * * * * * * * //

PM51_table
101
(

101
(
3.638048679e-22
-8.758357833e-20
-6.360344486e-19
-1.487994901e-18
-2.055577328e-18
-3.434224087e-18
2.317158149e-19
2.729589484e-18
9.084769094e-18
1.632391708e-17
2.906998406e-17
3.340426498e-17
6.654566657e-17
7.507486861e-17
8.363685095e-17
1.006030687e-16
1.235667922e-16
5.677958118e-17
1.07275622e-16
1.517688649e-17
-4.705720345e-17
-9.411076106e-17
-1.893011364e-16
-2.857068463e-16
-3.789603171e-16
-4.684773242e-16
-5.452001605e-16
-6.311842625e-16
-6.854223869e-16
-7.297882442e-16
-7.38012276e-16
-6.697970908e-16
-8.966016767e-16
-7.945984761e-16
-6.692469063e-16
2.109793574e-16
3.227174466e-16
-2.281188003e-15
-1.845179323e-15
-1.177329421e-15
-9.384976417e-16
-8.837848372e-16
-8.302868037e-16
-7.583259274e-16
-6.7923287e-16
-5.91311786e-16
-4.969939093e-16
-4.158049172e-16
-3.292847517e-16
-2.588051036e-16
-1.918265727e-16
-1.270281572e-16
-7.295618468e-17
-3.499060287e-17
-2.200942401e-18
5.938956313e-17
7.078983164e-17
1.113080952e-16
1.325344045e-16
1.577688027e-16
1.756586166e-16
1.829305752e-16
1.937430675e-16
1.989820968e-16
1.971367243e-16
1.947334569e-16
1.90701523e-16
1.881310669e-16
1.765744073e-16
1.664980404e-16
1.550258503e-16
1.45038736e-16
1.292674727e-16
1.396293586e-16
9.965000218e-17
4.287438253e-17
3.504123985e-17
3.89623555e-17
3.533197372e-17
3.00629666e-17
2.619601354e-17
2.073255654e-17
1.790772836e-17
1.122540106e-17
5.038659156e-18
3.28538267e-18
2.672038554e-18
1.790130083e-18
1.141789761e-18
5.389442573e-19
1.815242875e-19
8.219792306e-20
3.829532689e-20
1.021063418e-20
3.064438698e-21
9.150457742e-22
4.748526077e-23
6.793687926e-29
-3.699700495e-39
-6.774764527e-39
1.357433106e-39
)


101
(
-9.036809554e-22
-8.847716559e-20
-6.522291936e-19
-1.625468309e-18
-2.642933953e-18
-5.055655672e-18
-3.739622454e-18
-4.931640873e-18
-4.334369537e-18
-4.958005089e-18
-2.774008913e-18
-9.950097696e-18
6.183665855e-18
5.592360826e-19
-4.024777508e-18
5.317715305e-19
1.45249776e-17
-3.5750863e-17
1.491054488e-17
-3.483675692e-17
-4.799844858e-17
-4.143401891e-17
-5.800147595e-17
-6.547584043e-17
-6.466297612e-17
-5.612116974e-17
-3.607681746e-17
-2.174244575e-17
1.158151406e-17
4.569687607e-17
9.624900971e-17
1.829971446e-16
7.793399386e-17
1.601662018e-16
2.24321452e-16
7.450834017e-16
8.441970651e-16
-5.300057767e-16
-2.751598117e-16
-1.331955226e-16
1.708864641e-17
7.101033442e-17
1.162531154e-16
1.619018214e-16
2.121622622e-16
2.670868071e-16
3.234673607e-16
3.700054496e-16
4.177997307e-16
4.538930322e-16
4.871157254e-16
5.146613647e-16
5.338149616e-16
5.452090682e-16
5.544469972e-16
5.738849954e-16
5.674811726e-16
5.752068511e-16
5.664635064e-16
5.619041951e-16
5.498328241e-16
5.334366602e-16
5.151288409e-16
4.935668815e-16
4.720540346e-16
4.493285374e-16
4.228086248e-16
3.955699744e-16
3.659887549e-16
3.37811114e-16
3.081166596e-16
2.784237389e-16
2.462412912e-16
2.238116357e-16
1.843904057e-16
1.472309785e-16
1.234689168e-16
1.033109994e-16
8.664736153e-17
7.207863808e-17
5.970853512e-17
4.788414422e-17
3.819613778e-17
2.813176207e-17
2.027654901e-17
1.444179063e-17
1.020312175e-17
7.027027804e-18
4.635733905e-18
2.856264709e-18
1.663390372e-18
8.879271916e-19
4.806975741e-19
2.18008112e-19
9.7467055e-20
4.27274108e-20
3.84749826e-21
-1.055071973e-22
6.127264957e-22
-2.162709296e-23
-1.502137896e-21
)


101
(
-1.935532343e-21
-7.7406177e-20
-5.882792857e-19
-1.447008505e-18
-2.299766053e-18
-4.421915763e-18
-3.021363469e-18
-3.6919178e-18
-2.660132737e-18
-2.302370624e-18
1.0066183e-18
-2.807258632e-18
1.382334806e-17
1.609717783e-17
1.936339583e-17
3.335673127e-17
6.044491784e-17
4.323454698e-17
1.009723886e-16
1.048136572e-16
1.275627696e-16
1.779829406e-16
2.241580469e-16
2.799309457e-16
3.495321248e-16
4.325195789e-16
5.302589765e-16
6.308816238e-16
7.454422065e-16
8.66186778e-16
9.984022118e-16
1.156738058e-15
1.206927742e-15
1.312516532e-15
1.438244002e-15
1.8153544e-15
2.146347499e-15
1.525544592e-15
1.337003872e-15
1.43664381e-15
1.584447982e-15
1.693072821e-15
1.771151783e-15
1.830199264e-15
1.881470317e-15
1.93183745e-15
1.976031154e-15
2.009350566e-15
2.033096462e-15
2.045051708e-15
2.045446791e-15
2.036701224e-15
2.019082021e-15
1.992468387e-15
1.957526504e-15
1.920761468e-15
1.870243756e-15
1.81615651e-15
1.754429514e-15
1.687471803e-15
1.616788783e-15
1.5405193e-15
1.46171581e-15
1.382832953e-15
1.30336866e-15
1.220187024e-15
1.134817927e-15
1.049379235e-15
9.658307733e-16
8.836307522e-16
8.027802644e-16
7.238099083e-16
6.468653202e-16
5.740554743e-16
5.019895621e-16
4.314006683e-16
3.682991727e-16
3.121572604e-16
2.619135589e-16
2.180077939e-16
1.802615154e-16
1.469019598e-16
1.17735856e-16
9.214254768e-17
7.038879903e-17
5.294492499e-17
3.909601152e-17
2.827197146e-17
1.982408583e-17
1.331246271e-17
8.529691864e-18
5.397680489e-18
3.466881078e-18
1.98506997e-18
1.143548976e-18
5.983860274e-19
4.418203751e-20
2.85468476e-20
1.225636914e-19
1.677868701e-19
1.085422109e-19
)


101
(
-2.752480071e-21
-6.73488608e-20
-5.288206932e-19
-1.2806188e-18
-1.980769053e-18
-3.833488494e-18
-2.362316334e-18
-2.573517852e-18
-1.165537964e-18
2.167816905e-20
4.259970687e-18
3.267645105e-18
2.027376461e-17
2.879740843e-17
3.876851976e-17
6.047762751e-17
9.802744543e-17
1.074065039e-16
1.735655341e-16
2.176556022e-16
2.739826612e-16
3.610503314e-16
4.5870999e-16
5.698432721e-16
6.992866273e-16
8.472745364e-16
1.013603801e-15
1.189735017e-15
1.379026958e-15
1.577474082e-15
1.785169816e-15
2.01296698e-15
2.181728174e-15
2.350558091e-15
2.525954589e-15
2.896830976e-15
3.281052654e-15
3.10417777e-15
2.914573727e-15
2.924019937e-15
3.038550433e-15
3.173571598e-15
3.285840502e-15
3.370737141e-15
3.439796925e-15
3.499898404e-15
3.546054417e-15
3.577232329e-15
3.590773296e-15
3.589971702e-15
3.57161494e-15
3.53972808e-15
3.494464607e-15
3.436893231e-15
3.368960158e-15
3.289015433e-15
3.199936085e-15
3.102286237e-15
2.995529315e-15
2.878935303e-15
2.75758608e-15
2.630920969e-15
2.500348509e-15
2.368425645e-15
2.234381325e-15
2.096110818e-15
1.955961911e-15
1.817301611e-15
1.682077086e-15
1.548790435e-15
1.415857067e-15
1.287220345e-15
1.16205126e-15
1.041210309e-15
9.256430145e-16
8.154030287e-16
7.11597772e-16
6.164523221e-16
5.292263661e-16
4.504536135e-16
3.801102404e-16
3.171118127e-16
2.614611157e-16
2.123191179e-16
1.694326128e-16
1.331236611e-16
1.033148428e-16
7.904231728e-17
5.923541501e-17
4.308657715e-17
3.066928208e-17
2.142351478e-17
1.446855891e-17
9.591062265e-18
6.342502934e-18
3.506502919e-18
6.591564167e-19
1.051307925e-18
2.556719325e-18
4.011273533e-18
3.96870074e-18
)


101
(
-3.374282207e-21
-5.824697308e-20
-4.73642814e-19
-1.125757887e-18
-1.684801708e-18
-3.288085444e-18
-1.758986295e-18
-1.567516322e-18
1.641459828e-19
2.04782956e-18
7.044998378e-18
8.406388029e-18
2.568167753e-17
3.909674536e-17
5.473134015e-17
8.273738401e-17
1.285826364e-16
1.592005023e-16
2.342537291e-16
3.087581713e-16
3.951060612e-16
5.134371097e-16
6.535781128e-16
8.127640764e-16
9.947330321e-16
1.199950754e-15
1.42737325e-15
1.670703902e-15
1.92896725e-15
2.198699047e-15
2.478777312e-15
2.772516229e-15
3.036534099e-15
3.283619373e-15
3.536020223e-15
3.927116433e-15
4.301154584e-15
4.408654873e-15
4.361001443e-15
4.355998498e-15
4.445689377e-15
4.585683583e-15
4.723907871e-15
4.840615165e-15
4.935876695e-15
5.013578e-15
5.07138295e-15
5.10975697e-15
5.127798559e-15
5.125722476e-15
5.100450088e-15
5.055511676e-15
4.993520384e-15
4.916184771e-15
4.823345479e-15
4.713191486e-15
4.594211369e-15
4.461706663e-15
4.318212565e-15
4.16129099e-15
3.997080384e-15
3.827656633e-15
3.651643396e-15
3.473464625e-15
3.290942097e-15
3.103578698e-15
2.914852086e-15
2.727058022e-15
2.540448932e-15
2.35694712e-15
2.173117728e-15
1.994681397e-15
1.820029876e-15
1.650422864e-15
1.486647893e-15
1.329940788e-15
1.182625817e-15
1.045313221e-15
9.152865612e-16
7.95889046e-16
6.865380283e-16
5.878068046e-16
4.979736439e-16
4.172806703e-16
3.449722249e-16
2.818694354e-16
2.273692287e-16
1.822570865e-16
1.440015745e-16
1.11355753e-16
8.38913372e-17
6.273215292e-17
4.647506052e-17
3.377379514e-17
2.401529836e-17
1.400771701e-17
5.52123215e-18
9.148584309e-18
1.524436553e-17
1.945407871e-17
1.739693705e-17
)


101
(
-3.819750171e-21
-5.004429688e-20
-4.225411164e-19
-9.819020777e-19
-1.410771169e-18
-2.783541204e-18
-1.208079184e-18
-6.656849442e-19
1.342316609e-18
3.805797373e-18
9.413326828e-18
1.272401331e-17
3.017271733e-17
4.736393303e-17
6.772316836e-17
1.008417197e-16
1.532105559e-16
2.006528943e-16
2.844171303e-16
3.820507268e-16
4.943921765e-16
6.395867541e-16
8.148930814e-16
1.015377102e-15
1.243229317e-15
1.498978474e-15
1.781097821e-15
2.084518051e-15
2.406024984e-15
2.742117327e-15
3.090355312e-15
3.448223827e-15
3.7942557e-15
4.118194067e-15
4.437938253e-15
4.832885349e-15
5.254124173e-15
5.530159161e-15
5.642977135e-15
5.707054619e-15
5.807525876e-15
5.952259432e-15
6.108517716e-15
6.253624863e-15
6.377274474e-15
6.479052765e-15
6.55878143e-15
6.617662885e-15
6.652512063e-15
6.65951232e-15
6.638504883e-15
6.591388208e-15
6.523420103e-15
6.437124954e-15
6.332216591e-15
6.204768735e-15
6.062215079e-15
5.905906534e-15
5.733559555e-15
5.543742868e-15
5.347168761e-15
5.1435175e-15
4.929990798e-15
4.712255818e-15
4.488115111e-15
4.257969806e-15
4.024132391e-15
3.788532065e-15
3.556020073e-15
3.324560848e-15
3.092112429e-15
2.864330052e-15
2.640960046e-15
2.422376689e-15
2.209230314e-15
2.004186623e-15
1.810114039e-15
1.623878193e-15
1.446561739e-15
1.282154599e-15
1.129865162e-15
9.89553599e-16
8.579596649e-16
7.380398721e-16
6.289416017e-16
5.300586791e-16
4.414305212e-16
3.658989074e-16
3.012839991e-16
2.45103089e-16
1.941643344e-16
1.526237566e-16
1.193579321e-16
9.248975934e-17
7.057913861e-17
4.11416791e-17
1.908426718e-17
3.226142784e-17
6.610664474e-17
9.501520228e-17
9.074957766e-17
)


101
(
-4.106763128e-21
-4.268613917e-20
-3.753169911e-19
-8.485436416e-19
-1.157626722e-18
-2.317788607e-18
-7.064815819e-19
1.396978095e-19
2.381153625e-18
5.321593053e-18
1.140953988e-17
1.6315994e-17
3.384951265e-17
5.389100879e-17
7.811784016e-17
1.153303188e-16
1.727123114e-16
2.332817138e-16
3.250644443e-16
4.402763534e-16
5.744308128e-16
7.425156228e-16
9.467952414e-16
1.182164003e-15
1.449510357e-15
1.74935806e-15
2.080041447e-15
2.437090076e-15
2.816103955e-15
3.213172912e-15
3.624505789e-15
4.046454561e-15
4.466418989e-15
4.865658633e-15
5.256176556e-15
5.682774365e-15
6.141222841e-15
6.529973353e-15
6.789125169e-15
6.959336702e-15
7.110712803e-15
7.276990876e-15
7.453660057e-15
7.625090237e-15
7.77830905e-15
7.910192381e-15
8.020090772e-15
8.107331947e-15
8.166441255e-15
8.193244016e-15
8.187277118e-15
8.147973433e-15
8.085087262e-15
8.002201769e-15
7.895577836e-15
7.760899217e-15
7.608258444e-15
7.437136949e-15
7.245051704e-15
7.033768926e-15
6.813318544e-15
6.58131606e-15
6.337076424e-15
6.086678402e-15
5.828838534e-15
5.562455611e-15
5.288787589e-15
5.011974628e-15
4.736424074e-15
4.460936032e-15
4.186812864e-15
3.912859702e-15
3.641745468e-15
3.3739234e-15
3.11183909e-15
2.858224569e-15
2.614822799e-15
2.378078784e-15
2.151968738e-15
1.938332248e-15
1.738626905e-15
1.55042029e-15
1.372667007e-15
1.206800113e-15
1.053850492e-15
9.110681545e-16
7.800729228e-16
6.645287324e-16
5.66100749e-16
4.761728628e-16
3.935527462e-16
3.218330168e-16
2.628987028e-16
2.141909004e-16
1.654206074e-16
9.992336131e-17
7.16000181e-17
1.185065613e-16
1.98078728e-16
2.598714579e-16
2.420951672e-16
)


101
(
-4.252285377e-21
-3.57629012e-20
-3.191752029e-19
-7.251918141e-19
-9.243617806e-19
-1.888873383e-18
-2.513007055e-19
8.558569878e-19
3.291926094e-18
6.619142214e-18
1.307447464e-17
1.927041472e-17
3.680758503e-17
5.893702319e-17
8.62574218e-17
1.266872736e-16
1.878011547e-16
2.584027842e-16
3.571933361e-16
4.856695033e-16
6.37618337e-16
8.248955578e-16
1.052740149e-15
1.317008709e-15
1.617753142e-15
1.955494465e-15
2.328777413e-15
2.73355852e-15
3.164739954e-15
3.617892858e-15
4.08841008e-15
4.571780115e-15
5.060337223e-15
5.532435345e-15
5.99530606e-15
6.470556967e-15
6.968765689e-15
7.438320101e-15
7.81903367e-15
8.104766585e-15
8.336176336e-15
8.551153964e-15
8.761385691e-15
8.962674361e-15
9.147457502e-15
9.313022465e-15
9.458151223e-15
9.580407156e-15
9.673484299e-15
9.730689657e-15
9.746964023e-15
9.726264866e-15
9.679801131e-15
9.607383115e-15
9.507943178e-15
9.379874506e-15
9.227696303e-15
9.050852951e-15
8.850395648e-15
8.626589205e-15
8.390082627e-15
8.139518314e-15
7.872401564e-15
7.59759047e-15
7.313318843e-15
7.01909178e-15
6.71646236e-15
6.406545324e-15
6.093363045e-15
5.778238611e-15
5.462804247e-15
5.144678609e-15
4.830607376e-15
4.518555284e-15
4.209188749e-15
3.90797683e-15
3.616367344e-15
3.330977026e-15
3.054088171e-15
2.786217732e-15
2.534501342e-15
2.296457875e-15
2.070432444e-15
1.853940612e-15
1.652874474e-15
1.458780568e-15
1.27910605e-15
1.114693149e-15
9.728277041e-16
8.429803635e-16
7.183378915e-16
6.026141233e-16
5.114263408e-16
4.320055509e-16
3.440070692e-16
2.235511937e-16
1.943510764e-16
3.150388837e-16
4.936955237e-16
6.300964416e-16
5.852430901e-16
)


101
(
-4.272386896e-21
-3.044471358e-20
-2.812183651e-19
-6.113729763e-19
-7.100029655e-19
-1.494916167e-18
1.601532623e-19
1.489315712e-18
4.084836339e-18
7.719783479e-18
1.444368651e-17
2.16641129e-17
3.912864303e-17
6.272154602e-17
9.244043889e-17
1.353246207e-16
1.990899313e-16
2.771412974e-16
3.817503374e-16
5.200819667e-16
6.861324896e-16
8.891676658e-16
1.135908753e-15
1.423794595e-15
1.752514398e-15
2.122658748e-15
2.533059766e-15
2.979986474e-15
3.457938257e-15
3.962002698e-15
4.487096079e-15
5.028241475e-15
5.580544266e-15
6.121901607e-15
6.655436397e-15
7.18763717e-15
7.732019394e-15
8.267991648e-15
8.748666111e-15
9.146034738e-15
9.474331935e-15
9.759990277e-15
1.001951459e-14
1.026015015e-14
1.048218944e-14
1.06856145e-14
1.08707843e-14
1.103619054e-14
1.117122198e-14
1.126534865e-14
1.131475531e-14
1.132661241e-14
1.13048676e-14
1.125306456e-14
1.117388303e-14
1.10589622e-14
1.091534709e-14
1.074290668e-14
1.054526285e-14
1.032132933e-14
1.007914772e-14
9.818399109e-15
9.537758503e-15
9.247556009e-15
8.946445395e-15
8.63316853e-15
8.308015711e-15
7.968685381e-15
7.621048998e-15
7.271452641e-15
6.921812252e-15
6.57079948e-15
6.219592461e-15
5.86410688e-15
5.509416424e-15
5.163912879e-15
4.824859081e-15
4.491861507e-15
4.165503631e-15
3.845093209e-15
3.538278778e-15
3.250547614e-15
2.97359914e-15
2.707841504e-15
2.451762123e-15
2.204077776e-15
1.972516873e-15
1.751563034e-15
1.558436001e-15
1.380316127e-15
1.202516525e-15
1.041936395e-15
9.113689501e-16
7.891126454e-16
6.480192355e-16
4.300944072e-16
4.322577841e-16
6.920039042e-16
1.044774025e-15
1.33879149e-15
1.270173732e-15
)


101
(
-4.182260511e-21
-2.515959335e-20
-2.550149419e-19
-4.604476679e-19
-5.136295769e-19
-1.134130298e-18
5.303849244e-19
2.045945116e-18
4.769173885e-18
8.642814879e-18
1.554895298e-17
2.356310114e-17
4.08807262e-17
6.54218553e-17
9.691733688e-17
1.415828408e-16
2.070791894e-16
2.904258692e-16
3.995723173e-16
5.449932297e-16
7.218055826e-16
9.374238138e-16
1.199204037e-15
1.506113664e-15
1.858084249e-15
2.255820673e-15
2.698225323e-15
3.181774625e-15
3.700854396e-15
4.250281793e-15
4.824615442e-15
5.41851795e-15
6.028656097e-15
6.634242551e-15
7.235263273e-15
7.829562376e-15
8.428367793e-15
9.027045968e-15
9.591296528e-15
1.008858665e-14
1.051642845e-14
1.088685199e-14
1.121452175e-14
1.151048838e-14
1.178107813e-14
1.202964832e-14
1.225952121e-14
1.247049131e-14
1.264979824e-14
1.278929511e-14
1.288555428e-14
1.294070701e-14
1.295525386e-14
1.293626108e-14
1.288080399e-14
1.278852878e-14
1.266538275e-14
1.250849462e-14
1.23254777e-14
1.211068654e-14
1.187246071e-14
1.161118494e-14
1.132807537e-14
1.102994204e-14
1.071639528e-14
1.038788532e-14
1.004691673e-14
9.687775528e-15
9.318870954e-15
8.944959402e-15
8.566655585e-15
8.183722391e-15
7.798160757e-15
7.410042307e-15
7.017493577e-15
6.627673576e-15
6.242866824e-15
5.868983651e-15
5.496602075e-15
5.12326164e-15
4.763260522e-15
4.426542372e-15
4.099788996e-15
3.784920079e-15
3.470627445e-15
3.170419755e-15
2.88182865e-15
2.601872363e-15
2.350627265e-15
2.121438685e-15
1.887578016e-15
1.676836946e-15
1.495013388e-15
1.321857463e-15
1.111055834e-15
7.693748038e-16
8.568943957e-16
1.319357327e-15
1.901848431e-15
2.454890184e-15
2.418982003e-15
)


101
(
-3.996239569e-21
-2.066892297e-20
-2.214345194e-19
-3.695063986e-19
-3.343490096e-19
-8.047883231e-19
8.618056983e-19
2.531313679e-18
5.353632862e-18
9.405960721e-18
1.641942645e-17
2.502676208e-17
4.212639028e-17
6.718899515e-17
9.990939096e-17
1.457639433e-16
2.122029858e-16
2.99039987e-16
4.1143889e-16
5.616430115e-16
7.462531168e-16
9.715551177e-16
1.245165181e-15
1.567032118e-15
1.938039886e-15
2.358898814e-15
2.828317842e-15
3.343070778e-15
3.897843367e-15
4.487371641e-15
5.105790155e-15
5.747328977e-15
6.409710076e-15
7.074679462e-15
7.740290348e-15
8.398890502e-15
9.057159472e-15
9.716298976e-15
1.03521423e-14
1.09377977e-14
1.146315987e-14
1.192825276e-14
1.233959678e-14
1.270761694e-14
1.304095086e-14
1.334412511e-14
1.362265686e-14
1.387951615e-14
1.410755511e-14
1.430024459e-14
1.445111811e-14
1.455731197e-14
1.461814063e-14
1.463658732e-14
1.461429311e-14
1.456137269e-14
1.446767523e-14
1.433786995e-14
1.417600779e-14
1.397951571e-14
1.37543747e-14
1.350256493e-14
1.322547076e-14
1.2924868e-14
1.26058328e-14
1.227343403e-14
1.192494522e-14
1.155715103e-14
1.117462481e-14
1.077973603e-14
1.037795032e-14
9.970898564e-15
9.561671314e-15
9.145921985e-15
8.720254482e-15
8.289019876e-15
7.866573733e-15
7.455177668e-15
7.038780311e-15
6.619462986e-15
6.212035166e-15
5.823805088e-15
5.451056055e-15
5.088973734e-15
4.717197566e-15
4.36036652e-15
4.017377457e-15
3.682232595e-15
3.375900134e-15
3.086221425e-15
2.792274223e-15
2.530375666e-15
2.293620785e-15
2.066762674e-15
1.768834436e-15
1.264994048e-15
1.534310034e-15
2.30925232e-15
3.093739317e-15
3.727042656e-15
3.551004727e-15
)


101
(
-3.727815316e-21
-1.67759584e-20
-1.90826548e-19
-3.226473544e-19
-1.71291267e-19
-5.052234946e-19
1.156702618e-18
2.950635512e-18
5.846042225e-18
1.002446258e-17
1.708018046e-17
2.610777658e-17
4.292374513e-17
6.815852633e-17
1.016207474e-16
1.481452434e-16
2.148599866e-16
3.036980716e-16
4.181249718e-16
5.712022022e-16
7.609878273e-16
9.932230021e-16
1.275601352e-15
1.60863869e-15
1.994323013e-15
2.433487078e-15
2.9249278e-15
3.465855892e-15
4.05144736e-15
4.676326311e-15
5.334322457e-15
6.019516747e-15
6.730381203e-15
7.450389754e-15
8.176932545e-15
8.899122169e-15
9.618515704e-15
1.03370764e-14
1.103843358e-14
1.170404642e-14
1.232170333e-14
1.288428018e-14
1.338904436e-14
1.384238524e-14
1.425065233e-14
1.461739354e-14
1.495119437e-14
1.525982614e-14
1.554212683e-14
1.57926271e-14
1.600270997e-14
1.616676011e-14
1.62816388e-14
1.634669179e-14
1.637349278e-14
1.636358037e-14
1.630611506e-14
1.62092476e-14
1.607761956e-14
1.590941891e-14
1.570613204e-14
1.547203269e-14
1.520780686e-14
1.491625638e-14
1.460127476e-14
1.427074591e-14
1.392159213e-14
1.355387284e-14
1.316486058e-14
1.275550606e-14
1.233761069e-14
1.191422838e-14
1.148301063e-14
1.104268744e-14
1.059178431e-14
1.013165187e-14
9.677955121e-15
9.22752906e-15
8.774401697e-15
8.318633642e-15
7.866046546e-15
7.428499923e-15
7.012966653e-15
6.603690596e-15
6.179296643e-15
5.770152652e-15
5.378325275e-15
4.99404926e-15
4.626161066e-15
4.269612857e-15
3.924252767e-15
3.609750708e-15
3.318515138e-15
3.038957509e-15
2.648480762e-15
1.969372652e-15
2.471468469e-15
3.611945635e-15
4.652550179e-15
5.544717594e-15
5.354456964e-15
)


101
(
-3.389655447e-21
-1.50131265e-20
-1.630266357e-19
-2.425533542e-19
-2.361498888e-20
-2.338220811e-19
1.417308742e-18
3.308871005e-18
6.253729177e-18
1.051235407e-17
1.755363004e-17
2.685358573e-17
4.332507412e-17
6.844712201e-17
1.022302259e-16
1.489661307e-16
2.154059678e-16
3.050463193e-16
4.203807876e-16
5.747141554e-16
7.673072407e-16
1.003770817e-15
1.291779853e-15
1.632373423e-15
2.028403009e-15
2.481144544e-15
2.989966754e-15
3.552535333e-15
4.164537126e-15
4.820415557e-15
5.513872534e-15
6.239278463e-15
6.995650858e-15
7.766708006e-15
8.549858337e-15
9.3328435e-15
1.011288112e-14
1.089043423e-14
1.165468341e-14
1.239477534e-14
1.30985844e-14
1.375590205e-14
1.435693944e-14
1.490280921e-14
1.53953234e-14
1.583611111e-14
1.623526461e-14
1.66027455e-14
1.694379102e-14
1.725609294e-14
1.752867575e-14
1.775583162e-14
1.793289856e-14
1.805576139e-14
1.813625944e-14
1.817097065e-14
1.816034721e-14
1.810383557e-14
1.801273043e-14
1.787913856e-14
1.770678416e-14
1.749782606e-14
1.725387624e-14
1.697782415e-14
1.667770017e-14
1.635637737e-14
1.601117116e-14
1.564802941e-14
1.525771348e-14
1.484391472e-14
1.441754906e-14
1.397999287e-14
1.352958471e-14
1.307139764e-14
1.260022361e-14
1.211817189e-14
1.16319594e-14
1.115292255e-14
1.066821489e-14
1.017625033e-14
9.681871626e-15
9.203781606e-15
8.741539623e-15
8.290072877e-15
7.824983388e-15
7.362384354e-15
6.919255077e-15
6.491914745e-15
6.065068766e-15
5.647060677e-15
5.253257887e-15
4.894382577e-15
4.54615419e-15
4.216035295e-15
3.730192033e-15
2.868510068e-15
3.705899732e-15
5.281698256e-15
6.480323818e-15
7.474255796e-15
7.201875141e-15
)


101
(
-2.993621794e-21
-1.240779192e-20
-1.378747687e-19
-1.698495416e-19
1.094956245e-19
1.096982951e-20
1.64576336e-18
3.610714255e-18
6.583411466e-18
1.088233376e-17
1.786016974e-17
2.730633908e-17
4.337878066e-17
6.815648733e-17
1.01896763e-16
1.484428267e-16
2.141549921e-16
3.036374056e-16
4.188829697e-16
5.730986311e-16
7.664190997e-16
1.004590317e-15
1.295293987e-15
1.640272701e-15
2.043014096e-15
2.505238831e-15
3.027055482e-15
3.606663087e-15
4.240305434e-15
4.922521119e-15
5.647218187e-15
6.409053409e-15
7.207031265e-15
8.024720833e-15
8.859639584e-15
9.699541285e-15
1.05387575e-14
1.137573052e-14
1.220309945e-14
1.301344817e-14
1.379666255e-14
1.454330491e-14
1.523972143e-14
1.588150641e-14
1.646517463e-14
1.698950043e-14
1.746335392e-14
1.789702687e-14
1.830185624e-14
1.867643423e-14
1.901201479e-14
1.930703518e-14
1.955321908e-14
1.97399954e-14
1.987784954e-14
1.996845385e-14
2.001117186e-14
2.000409587e-14
1.995690363e-14
1.986452801e-14
1.972928515e-14
1.955058787e-14
1.933230311e-14
1.908139062e-14
1.880260861e-14
1.849050497e-14
1.815572825e-14
1.779011444e-14
1.740578092e-14
1.70050534e-14
1.657402389e-14
1.612276394e-14
1.565607094e-14
1.51813147e-14
1.469257409e-14
1.418782135e-14
1.368211878e-14
1.317227442e-14
1.265397483e-14
1.213123597e-14
1.160001774e-14
1.107979439e-14
1.057014469e-14
1.00790225e-14
9.57517563e-15
9.061943287e-15
8.571035856e-15
8.101895816e-15
7.626215557e-15
7.154260675e-15
6.707471698e-15
6.311058946e-15
5.906884313e-15
5.53270991e-15
4.951381616e-15
3.924946488e-15
5.168068079e-15
7.238192688e-15
8.470430905e-15
9.51516371e-15
9.208741648e-15
)


101
(
-2.550786558e-21
-8.247857326e-21
-1.139051091e-19
-1.041445234e-19
2.288330263e-19
2.30658732e-19
1.844095989e-18
3.86058948e-18
6.841260031e-18
1.114558775e-17
1.801900519e-17
2.750376797e-17
4.312978491e-17
6.737998993e-17
1.007701845e-16
1.467840676e-16
2.113771498e-16
2.999078349e-16
4.141511498e-16
5.669925615e-16
7.592575895e-16
9.969745475e-16
1.287924823e-15
1.634494656e-15
2.040738778e-15
2.508861671e-15
3.039536857e-15
3.631465403e-15
4.28166196e-15
4.985341689e-15
5.736966038e-15
6.531025346e-15
7.365799128e-15
8.225380473e-15
9.107352693e-15
1.000017986e-14
1.089656421e-14
1.179297973e-14
1.26830257e-14
1.355992848e-14
1.441765231e-14
1.524761886e-14
1.603464525e-14
1.677126441e-14
1.745049059e-14
1.80664067e-14
1.862313645e-14
1.913065192e-14
1.960271906e-14
2.003964372e-14
2.044075795e-14
2.080665854e-14
2.112369564e-14
2.137980998e-14
2.158299448e-14
2.173545763e-14
2.183463996e-14
2.188079147e-14
2.18795389e-14
2.183397382e-14
2.173788907e-14
2.15930195e-14
2.140536432e-14
2.118611954e-14
2.092883791e-14
2.063188381e-14
2.030671631e-14
1.995402947e-14
1.957334897e-14
1.917390726e-14
1.874057783e-14
1.827847736e-14
1.780059343e-14
1.730842368e-14
1.679957101e-14
1.627465274e-14
1.574421809e-14
1.51987384e-14
1.465412198e-14
1.409283393e-14
1.352405769e-14
1.29611827e-14
1.240611934e-14
1.18670862e-14
1.132573678e-14
1.077152987e-14
1.023000018e-14
9.71402305e-15
9.198708495e-15
8.671628744e-15
8.174226805e-15
7.73364457e-15
7.281067078e-15
6.872869422e-15
6.209607142e-15
5.010030011e-15
6.689527695e-15
9.303809147e-15
1.044838138e-14
1.153315262e-14
1.134704897e-14
)


101
(
-2.071452091e-21
-6.318174293e-21
-9.464245554e-20
-4.50575224e-20
3.351622221e-19
4.26697164e-19
2.014257034e-18
4.062695063e-18
7.033120352e-18
1.131237529e-17
1.804770239e-17
2.747950702e-17
4.261839118e-17
6.619995119e-17
9.898646299e-17
1.441787184e-16
2.073107007e-16
2.942110914e-16
4.06599254e-16
5.568555721e-16
7.46576822e-16
9.820570149e-16
1.271264439e-15
1.616955777e-15
2.023815014e-15
2.494610084e-15
3.030266497e-15
3.630046444e-15
4.292004211e-15
5.012389128e-15
5.786268234e-15
6.607748292e-15
7.474439324e-15
8.371037614e-15
9.295259367e-15
1.023674024e-14
1.118732971e-14
1.214174627e-14
1.309300247e-14
1.403463715e-14
1.49616052e-14
1.58672964e-14
1.673890843e-14
1.756730097e-14
1.834213596e-14
1.905276649e-14
1.969971479e-14
2.028964714e-14
2.083294913e-14
2.133570046e-14
2.180445173e-14
2.223968449e-14
2.262679301e-14
2.295595917e-14
2.322713351e-14
2.34413728e-14
2.360031493e-14
2.370140062e-14
2.37488866e-14
2.373792094e-14
2.369305098e-14
2.358602897e-14
2.343386456e-14
2.32456196e-14
2.300665775e-14
2.272772211e-14
2.241245724e-14
2.207519183e-14
2.169392274e-14
2.128041693e-14
2.084836321e-14
2.037575278e-14
1.988705538e-14
1.937454586e-14
1.883357278e-14
1.828182649e-14
1.77140469e-14
1.714029565e-14
1.655789878e-14
1.59499173e-14
1.533872815e-14
1.473081657e-14
1.412232143e-14
1.353607545e-14
1.294526471e-14
1.234446291e-14
1.175411729e-14
1.11860164e-14
1.06247044e-14
1.004119656e-14
9.499014665e-15
9.01066564e-15
8.522226682e-15
8.082047017e-15
7.345296996e-15
5.968834195e-15
8.13868883e-15
1.131897767e-14
1.219152364e-14
1.289878608e-14
1.258592788e-14
)


101
(
-1.565168812e-21
-6.98777338e-21
-7.679908406e-20
7.782918264e-21
4.292240175e-19
6.004741649e-19
2.158125017e-18
4.221006713e-18
7.16459414e-18
1.139215503e-17
1.796158041e-17
2.72641768e-17
4.188206412e-17
6.46869616e-17
9.666205279e-17
1.407842489e-16
2.021714065e-16
2.868878517e-16
3.966919961e-16
5.433393009e-16
7.293129068e-16
9.610466229e-16
1.246713739e-15
1.589270695e-15
1.994009738e-15
2.464295697e-15
3.0012728e-15
3.604894406e-15
4.274358303e-15
5.006858341e-15
5.797788501e-15
6.641196728e-15
7.534801422e-15
8.463478777e-15
9.42521101e-15
1.041106782e-14
1.141232114e-14
1.242199899e-14
1.343173241e-14
1.443449064e-14
1.542539338e-14
1.640178619e-14
1.735105157e-14
1.82639398e-14
1.912989869e-14
1.993602598e-14
2.067839493e-14
2.135545362e-14
2.197575464e-14
2.254987252e-14
2.308633285e-14
2.358751159e-14
2.404341503e-14
2.444388302e-14
2.478174688e-14
2.505881143e-14
2.527886255e-14
2.543306111e-14
2.552797665e-14
2.556008498e-14
2.554796264e-14
2.548738717e-14
2.536947514e-14
2.520330396e-14
2.498352058e-14
2.472132431e-14
2.440803588e-14
2.406033818e-14
2.367884893e-14
2.325905925e-14
2.281236719e-14
2.232835211e-14
2.181573906e-14
2.127295237e-14
2.069594044e-14
2.009845751e-14
1.948984816e-14
1.887256179e-14
1.823902101e-14
1.758272863e-14
1.691685639e-14
1.624551706e-14
1.557411246e-14
1.492887273e-14
1.427754009e-14
1.362305009e-14
1.297614607e-14
1.234992052e-14
1.173080421e-14
1.109500632e-14
1.050935093e-14
9.969187043e-15
9.446821323e-15
8.97785912e-15
8.182208776e-15
6.666070029e-15
9.328699905e-15
1.304799008e-14
1.352902107e-14
1.387512635e-14
1.355413429e-14
)


101
(
-1.040744131e-21
-5.863772928e-21
-6.075436418e-20
5.473545968e-20
5.841747393e-19
7.533140105e-19
2.277474025e-18
4.339234689e-18
7.241152442e-18
1.139365766e-17
1.7774101e-17
2.688562493e-17
4.095504966e-17
6.290043244e-17
9.389075691e-17
1.367220247e-16
1.961245024e-16
2.782262676e-16
3.848562434e-16
5.272068726e-16
7.084743717e-16
9.351741082e-16
1.21552427e-15
1.552847209e-15
1.952868702e-15
2.419604892e-15
2.954596858e-15
3.558483126e-15
4.231503189e-15
4.971502224e-15
5.774143471e-15
6.633964271e-15
7.549285972e-15
8.504994277e-15
9.499236455e-15
1.052438784e-14
1.157125048e-14
1.263151592e-14
1.369458539e-14
1.475394936e-14
1.580784092e-14
1.684902006e-14
1.786794429e-14
1.885802205e-14
1.980935063e-14
2.07071156e-14
2.154344269e-14
2.231045067e-14
2.301440355e-14
2.366361031e-14
2.426772617e-14
2.483194032e-14
2.53522666e-14
2.581907052e-14
2.622142683e-14
2.656124955e-14
2.683875869e-14
2.704371768e-14
2.718481441e-14
2.72677872e-14
2.727847249e-14
2.724057498e-14
2.71591385e-14
2.700690767e-14
2.680043534e-14
2.654022248e-14
2.622173272e-14
2.586229685e-14
2.546410793e-14
2.502874874e-14
2.454587776e-14
2.403079265e-14
2.347912521e-14
2.289526583e-14
2.227091612e-14
2.161676921e-14
2.094375737e-14
2.025580281e-14
1.956047812e-14
1.884169265e-14
1.810386536e-14
1.735106306e-14
1.660800288e-14
1.588405108e-14
1.515962442e-14
1.443468193e-14
1.372323196e-14
1.302802057e-14
1.234384038e-14
1.165699456e-14
1.1016902e-14
1.042370761e-14
9.868359874e-15
9.374075711e-15
8.534888082e-15
6.9149396e-15
1.007799724e-14
1.431977909e-14
1.433519612e-14