/*--------------------------------*- C++ -*----------------------------------*\
| =========                 |                                                 |
| \\      /  F ield         | OpenFOAM: The Open Source CFD Toolbox           |
|  \\    /   O peration     | Version:  2.3.1                                 |
|   \\  /    A nd           | Web:      www.OpenFOAM.org                      |
|    \\/     M anipulation  |                                                 |
\*---------------------------------------------------------------------------*/
FoamFile
{
    version     2.0;
    format      ascii;
    class       dictionary;
    location    "constant";
    object      PM53;
}
// * * * * * * * * * * * * * * * * * * * * * * * * * * * * * * * * * * * * * //

PM53_table
101
(

101
(
3.694642828e-21
-5.677328359e-19
-3.804309805e-18
-1.029635375e-17
-2.393023444e-17
-7.161805215e-17
-1.179951097e-16
-1.994951049e-16
-1.955865655e-16
-4.02612241e-17
5.536224888e-16
1.096460653e-15
3.583989649e-15
5.389828832e-15
7.497561218e-15
1.060487329e-14
1.519807762e-14
1.18374419e-14
2.089585899e-14
1.601583743e-14
1.422490929e-14
1.783930224e-14
1.441224127e-14
1.062082095e-14
7.725983609e-15
4.783156054e-15
1.833267024e-15
-1.040807706e-15
-3.923810443e-15
-6.751974433e-15
-8.940945158e-15
-8.212620653e-15
-1.687658551e-14
-1.650882667e-14
-1.713477133e-14
-1.854352891e-14
-1.755108299e-14
-1.782893543e-14
-2.331971198e-14
-2.567122704e-14
-2.087049917e-14
-2.328223089e-14
-2.420092879e-14
-2.125052966e-14
-2.30434265e-14
-2.213137908e-14
-2.367427785e-14
-2.307816871e-14
-2.400163823e-14
-2.288138719e-14
-2.247249997e-14
-2.225328623e-14
-2.156207708e-14
-2.055795977e-14
-1.978628115e-14
-2.207330543e-14
-1.918526359e-14
-1.978447764e-14
-1.892753623e-14
-1.879475213e-14
-1.812736392e-14
-1.715398978e-14
-1.682608072e-14
-1.626100178e-14
-1.582567028e-14
-1.510121317e-14
-1.438251045e-14
-1.433694007e-14
-1.360098728e-14
-1.307504462e-14
-1.271906507e-14
-1.274486171e-14
-1.169692032e-14
-1.02549117e-14
-8.914835903e-15
-9.056696106e-15
-8.961595971e-15
-8.152072448e-15
-7.308726296e-15
-6.604095705e-15
-6.600908196e-15
-6.003632794e-15
-5.420279811e-15
-4.884151201e-15
-4.279754e-15
-3.800622098e-15
-3.400052616e-15
-3.02407117e-15
-2.646396781e-15
-2.215097976e-15
-1.784980631e-15
-1.489069036e-15
-1.203711078e-15
-8.811988314e-16
-6.213151378e-16
1.376450406e-15
3.03870071e-15
4.626073045e-21
-1.148994292e-30
-1.607780305e-31
2.169950275e-30
)


101
(
-5.005628541e-21
-5.741050071e-19
-3.916709961e-18
-1.122233102e-17
-2.817273363e-17
-8.54814129e-17
-1.61883335e-16
-3.158444251e-16
-4.770058641e-16
-6.432211158e-16
-6.250373864e-16
-9.165934749e-16
1.710632296e-16
3.802888667e-16
6.321462703e-16
1.579472699e-15
3.755997261e-15
-1.841056915e-16
5.962495049e-15
1.703464602e-15
5.511114406e-16
3.570614069e-15
1.97061755e-15
6.316234346e-16
-6.539587871e-18
-4.936592121e-16
-8.368986389e-16
-1.077398255e-15
-1.331359649e-15
-1.610696708e-15
-1.578265286e-15
1.812280719e-16
-3.842545581e-15
-2.360914271e-15
-2.182682161e-15
-1.995554515e-15
-7.106305089e-16
-3.049139928e-16
-2.725966667e-15
-3.608328027e-15
-1.114457766e-15
-2.189063747e-15
-1.956226847e-15
-4.58155958e-16
-1.24179467e-15
-4.527686623e-16
-1.386507828e-15
-1.022689716e-15
-1.716314005e-15
-1.195092618e-15
-1.211524457e-15
-1.070220826e-15
-8.551770132e-16
-5.319507939e-16
-3.09798123e-16
-1.418977718e-15
-3.34326782e-16
-1.110627279e-15
-6.236697419e-16
-9.466494092e-16
-7.546104062e-16
-6.13795676e-16
-6.177305665e-16
-5.295030351e-16
-5.77303209e-16
-4.873440503e-16
-4.373644458e-16
-6.155011149e-16
-5.57731163e-16
-6.759088424e-16
-7.403833318e-16
-9.336431348e-16
-6.476515673e-16
-2.382268294e-16
2.23134475e-16
4.527458638e-17
-1.065733684e-16
-1.531912684e-16
-5.668592056e-17
5.378688586e-17
-1.213405732e-16
-7.752785489e-17
-8.508211815e-17
-2.902979711e-17
-2.014407788e-17
-4.254747083e-17
-6.019626183e-17
-7.245697632e-17
-6.100284085e-17
-3.465318341e-17
-3.84905865e-17
-3.600866545e-17
-1.374332549e-17
3.380018773e-17
1.221097502e-15
5.994443107e-15
2.52995532e-14
3.774387535e-14
3.94294227e-14
4.085793275e-14
4.038624494e-14
)


101
(
-1.22079415e-20
-5.043360561e-19
-3.499605379e-18
-9.784825258e-18
-2.397265781e-17
-7.352143081e-17
-1.36619798e-16
-2.647365454e-16
-3.954664926e-16
-5.261019119e-16
-4.937164826e-16
-7.261275608e-16
1.830580273e-16
4.593567357e-16
6.525412219e-16
1.389288206e-15
3.193091184e-15
3.233826054e-16
4.386398698e-15
2.08430985e-15
4.745388049e-16
2.361425366e-15
1.772433086e-15
5.32924968e-16
-2.78042932e-16
-8.40394145e-16
-1.249258295e-15
-1.546559667e-15
-1.82375714e-15
-2.126228018e-15
-2.25387106e-15
-1.242212145e-15
-3.259006215e-15
-3.483252373e-15
-3.225946837e-15
-3.054436655e-15
-2.325401205e-15
-1.763923844e-15
-2.950477873e-15
-4.198650182e-15
-3.384364241e-15
-3.285446932e-15
-3.325413334e-15
-2.531837735e-15
-2.425004565e-15
-2.154748915e-15
-2.388306384e-15
-2.457067535e-15
-2.731369751e-15
-2.687768629e-15
-2.558232549e-15
-2.425743565e-15
-2.235661042e-15
-1.97053968e-15
-1.701948924e-15
-2.025584467e-15
-1.856676815e-15
-1.882630183e-15
-1.795415998e-15
-1.767696076e-15
-1.701399779e-15
-1.544057989e-15
-1.42120949e-15
-1.307200066e-15
-1.23513869e-15
-1.146526517e-15
-1.042216854e-15
-1.033649316e-15
-1.026097654e-15
-1.044221787e-15
-1.075547436e-15
-1.117015294e-15
-9.629112135e-16
-5.850425026e-16
-1.504321471e-16
-2.133964155e-17
-1.302271688e-16
-1.996244218e-16
-1.199386166e-16
3.063929739e-18
-2.60446171e-17
-4.211448985e-17
2.303907784e-17
9.577833844e-17
1.376977011e-16
1.269348574e-16
1.098948757e-16
1.099959918e-16
1.559573646e-16
2.216420753e-16
2.69699421e-16
2.935949185e-16
3.470976896e-16
5.221010825e-16
3.091881242e-15
1.121596028e-14
4.811663726e-14
7.547791625e-14
7.884658088e-14
8.17016467e-14
8.075792724e-14
)


101
(
-1.804993558e-20
-4.412457155e-19
-3.118229931e-18
-8.485384286e-18
-2.022170013e-17
-6.283579855e-17
-1.141452691e-16
-2.191510272e-16
-3.224309684e-16
-4.206986561e-16
-3.740891099e-16
-5.524675285e-16
2.099842071e-16
5.299450267e-16
6.873323695e-16
1.249972274e-15
2.726241088e-15
6.657798625e-16
3.249821906e-15
2.130530103e-15
4.836623675e-16
1.465548462e-15
1.3889045e-15
3.985928923e-16
-4.849705223e-16
-1.129660102e-15
-1.604296176e-15
-1.958274366e-15
-2.262701747e-15
-2.581718339e-15
-2.807373353e-15
-2.298605671e-15
-3.289583065e-15
-4.032192405e-15
-4.087570028e-15
-4.024481206e-15
-3.604298257e-15
-3.084862591e-15
-3.576773052e-15
-4.640133657e-15
-4.732765948e-15
-4.531642625e-15
-4.505649456e-15
-4.096025766e-15
-3.767824832e-15
-3.55628928e-15
-3.545626868e-15
-3.637556354e-15
-3.78417694e-15
-3.856443881e-15
-3.774565891e-15
-3.642373897e-15
-3.467271057e-15
-3.241365407e-15
-2.983620959e-15
-2.959145561e-15
-2.93201637e-15
-2.836783482e-15
-2.748511676e-15
-2.632088323e-15
-2.523654342e-15
-2.362669643e-15
-2.183662814e-15
-2.012537098e-15
-1.859493616e-15
-1.714279097e-15
-1.563799619e-15
-1.454672769e-15
-1.391646436e-15
-1.352913472e-15
-1.3233976e-15
-1.263224994e-15
-1.065265007e-15
-6.77412676e-16
-2.393287069e-16
-1.514924984e-18
6.306793901e-19
-1.464035765e-17
9.109601768e-17
2.308421083e-16
2.633970686e-16
2.959283209e-16
4.244932699e-16
5.595277603e-16
6.626300343e-16
7.147197423e-16
7.247342514e-16
7.361661458e-16
8.283868891e-16
9.776209689e-16
1.123191279e-15
1.237334701e-15
1.408298366e-15
1.758453284e-15
5.873916765e-15
1.756909835e-14
7.157290781e-14
1.132072236e-13
1.182612025e-13
1.225446757e-13
1.21128494e-13
)


101
(
-2.26604167e-20
-3.843416738e-19
-2.7698109e-18
-7.312052752e-18
-1.687943125e-17
-5.331507906e-17
-9.423083265e-17
-1.786767731e-16
-2.573557621e-16
-3.264066581e-16
-2.659853881e-16
-3.953395927e-16
2.471888742e-16
5.930812554e-16
7.309413828e-16
1.152312727e-15
2.343614434e-15
8.867277223e-16
2.434976375e-15
1.989836468e-15
5.016054747e-16
8.161759341e-16
9.334808471e-16
2.032618019e-16
-6.647903442e-16
-1.371840091e-15
-1.910759137e-15
-2.322341672e-15
-2.659241681e-15
-2.99452631e-15
-3.281434745e-15
-3.103765737e-15
-3.605973426e-15
-4.397967316e-15
-4.739318133e-15
-4.854389122e-15
-4.644760309e-15
-4.261682384e-15
-4.403231099e-15
-5.153771093e-15
-5.619761339e-15
-5.611324888e-15
-5.589276041e-15
-5.366847375e-15
-5.043059803e-15
-4.828571178e-15
-4.70971934e-15
-4.742563018e-15
-4.813695783e-15
-4.891736777e-15
-4.848116221e-15
-4.731377614e-15
-4.565093708e-15
-4.363031594e-15
-4.127266027e-15
-3.96375757e-15
-3.893379093e-15
-3.748505194e-15
-3.616413396e-15
-3.43740979e-15
-3.264135545e-15
-3.063966029e-15
-2.840518189e-15
-2.614036608e-15
-2.389380545e-15
-2.171590418e-15
-1.958343531e-15
-1.769648593e-15
-1.626096873e-15
-1.515421502e-15
-1.415073052e-15
-1.264769181e-15
-9.730728413e-16
-5.084329377e-16
-1.132813593e-17
3.074424833e-16
4.109937481e-16
4.903258216e-16
6.736950818e-16
8.666655351e-16
9.50076386e-16
1.045452908e-15
1.261743908e-15
1.49273215e-15
1.693341668e-15
1.846673741e-15
1.95233802e-15
2.007925408e-15
2.14907695e-15
2.400604652e-15
2.708565802e-15
3.012289029e-15
3.321097851e-15
3.91679577e-15
9.77405395e-15
2.521485705e-14
9.571138757e-14
1.509372815e-13
1.576709345e-13
1.63380036e-13
1.614943077e-13
)


101
(
-2.615994806e-20
-3.331667505e-19
-2.451791229e-18
-6.253816574e-18
-1.390838512e-17
-4.485682643e-17
-7.665944944e-17
-1.429184427e-16
-1.997038868e-16
-2.426095334e-16
-1.691426963e-16
-2.543773172e-16
2.907134681e-16
6.493033762e-16
7.789464173e-16
1.087939231e-15
2.03384182e-15
1.020175223e-15
1.854570654e-15
1.759048946e-15
4.957328837e-16
3.512018697e-16
4.769272781e-16
-4.537547346e-17
-8.430168423e-16
-1.580319958e-15
-2.175819747e-15
-2.644613364e-15
-3.018701003e-15
-3.373813535e-15
-3.700569892e-15
-3.738792206e-15
-4.035993909e-15
-4.727702905e-15
-5.220856893e-15
-5.496124546e-15
-5.500433815e-15
-5.277386068e-15
-5.279654413e-15
-5.772166322e-15
-6.316189925e-15
-6.489254776e-15
-6.545470442e-15
-6.438329982e-15
-6.176360654e-15
-5.978039309e-15
-5.815879415e-15
-5.79583339e-15
-5.808894766e-15
-5.856521242e-15
-5.815565772e-15
-5.703599733e-15
-5.537442439e-15
-5.341247388e-15
-5.120651428e-15
-4.90570543e-15
-4.774481201e-15
-4.577244549e-15
-4.392042515e-15
-4.147811055e-15
-3.903446976e-15
-3.640547327e-15
-3.358581633e-15
-3.071588703e-15
-2.7762887e-15
-2.478182902e-15
-2.181011029e-15
-1.899951833e-15
-1.664305096e-15
-1.461605996e-15
-1.271756559e-15
-1.021161854e-15
-6.16018691e-16
-3.323267705e-17
5.713645378e-16
9.905329425e-16
1.204018581e-15
1.409765406e-15
1.718705166e-15
2.011994711e-15
2.164600922e-15
2.32987154e-15
2.650452723e-15
3.007354733e-15
3.344045632e-15
3.645317127e-15
3.900351362e-15
4.068377639e-15
4.301600209e-15
4.645292348e-15
5.161350403e-15
5.719337677e-15
6.252275184e-15
7.189022505e-15
1.485978684e-14
3.426365377e-14
1.205855416e-13
1.886656626e-13
1.970441664e-13
2.041450893e-13
2.017893041e-13
)


101
(
-2.866132536e-20
-2.872932189e-19
-2.161814563e-18
-5.300540746e-18
-1.127390867e-17
-3.736548908e-17
-6.122741332e-17
-1.114997307e-16
-1.48948768e-16
-1.686741585e-16
-8.319424598e-17
-1.290925462e-16
3.373598595e-16
6.990050569e-16
8.280046444e-16
1.049768569e-15
1.786579865e-15
1.092884611e-15
1.443929948e-15
1.499696026e-15
4.590489239e-16
1.886084423e-17
5.962703598e-17
-3.266617696e-16
-1.032112206e-15
-1.767944771e-15
-2.40567364e-15
-2.928025626e-15
-3.34242384e-15
-3.721505078e-15
-4.07663473e-15
-4.256459803e-15
-4.491973346e-15
-5.067068768e-15
-5.609720303e-15
-6.010602764e-15
-6.193243232e-15
-6.139009894e-15
-6.131200863e-15
-6.456432935e-15
-6.956201074e-15
-7.224616567e-15
-7.371966605e-15
-7.357769043e-15
-7.166921588e-15
-7.002960687e-15
-6.8345131e-15
-6.782488027e-15
-6.752583254e-15
-6.76329418e-15
-6.703985701e-15
-6.579780726e-15
-6.399349438e-15
-6.190085787e-15
-5.96302955e-15
-5.718755889e-15
-5.538646019e-15
-5.288377374e-15
-5.045445093e-15
-4.733110074e-15
-4.410060868e-15
-4.063535228e-15
-3.700835846e-15
-3.33790135e-15
-2.96537396e-15
-2.580455757e-15
-2.18375969e-15
-1.794346068e-15
-1.444946951e-15
-1.12822233e-15
-8.314700347e-16
-4.636115613e-16
7.477096196e-17
8.066220695e-16
1.557971452e-15
2.111198464e-15
2.459361668e-15
2.814256945e-15
3.28324266e-15
3.731237333e-15
3.999328762e-15
4.263876819e-15
4.699906514e-15
5.206706767e-15
5.713090573e-15
6.208857147e-15
6.666481884e-15
7.033131329e-15
7.383458132e-15
7.86466993e-15
8.599421053e-15
9.465055692e-15
1.033197625e-14
1.166667695e-14
2.124647822e-14
4.477336025e-14
1.462002206e-13
2.263190494e-13
2.363395233e-13
2.448378298e-13
2.420232092e-13
)


101
(
-3.027003988e-20
-2.411025967e-19
-1.815223485e-18
-4.442926616e-18
-8.94405057e-18
-3.075224603e-17
-4.774444354e-17
-8.406610557e-17
-1.045820455e-16
-1.039669691e-16
-7.712320917e-18
-1.890551943e-17
3.844067479e-16
7.422254094e-16
8.751420941e-16
1.031066908e-15
1.591917865e-15
1.124258289e-15
1.155333389e-15
1.246755386e-15
3.958242721e-16
-2.197988478e-16
-3.003634389e-16
-6.183579856e-16
-1.234188759e-15
-1.94449405e-15
-2.607004672e-15
-3.176007852e-15
-3.631801176e-15
-4.038857053e-15
-4.418351089e-15
-4.691548184e-15
-4.93392527e-15
-5.419824291e-15
-5.954731212e-15
-6.431017386e-15
-6.750524083e-15
-6.85206887e-15
-6.904859491e-15
-7.151701595e-15
-7.580686345e-15
-7.878124558e-15
-8.091964601e-15
-8.152199811e-15
-8.027999092e-15
-7.904366839e-15
-7.747083285e-15
-7.681404281e-15
-7.625378481e-15
-7.603331639e-15
-7.515321213e-15
-7.367467269e-15
-7.161132965e-15
-6.918030017e-15
-6.658409594e-15
-6.379295377e-15
-6.152804281e-15
-5.849691477e-15
-5.54221966e-15
-5.154436159e-15
-4.743068568e-15
-4.296673878e-15
-3.830403895e-15
-3.369521382e-15
-2.905473056e-15
-2.426124556e-15
-1.923640721e-15
-1.410660666e-15
-9.24931134e-16
-4.683443292e-16
-3.265969035e-17
4.784611974e-16
1.167895785e-15
2.068892766e-15
3.000946478e-15
3.723953226e-15
4.234829085e-15
4.760380326e-15
5.425069561e-15
6.081013677e-15
6.527248029e-15
6.934842036e-15
7.511637024e-15
8.185464463e-15
8.888296438e-15
9.610071562e-15
1.031075035e-14
1.094970907e-14
1.150090152e-14
1.215650643e-14
1.311232819e-14
1.434122432e-14
1.564278344e-14
1.742198779e-14
2.908208275e-14
5.68088363e-14
1.725572432e-13
2.638610786e-13
2.754741296e-13
2.852962272e-13
2.820678804e-13
)


101
(
-3.108472832e-20
-2.078889083e-19
-1.587776456e-18
-3.67246109e-18
-6.889346559e-18
-2.49340761e-17
-3.603007887e-17
-6.027642654e-17
-6.610518563e-17
-4.784501124e-17
5.779942998e-17
7.685453356e-17
4.296618313e-16
7.789681608e-16
9.182577989e-16
1.026069489e-15
1.440944755e-15
1.128801662e-15
9.541981599e-16
1.019804054e-15
3.159027849e-16
-3.930701101e-16
-5.978476542e-16
-9.001552502e-16
-1.444525855e-15
-2.116681268e-15
-2.787800815e-15
-3.39407561e-15
-3.889550062e-15
-4.327124577e-15
-4.729702347e-15
-5.065580542e-15
-5.343796369e-15
-5.774993315e-15
-6.279629236e-15
-6.785693189e-15
-7.198306282e-15
-7.432488113e-15
-7.575125425e-15
-7.809408755e-15
-8.186045469e-15
-8.477034811e-15
-8.724848862e-15
-8.839137775e-15
-8.770026936e-15
-8.683331892e-15
-8.5429686e-15
-8.474867304e-15
-8.401773547e-15
-8.350546167e-15
-8.23295645e-15
-8.056978942e-15
-7.814965004e-15
-7.526831269e-15
-7.218932681e-15
-6.885764888e-15
-6.599218631e-15
-6.231586623e-15
-5.853224113e-15
-5.384914461e-15
-4.874359891e-15
-4.311952668e-15
-3.721397211e-15
-3.136731938e-15
-2.558514544e-15
-1.969625666e-15
-1.350448366e-15
-6.966059936e-16
-4.786584019e-17
5.797458647e-16
1.183486294e-15
1.857104102e-15
2.718659496e-15
3.814246935e-15
4.957228063e-15
5.88644986e-15
6.598005916e-15
7.326079324e-15
8.217604555e-15
9.124152615e-15
9.811282609e-15
1.041672339e-14
1.117002338e-14
1.202428494e-14
1.29531194e-14
1.392692457e-14
1.491967707e-14
1.588355318e-14
1.673293038e-14
1.760313965e-14
1.881140513e-14
2.043409091e-14
2.224189516e-14
2.452121123e-14
3.832495499e-14
7.037805975e-14
1.996335589e-13
3.012218813e-13
3.143631917e-13
3.253888787e-13
3.218126541e-13
)


101
(
-3.119756885e-20
-1.776346828e-19
-1.439322697e-18
-2.692712795e-18
-5.082855353e-18
-1.98340075e-17
-2.591390464e-17
-3.980139452e-17
-3.303555891e-17
3.21549321e-19
1.138861417e-16
1.589452866e-16
4.714354504e-16
8.091381151e-16
9.557929152e-16
1.029940656e-15
1.32560858e-15
1.116947855e-15
8.14863606e-16
8.2748936e-16
2.29107591e-16
-5.2032521e-16
-8.346647574e-16
-1.157843187e-15
-1.65612069e-15
-2.287700726e-15
-2.954468867e-15
-3.587415391e-15
-4.118491746e-15
-4.587084139e-15
-5.012243121e-15
-5.391342548e-15
-5.713859742e-15
-6.117527981e-15
-6.591506675e-15
-7.0987033e-15
-7.56557453e-15
-7.900253198e-15
-8.133878505e-15
-8.394490741e-15
-8.745433149e-15
-9.020422436e-15
-9.282525754e-15
-9.431321916e-15
-9.404176423e-15
-9.34776216e-15
-9.222640158e-15
-9.149659726e-15
-9.057507792e-15
-8.979276901e-15
-8.834136832e-15
-8.626865067e-15
-8.343001064e-15
-8.002590224e-15
-7.626402495e-15
-7.220289762e-15
-6.857517721e-15
-6.412841471e-15
-5.954793632e-15
-5.394271743e-15
-4.773257054e-15
-4.082098427e-15
-3.348161045e-15
-2.608851994e-15
-1.880089398e-15
-1.151287149e-15
-3.979599533e-16
4.055465764e-16
1.227266111e-15
2.051216544e-15
2.861007615e-15
3.738829515e-15
4.802545281e-15
6.151174633e-15
7.484716251e-15
8.663932335e-15
9.622035293e-15
1.058429795e-14
1.173089873e-14
1.292940762e-14
1.391226396e-14
1.478040013e-14
1.575287103e-14
1.681696111e-14
1.800129409e-14
1.925768312e-14
2.057996903e-14
2.1908947e-14
2.314351606e-14
2.428831376e-14
2.579516248e-14
2.782722517e-14
3.019193071e-14
3.306272493e-14
4.910136047e-14
8.556209786e-14
2.274043968e-13
3.38311764e-13
3.529408115e-13
3.651748054e-13
3.611707127e-13
)


101
(
-3.06946459e-20
-1.492457482e-19
-1.241512907e-18
-2.106221185e-18
-3.499853014e-18
-1.538071884e-17
-1.723624339e-17
-2.232786492e-17
-4.907732875e-18
4.114979119e-17
1.611383416e-16
2.281857581e-16
5.084915807e-16
8.325394486e-16
9.864933763e-16
1.038647275e-15
1.23872954e-15
1.095625421e-15
7.194914797e-16
6.707938624e-16
1.439017145e-16
-6.131464121e-16
-1.016300814e-15
-1.381575069e-15
-1.859199872e-15
-2.456127649e-15
-3.110360258e-15
-3.759927241e-15
-4.321319929e-15
-4.820135082e-15
-5.267672697e-15
-5.677720329e-15
-6.044077309e-15
-6.43887355e-15
-6.891765656e-15
-7.386546421e-15
-7.876749697e-15
-8.278217487e-15
-8.587611225e-15
-8.887510462e-15
-9.235178456e-15
-9.50271492e-15
-9.767873267e-15
-9.938562601e-15
-9.942973148e-15
-9.905726454e-15
-9.78502929e-15
-9.698667824e-15
-9.582166929e-15
-9.475976646e-15
-9.298391343e-15
-9.052009795e-15
-8.719791235e-15
-8.313539597e-15
-7.856229066e-15
-7.366046412e-15
-6.908970027e-15
-6.36986796e-15
-5.813790054e-15
-5.148268321e-15
-4.403993797e-15
-3.57144916e-15
-2.675603947e-15
-1.751469912e-15
-8.339964837e-16
6.655260998e-17
9.794953987e-16
1.943813556e-15
2.953812292e-15
4.003402036e-15
5.057515551e-15
6.177980142e-15
7.474850253e-15
9.061606123e-15
1.070351921e-14
1.212600287e-14
1.33672398e-14
1.461098129e-14
1.605320215e-14
1.756937283e-14
1.889062405e-14
2.009429815e-14
2.13479711e-14
2.265391103e-14
2.412723291e-14
2.571154121e-14
2.738650149e-14
2.911142774e-14
3.078538173e-14
3.231864344e-14
3.414580266e-14
3.658746706e-14
3.956859367e-14
4.313091403e-14
6.149092406e-14
1.023812382e-13
2.558464537e-13
3.750990124e-13
3.913401396e-13
4.049103498e-13
4.005845845e-13
)


101
(
-2.965629482e-20
-1.244162089e-19
-1.062515129e-18
-1.809670634e-18
-2.117665857e-18
-1.150822132e-17
-9.848198299e-18
-7.561146976e-18
1.872365517e-17
7.524748842e-17
2.00172297e-16
2.854263078e-16
5.399490109e-16
8.491011682e-16
1.009525176e-15
1.048843607e-15
1.173762341e-15
1.069762198e-15
6.54556636e-16
5.476010419e-16
6.649014567e-17
-6.808040766e-16
-1.150046945e-15
-1.566170614e-15
-2.044361703e-15
-2.617226091e-15
-3.255658355e-15
-3.913599532e-15
-4.499595015e-15
-5.02702307e-15
-5.497043335e-15
-5.930901765e-15
-6.33786736e-15
-6.734580889e-15
-7.177598717e-15
-7.657136272e-15
-8.150573835e-15
-8.587797328e-15
-8.949529294e-15
-9.289289423e-15
-9.647188943e-15
-9.914176453e-15
-1.01756511e-14
-1.035797555e-14
-1.038151168e-14
-1.035284534e-14
-1.022816535e-14
-1.011789115e-14
-9.969675802e-15
-9.827554011e-15
-9.609742976e-15
-9.316607146e-15
-8.926174662e-15
-8.444515583e-15
-7.900231139e-15
-7.304451995e-15
-6.727816638e-15
-6.068108281e-15
-5.394913306e-15
-4.607914704e-15
-3.726698161e-15
-2.73956812e-15
-1.664342724e-15
-5.361838372e-16
6.029940294e-16
1.720792202e-15
2.834043104e-15
3.983224701e-15
5.196964432e-15
6.461579035e-15
7.787061299e-15
9.223921716e-15
1.080735895e-14
1.26373032e-14
1.461066012e-14
1.634167181e-14
1.790138355e-14
1.948297861e-14
2.126757632e-14
2.312688837e-14
2.48246417e-14
2.642792999e-14
2.80392198e-14
2.963959818e-14
3.142980294e-14
3.337547726e-14
3.544035449e-14
3.757748223e-14
3.975323109e-14
4.177678867e-14
4.394939739e-14
4.682483046e-14
5.047603081e-14
5.480646385e-14
7.551068169e-14
1.208525815e-13
2.849862404e-13
4.116127988e-13
4.294049494e-13
4.441399385e-13
4.394350499e-13
)


101
(
-2.815741612e-20
-1.101396467e-19
-9.009049913e-19
-1.316638511e-18
-9.156170555e-19
-8.155743798e-18
-3.610502926e-18
4.77867179e-18
3.827891051e-17
1.03198916e-16
2.316320105e-16
3.315774912e-16
5.652318775e-16
8.588920674e-16
1.024523035e-15
1.057789107e-15
1.125060012e-15
1.042279868e-15
6.102355616e-16
4.534162442e-16
1.574780344e-19
-7.281197901e-16
-1.24300831e-15
-1.71047732e-15
-2.204180755e-15
-2.764445575e-15
-3.388523768e-15
-4.049654474e-15
-4.65517333e-15
-5.209071824e-15
-5.701410308e-15
-6.154997057e-15
-6.598621703e-15
-7.002016067e-15
-7.443964554e-15
-7.910342591e-15
-8.395223887e-15
-8.845197832e-15
-9.239002448e-15
-9.608955414e-15
-9.976052305e-15
-1.024375118e-14
-1.049953924e-14
-1.068327311e-14
-1.071518017e-14
-1.068411543e-14
-1.054436401e-14
-1.040311209e-14
-1.021415702e-14
-1.0021356e-14
-9.750510343e-15
-9.400278476e-15
-8.944457118e-15
-8.380244462e-15
-7.732657753e-15
-7.008100057e-15
-6.289423345e-15
-5.483526285e-15
-4.667345799e-15
-3.7358762e-15
-2.702672471e-15
-1.542965373e-15
-2.718447814e-16
1.081992253e-15
2.467703664e-15
3.845887492e-15
5.211045749e-15
6.589189375e-15
8.030219609e-15
9.550361669e-15
1.117103638e-14
1.293363942e-14
1.485731917e-14
1.702027345e-14
1.928956155e-14
2.140301066e-14
2.328150574e-14
2.527735456e-14
2.745592538e-14
2.971175849e-14
3.17719069e-14
3.386439495e-14
3.592241622e-14
3.789192079e-14
4.001043875e-14
4.235235749e-14
4.486698599e-14
4.741396768e-14
5.016872087e-14
5.272289473e-14
5.530383613e-14
5.865065579e-14
6.302640942e-14
6.818448355e-14
9.125908205e-14
1.410562325e-13
3.147664319e-13
4.476946343e-13
4.670688692e-13
4.832239278e-13
4.782761241e-13
)


101
(
-2.62677624e-20
-9.31289081e-20
-7.553674899e-19
-8.781529542e-19
1.251123693e-19
-5.267602338e-18
1.605400785e-18
1.495365516e-17
5.415958527e-17
1.255678928e-16
2.561656307e-16
3.675530398e-16
5.840659562e-16
8.620404663e-16
1.031289462e-15
1.063328359e-15
1.087834184e-15
1.01440773e-15
5.799748801e-16
3.828696124e-16
-5.369918583e-17
-7.584918904e-16
-1.302500478e-15
-1.816196491e-15
-2.334836521e-15
-2.893702725e-15
-3.507985338e-15
-4.169296458e-15
-4.789447726e-15
-5.367028154e-15
-5.881288405e-15
-6.352031451e-15
-6.827156896e-15
-7.237705869e-15
-7.683516112e-15
-8.140467267e-15
-8.612641023e-15
-9.06224224e-15
-9.469158061e-15
-9.853798822e-15
-1.022545533e-14
-1.049139663e-14
-1.073517888e-14
-1.090715642e-14
-1.093498769e-14
-1.089446716e-14
-1.073324114e-14
-1.05478686e-14
-1.030340219e-14
-1.00445328e-14
-9.701872549e-15
-9.280054394e-15
-8.748477622e-15
-8.091692494e-15
-7.328071772e-15
-6.461431106e-15
-5.579299626e-15
-4.597279093e-15
-3.600567307e-15
-2.496756207e-15
-1.285357234e-15
7.011402366e-17
1.557502336e-15
3.150405812e-15
4.807059368e-15
6.493134897e-15
8.163638371e-15
9.81349452e-15
1.150977392e-14
1.334573086e-14
1.528031665e-14
1.737665351e-14
1.968656476e-14
2.224310275e-14
2.490878606e-14
2.738218662e-14
2.968777672e-14
3.209636815e-14
3.472555754e-14
3.743613626e-14
3.99521611e-14
4.252963545e-14
4.510690045e-14
4.748532724e-14
4.997283992e-14
5.278298593e-14
5.579058312e-14
5.883833854e-14
6.213339915e-14
6.532177875e-14
6.841565761e-14
7.223607779e-14
7.732854286e-14
8.336189074e-14
1.088721231e-13
1.630524863e-13
3.452772988e-13
4.836991069e-13
5.048480562e-13
5.22357477e-13
5.169673999e-13
)


101
(
-2.405219634e-20
-6.853360578e-20
-6.106291523e-19
-4.89336857e-19
1.021615621e-18
-2.792828885e-18
5.917235421e-18
2.320737323e-17
6.675287661e-17
1.429045679e-16
2.743853996e-16
3.942872028e-16
5.964026123e-16
8.586786665e-16
1.02966365e-15
1.063843276e-15
1.05785717e-15
9.86893806e-16
5.585961583e-16
3.315136024e-16
-9.515226786e-17
-7.750972837e-16
-1.334492029e-15
-1.88625146e-15
-2.434925571e-15
-3.002159697e-15
-3.612079729e-15
-4.272177387e-15
-4.902929863e-15
-5.501397523e-15
-6.037036754e-15
-6.523368511e-15
-7.025094375e-15
-7.440779769e-15
-7.891932729e-15
-8.342661709e-15
-8.801471957e-15
-9.242578879e-15
-9.648368448e-15
-1.0034552e-14
-1.039981636e-14
-1.065647997e-14
-1.087812485e-14
-1.102703652e-14
-1.103852514e-14
-1.097620504e-14
-1.078363167e-14
-1.054705523e-14
-1.023304297e-14
-9.884940679e-15
-9.452253516e-15
-8.940454602e-15
-8.313790169e-15
-7.552820141e-15
-6.662839581e-15
-5.643312497e-15
-4.573992107e-15
-3.382914416e-15
-2.167148513e-15
-8.519272385e-16
5.759269609e-16
2.156167883e-15
3.883950348e-15
5.735634502e-15
7.692321306e-15
9.717929181e-15
1.175100407e-14
1.37719087e-14
1.577903564e-14
1.791893134e-14
2.018409075e-14
2.26353985e-14
2.538314545e-14
2.838952466e-14
3.152365129e-14
3.446242965e-14
3.721530231e-14
4.003764797e-14
4.318764477e-14
4.642661769e-14
4.951292608e-14
5.252883845e-14
5.572269317e-14
5.86645317e-14
6.159620134e-14
6.48323619e-14
6.83658798e-14
7.199331496e-14
7.588354568e-14
7.976565474e-14
8.343559002e-14
8.774861717e-14
9.361554337e-14
1.005764416e-13
1.285099498e-13
1.870926203e-13
3.768589708e-13
5.197573094e-13
5.426725967e-13
5.61733241e-13
5.55464872e-13
)


101
(
-2.157094079e-20
-5.527360533e-20
-5.000605396e-19
-1.457567336e-19
1.789353494e-18
-6.850037383e-19
9.43305445e-18
2.976664453e-17
7.642567964e-17
1.557360682e-16
2.868852827e-16
4.127266774e-16
6.023910758e-16
8.490276582e-16
1.019764732e-15
1.058155552e-15
1.031740907e-15
9.598525563e-16
5.431227586e-16
2.951354786e-16
-1.250718515e-16
-7.79666265e-16
-1.344140423e-15
-1.924240052e-15
-2.504029932e-15
-3.087446714e-15
-3.699023547e-15
-4.358727763e-15
-4.99688568e-15
-5.613021974e-15
-6.169027798e-15
-6.670125609e-15
-7.19477187e-15
-7.612611132e-15
-8.068093812e-15
-8.513663349e-15
-8.959290888e-15
-9.387104209e-15
-9.781834489e-15
-1.015592756e-14
-1.050402518e-14
-1.074291214e-14
-1.093070242e-14
-1.104081426e-14
-1.101796091e-14
-1.092099393e-14
-1.068959836e-14
-1.039096866e-14
-9.992216591e-15
-9.541429753e-15
-8.995576791e-15
-8.365568597e-15
-7.618775324e-15
-6.733553336e-15
-5.702856571e-15
-4.513799917e-15
-3.240154717e-15
-1.813896495e-15
-3.381768457e-16
1.340241518e-15
2.927586021e-15
4.766416075e-15
6.764840291e-15
8.90889982e-15
1.119817258e-14
1.359271549e-14
1.603449859e-14
1.847071476e-14
2.090052228e-14
2.339436974e-14
2.603450446e-14
2.888758367e-14
3.209143181e-14
3.559164847e-14
3.924397159e-14
4.276858975e-14
4.602240532e-14
4.933177591e-14
5.300075193e-14
5.682681447e-14
6.047169013e-14
6.412796109e-14
6.793977677e-14
7.156510468e-14
7.500630933e-14
7.866499783e-14
8.279031813e-14
8.707005976e-14
9.161692244e-14
9.621481966e-14
1.005321922e-13
1.054490089e-13
1.120757291e-13
1.200304847e-13
1.503676622e-13
2.132701608e-13
4.093957548e-13
5.557897366e-13
5.804286457e-13
6.015749219e-13
5.947457449e-13
)


101
(
-1.887979945e-20
-5.618309554e-20
-4.036366215e-19
1.566211091e-19
2.442287324e-18
1.097882116e-18
1.225153892e-17
3.484112908e-17
8.353162819e-17
1.645785024e-16
2.942561721e-16
4.237697939e-16
6.023492194e-16
8.334456278e-16
1.001999774e-15
1.045376755e-15
1.006835612e-15
9.329013285e-16
5.313284701e-16
2.700389506e-16
-1.449328937e-16
-7.754579426e-16
-1.336486798e-15
-1.935011761e-15
-2.543070444e-15
-3.147749958e-15
-3.766937155e-15
-4.428302712e-15
-5.071648513e-15
-5.702003955e-15
-6.276618015e-15
-6.791882511e-15
-7.337274634e-15
-7.755194422e-15
-8.212470613e-15
-8.652172154e-15
-9.083795974e-15
-9.494535326e-15
-9.870759456e-15
-1.02213467e-14
-1.054181671e-14
-1.075096848e-14
-1.089318251e-14
-1.094858432e-14
-1.08736893e-14
-1.072280134e-14
-1.043572365e-14
-1.006522517e-14
-9.570920248e-15
-9.000943564e-15
-8.320533641e-15
-7.542465654e-15
-6.641870878e-15
-5.602921548e-15
-4.405879605e-15
-3.031960034e-15
-1.541047562e-15
1.487644504e-16
1.923929753e-15
3.928566111e-15
5.905441558e-15
7.954075855e-15
1.026487449e-14
1.274877231e-14
1.540241204e-14
1.819659152e-14
2.109410316e-14
2.401992797e-14
2.693396659e-14
2.988848933e-14
3.295265434e-14
3.627124906e-14
3.992523185e-14
4.394887836e-14
4.822232159e-14
5.239813916e-14
5.628219982e-14
6.012846453e-14
6.435431555e-14
6.879153698e-14
7.31176435e-14
7.751016777e-14
8.191056674e-14
8.627858607e-14
9.038935724e-14
9.45490247e-14
9.923435484e-14
1.04323804e-13
1.095281775e-13
1.148704339e-13
1.199886831e-13
1.255099218e-13
1.328650466e-13
1.418693192e-13
1.746572386e-13
2.416950003e-13
4.430776362e-13
5.920795758e-13
6.183698435e-13
6.412679562e-13
6.339469325e-13
)


101
(
-1.603030795e-20
-4.788728236e-20
-3.112669894e-19
4.21447196e-19
3.425331267e-18
2.593760956e-18
1.446223088e-17
3.862296968e-17
8.841431375e-17
1.699591405e-16
2.970693202e-16
4.282479881e-16
5.966480528e-16
8.123996764e-16
9.770523692e-16
1.025429843e-15
9.812154515e-16
9.056912254e-16
5.213507528e-16
2.526334554e-16
-1.570499627e-16
-7.64510278e-16
-1.315904516e-15
-1.923510959e-15
-2.55415647e-15
-3.18165466e-15
-3.814123293e-15
-4.480698579e-15
-5.128539373e-15
-5.769429941e-15
-6.360007309e-15
-6.889124149e-15
-7.453935467e-15
-7.871032416e-15
-8.327092222e-15
-8.758055497e-15
-9.173229532e-15
-9.563513896e-15
-9.257813598e-15
-9.604491524e-15
-1.051329329e-14
-1.068292667e-14
-1.076945522e-14
-1.075453646e-14
-1.060444759e-14