/*--------------------------------*- C++ -*----------------------------------*\
| =========                 |                                                 |
| \\      /  F ield         | OpenFOAM: The Open Source CFD Toolbox           |
|  \\    /   O peration     | Version:  2.3.1                                 |
|   \\  /    A nd           | Web:      www.OpenFOAM.org                      |
|    \\/     M anipulation  |                                                 |
\*---------------------------------------------------------------------------*/
FoamFile
{
    version     2.0;
    format      ascii;
    class       dictionary;
    location    "constant";
    object      PM54;
}
// * * * * * * * * * * * * * * * * * * * * * * * * * * * * * * * * * * * * * //

PM54_table
101
(

101
(
-1.360687141e-12
-4.625672929e-06
-2.443544863e-05
-8.667501348e-05
-0.0002523321083
-0.0006318725433
-0.001403401294
-0.002964041806
-0.005791261116
-0.01061090399
-0.0181435288
-0.02916163411
-0.04363731464
-0.06271960889
-0.08472520146
-0.1087772916
-0.1340708593
-0.1597154397
-0.1805704492
-0.2018083298
-0.2161360607
-0.2259871204
-0.2327633544
-0.2345379003
-0.232350226
-0.2270650678
-0.2192928957
-0.2096775887
-0.1986178597
-0.1867130542
-0.1742758438
-0.1618013181
-0.1501922247
-0.1365507159
-0.1245937641
-0.1130996201
-0.1021813616
-0.09225693202
-0.08282447337
-0.07324237408
-0.06430792139
-0.05679723425
-0.0492742623
-0.04235168151
-0.0362946977
-0.03037574048
-0.02510613581
-0.02002094197
-0.01545861138
-0.01111786757
-0.007246540397
-0.00364777348
-0.000336615814
0.002684116133
0.00542233415
0.007921720088
0.01039367399
0.01243210056
0.01444578151
0.01620818183
0.01786979698
0.01935964457
0.02070794286
0.02195251296
0.02307773849
0.02410752663
0.02502934951
0.02585989146
0.02663004393
0.02730424592
0.02791456279
0.02846344355
0.02897564082
0.02941219663
0.02978753442
0.0301004798
0.03039925549
0.03065330711
0.03086171587
0.03103330536
0.03117302997
0.03130139018
0.0313950192
0.03147163505
0.03152545641
0.03155760599
0.03157497565
0.03157991427
0.03157655363
0.03156383959
0.03154417456
0.03151357739
0.03148097723
0.0314452519
0.03140567868
0.03138244945
0.03139184322
0.0320017726
0.03258767839
0.0332365978
0.03384897385
)


101
(
-1.360712709e-12
-4.226307792e-06
-2.306404444e-05
-8.264908643e-05
-0.0002415653744
-0.0006053616102
-0.001343896736
-0.002839621079
-0.00555455972
-0.01019300515
-0.01746152987
-0.02812055604
-0.04217755465
-0.06072870139
-0.08225785063
-0.1058844617
-0.1308239218
-0.1562137941
-0.177297565
-0.1984266768
-0.2133415605
-0.2237028174
-0.2309032868
-0.2333543987
-0.2318147017
-0.2271152276
-0.2198753643
-0.2107206834
-0.2000730346
-0.1884935693
-0.1763272459
-0.1640380647
-0.1524380754
-0.1392817024
-0.1272433694
-0.11574656
-0.1048149949
-0.09478243771
-0.0853064435
-0.07582782513
-0.06686733999
-0.0591156244
-0.0515878785
-0.0445866139
-0.03835977028
-0.03240194489
-0.02701020395
-0.02188091384
-0.0172144813
-0.01281842068
-0.008842529245
-0.005165939795
-0.00177779164
0.001324298492
0.00414705577
0.00672395182
0.00921673885
0.01136528919
0.01341551807
0.01524956029
0.01695703927
0.01850393373
0.01990725338
0.02119699183
0.02236901893
0.02344069309
0.02440698597
0.02527933558
0.02608199834
0.0267959723
0.02744003938
0.02801962379
0.02855397135
0.02902156595
0.02942931607
0.02977706545
0.03009706549
0.03037449143
0.03060777301
0.03080295077
0.03096491697
0.0311084483
0.03122151275
0.03131467576
0.03138618026
0.03143612348
0.03146898664
0.03148723556
0.03149597016
0.03149434858
0.03148666782
0.03146773505
0.03144352312
0.0314160855
0.03138494476
0.03137099802
0.03138965916
0.03199929883
0.03258488533
0.03323337448
0.0338453124
)


101
(
-1.36073344e-12
-3.464777687e-06
-2.043094454e-05
-7.491456041e-05
-0.0002208955165
-0.0005544705691
-0.001229568809
-0.00259996751
-0.005097275433
-0.009382958348
-0.0161347749
-0.02608764619
-0.03931478768
-0.05681107736
-0.07737472406
-0.1001315084
-0.124334962
-0.149178394
-0.1706311745
-0.1915649067
-0.207530446
-0.2189100138
-0.2269648703
-0.2307198523
-0.2304820796
-0.2269757285
-0.2208246211
-0.212622337
-0.2028247113
-0.1919320438
-0.1803343822
-0.1684503983
-0.1569348378
-0.1446139328
-0.1325833695
-0.1210934821
-0.1101419884
-0.09992723702
-0.09034830669
-0.08101674476
-0.07204158392
-0.06390427009
-0.056298291
-0.04915258815
-0.04262799751
-0.03654793207
-0.03093450577
-0.02568864474
-0.02083144261
-0.01630724238
-0.01213912825
-0.008300043919
-0.004755543196
-0.001491840211
0.001498546364
0.004233981699
0.006798843364
0.009133980948
0.0112834159
0.01325292432
0.01506328578
0.016722965
0.01823699529
0.01962286376
0.02089030646
0.02204966685
0.02310543675
0.02406339118
0.02493738048
0.02572971437
0.02644486727
0.02709007071
0.02767655245
0.02820476489
0.02867528652
0.02908948099
0.02945884374
0.02978580927
0.03007022162
0.03031405239
0.03052175675
0.03070087675
0.03085297181
0.03098124927
0.03108819911
0.03117375688
0.03124034262
0.03128799998
0.03132277873
0.03134522067
0.03136177899
0.03136671951
0.03136307845
0.0313536726
0.03134104452
0.03134708187
0.03138587686
0.03199509818
0.03258024001
0.03322824547
0.03383967847
)


101
(
-1.36074986e-12
-2.774796829e-06
-1.800792957e-05
-6.778897771e-05
-0.0002018925941
-0.0005077322895
-0.001124477771
-0.002378785081
-0.004673080959
-0.008627255575
-0.01488938591
-0.02416735145
-0.03659003287
-0.05306322096
-0.07265472885
-0.0945234994
-0.1179579119
-0.1422047907
-0.1638527728
-0.1846497981
-0.201420785
-0.2137815473
-0.2227018134
-0.2276480498
-0.2286862671
-0.2263870164
-0.2213475429
-0.2141352426
-0.2052199134
-0.1950659956
-0.1840779931
-0.1726544333
-0.1613420147
-0.1496150094
-0.1378438985
-0.1264270209
-0.1154788023
-0.1051497936
-0.09545338961
-0.08615786458
-0.07720511054
-0.06885638399
-0.06109249545
-0.05381290598
-0.04706726828
-0.04080974702
-0.03500608623
-0.02960476397
-0.02458103822
-0.01990649829
-0.01557191576
-0.01156658639
-0.007864280883
-0.00444384865
-0.001292936993
0.001601545803
0.004284096331
0.006760239514
0.009038473856
0.01113432027
0.01306164853
0.01483342521
0.0164579196
0.01794690635
0.01931212405
0.02056410055
0.02170994954
0.02275545027
0.02370950914
0.02457930184
0.02536957105
0.02608598291
0.0267362729
0.02732554056
0.02785679305
0.0283325564
0.02875903409
0.02913969849
0.02947731632
0.02977274149
0.03002891451
0.03025127268
0.03044410099
0.03061093505
0.03075469656
0.03087623463
0.03097904894
0.03106140345
0.03112640862
0.03117627978
0.03121887671
0.03124926251
0.03127134356
0.03128369013
0.03129206035
0.03132124185
0.03138263168
0.03199171193
0.03257672118
0.03322460118
0.03383594268
)


101
(
-1.360762324e-12
-2.151730296e-06
-1.578051882e-05
-6.1226915e-05
-0.0001844297003
-0.0004648421496
-0.001027994541
-0.00217495137
-0.004280211489
-0.007923453138
-0.01372249371
-0.02235692283
-0.03400199571
-0.04948503087
-0.06810355945
-0.08906980414
-0.1117062549
-0.1353106103
-0.1569989907
-0.1776809817
-0.1950617111
-0.2083297737
-0.2181128284
-0.2241616511
-0.2264317333
-0.2253403478
-0.2214301715
-0.2152398667
-0.2072401404
-0.1978723104
-0.1875396618
-0.176628354
-0.1656133335
-0.1543571672
-0.1429423489
-0.1316982845
-0.1208069934
-0.1104243806
-0.1006271306
-0.09130539098
-0.08236119866
-0.07389921301
-0.06598627601
-0.05856910536
-0.05164475881
-0.04520534347
-0.03921824954
-0.03364885599
-0.02846138107
-0.02363020863
-0.01913546887
-0.01496680629
-0.01110518809
-0.00752939868
-0.004222863407
-0.00117244237
0.001647250093
0.004258271403
0.006668738174
0.008893066881
0.01094318377
0.01283184488
0.01456924987
0.01616564378
0.01763234391
0.01898059702
0.02021915452
0.0213545981
0.02239398052
0.02334456974
0.02421247855
0.02500350618
0.02572401547
0.02637958228
0.02697455018
0.02751226142
0.02799786253
0.02843508194
0.02882805632
0.02917806015
0.02948661191
0.02975698959
0.0299943679
0.03020308491
0.03038670439
0.03054634809
0.03068631375
0.03080610428
0.03090655566
0.03098745736
0.03105924559
0.03111758981
0.0311673472
0.03120621149
0.03123833584
0.03129314897
0.03137942765
0.03198850708
0.03257341604
0.03322020914
0.03383043743
)


101
(
-1.360771651e-12
-1.591235174e-06
-1.373525084e-05
-5.518612596e-05
-0.0001683880395
-0.0004255122926
-0.0009395178038
-0.001987379863
-0.003916934835
-0.007269107629
-0.01263114226
-0.02065337692
-0.0315489337
-0.04607583687
-0.0637258804
-0.08377898339
-0.1055927611
-0.1285130167
-0.150104218
-0.170664337
-0.1884949046
-0.2025743622
-0.2132002052
-0.2202786785
-0.223726921
-0.2238308372
-0.2210603326
-0.2159179054
-0.208865441
-0.2003270238
-0.1906969922
-0.180349748
-0.1697112455
-0.1588743484
-0.1478452652
-0.1368521349
-0.1260897694
-0.1157185487
-0.105856286
-0.0964858559
-0.08752648853
-0.07899617931
-0.07096514985
-0.06341835467
-0.05634003474
-0.04973067661
-0.0435669431
-0.03782656154
-0.03247441406
-0.02748444667
-0.02283128862
-0.01850177694
-0.01448034957
-0.01074827989
-0.007287797479
-0.004084338636
-0.001120469927
0.001628071621
0.004172180415
0.006526823913
0.008703114228
0.01071315587
0.01256747062
0.0142757757
0.01584844563
0.01729682129
0.01863117652
0.01985938962
0.0209880706
0.02202388287
0.02297287488
0.02384159466
0.02463623655
0.02536256051
0.0260254
0.02662837707
0.02717599664
0.02767235143
0.02812264242
0.02852909907
0.02889328264
0.0292162905
0.02950243671
0.02975672036
0.02998337202
0.03018413192
0.03036371776
0.03052229505
0.03066188614
0.03077817727
0.03088252852
0.0309719275
0.03105129507
0.03112041798
0.03117974873
0.03126218647
0.03137601217
0.03198403538
0.03256778071
0.0332124855
0.03382074492
)


101
(
-1.360777873e-12
-1.089221776e-06
-1.185960808e-05
-4.96273227e-05
-0.0001536564662
-0.000389471066
-0.0008584747788
-0.001815022266
-0.003581554028
-0.00666177451
-0.01161228045
-0.01905349157
-0.02922859901
-0.04283430119
-0.05952526206
-0.07865851075
-0.09962917165
-0.1218282299
-0.1432008587
-0.1636107171
-0.181756515
-0.1965398959
-0.2079705276
-0.2160144726
-0.2205824849
-0.2218572205
-0.220228001
-0.2161525651
-0.2100754388
-0.2024054251
-0.1935242958
-0.1837935895
-0.1736023663
-0.1631768763
-0.152540455
-0.1418527532
-0.1312854859
-0.1209942187
-0.1111181163
-0.1017051211
-0.09271592038
-0.08413419733
-0.07601244886
-0.06835231323
-0.06113966317
-0.05437677863
-0.04804672957
-0.04213768757
-0.03662058213
-0.031471191
-0.02666101254
-0.02217306267
-0.01799243374
-0.01410298944
-0.01048774516
-0.007131579377
-0.004020731652
-0.001131757776
0.001547890418
0.004034437916
0.006339123688
0.008473932592
0.01044911051
0.01227381573
0.01395745784
0.01551057276
0.01694431957
0.01826806826
0.01948922448
0.02061434431
0.02164859474
0.02259876731
0.02347109272
0.02427176544
0.02500611345
0.02567817175
0.02629181664
0.02685071455
0.02736074571
0.0278254977
0.0282473285
0.02862681325
0.02896615113
0.02927023405
0.02954361698
0.0297887039
0.03001057439
0.03021048875
0.03039086336
0.03054709367
0.03068722704
0.03081103727
0.03092313563
0.03102506333
0.03111472383
0.03122773836
0.03137104266
0.03197649676
0.03255759643
0.03319863688
0.03380352199
)


101
(
-1.360781494e-12
-6.418510521e-07
-1.014197897e-05
-4.451409088e-05
-0.0001401313631
-0.0003564630207
-0.0007843220657
-0.001656873453
-0.003272419083
-0.006099032484
-0.0106628106
-0.01755385729
-0.02703839735
-0.03975859868
-0.05550446338
-0.073715166
-0.09382645055
-0.1152719296
-0.1363194054
-0.1565358094
-0.1748796599
-0.1902540605
-0.2024354436
-0.2113837996
-0.217010891
-0.2194220357
-0.218926399
-0.2159297213
-0.210851195
-0.204083725
-0.1959950455
-0.1869323138
-0.1772547249
-0.1672604274
-0.1570219647
-0.1466728237
-0.1363555075
-0.1262096943
-0.1163792876
-0.1069524795
-0.09793462779
-0.08930946618
-0.08111600335
-0.07335988112
-0.06603106765
-0.05913250377
-0.05264994629
-0.04657915021
-0.04089886465
-0.0355898091
-0.03062373153
-0.02598049611
-0.02164295454
-0.01759607414
-0.01382495433
-0.01031508635
-0.007054558782
-0.004021966738
-0.001204422247
0.001415591249
0.003850241239
0.006112019591
0.008211222586
0.01015640908
0.01195596018
0.01361902935
0.01515643441
0.01657891859
0.01789538189
0.01911322097
0.02023700794
0.0212729359
0.02222683183
0.02310527298
0.02391438014
0.02465883057
0.02534244196
0.02596793039
0.02654119407
0.02706687963
0.027548423
0.02798687544
0.02838314455
0.02874106701
0.02906517865
0.02935841458
0.02962543964
0.02986955753
0.03009270953
0.030292194
0.03047173983
0.03063284421
0.03078121353
0.03091815093
0.03104138612
0.03118745249
0.03136255568
0.03196423424
0.0325414286
0.03317644327
0.03377527449
)


101
(
-1.360782604e-12
-2.455139296e-07
-8.571577572e-06
-3.981271925e-05
-0.0001277161688
-0.0003262475603
-0.0007165417347
-0.001511964311
-0.002987921463
-0.005578480109
-0.009779589128
-0.01615088472
-0.02497534512
-0.03684631054
-0.05166514247
-0.06895471283
-0.08819447277
-0.1088588079
-0.1294881688
-0.1494580928
-0.1678953753
-0.1837467803
-0.1966110497
-0.2064017541
-0.2130259484
-0.2165312109
-0.2171522782
-0.2152382706
-0.211175862
-0.2053396721
-0.1980826217
-0.1897366448
-0.1806350918
-0.1711094069
-0.1612828371
-0.1512938264
-0.1412674865
-0.1313246791
-0.1216011692
-0.1122044761
-0.1031762155
-0.0945176344
-0.08626679659
-0.07843030153
-0.07100159301
-0.06398472937
-0.05736574254
-0.05114456367
-0.0453064421
-0.03983864503
-0.03471681255
-0.02992074
-0.02543021771
-0.02122846024
-0.01730184442
-0.01363738891
-0.01022483974
-0.007044722469
-0.004085769182
-0.001329931041
0.001236284182
0.003626344211
0.005851300581
0.007919955262
0.00983986289
0.01161855168
0.0132651094
0.01479068429
0.01620549202
0.01751872687
0.01873558264
0.01986140529
0.02090139472
0.021861653
0.02274885962
0.02356864536
0.02432567979
0.02502194284
0.02566244035
0.02625225733
0.02679626166
0.02729604555
0.02775227057
0.02816731463
0.02854585246
0.02889115444
0.02920700666
0.02949808243
0.02976701011
0.03001173906
0.03023480267
0.03043581829
0.0306235152
0.03079791369
0.03095796056
0.03113913856
0.03134803234
0.0319445088
0.03251652727
0.03314485169
0.03373645667
)


101
(
-1.360782027e-12
1.031908226e-07
-7.138411188e-06
-3.549212439e-05
-0.0001163214229
-0.0002985994021
-0.0006546421901
-0.001379361952
-0.002726502658
-0.005097761121
-0.008959455324
-0.01484083896
-0.02303611092
-0.03409455564
-0.04800801955
-0.06438190935
-0.08274210763
-0.1026025027
-0.1227337571
-0.1423984711
-0.1608336008
-0.1770494901
-0.190517721
-0.2010852096
-0.2086430879
-0.2131937667
-0.2149058505
-0.2140702577
-0.2110350968
-0.2061531204
-0.1997615204
-0.19217692
-0.1837095822
-0.1746998967
-0.1653112107
-0.1557021898
-0.1459968799
-0.1363033411
-0.1267436394
-0.1174287167
-0.1084228027
-0.09974889107
-0.09145577963
-0.08355365435
-0.0760400054
-0.0689210706
-0.06218223087
-0.05582434666
-0.04983730198
-0.04421501401
-0.03893840025
-0.03399002997
-0.02934920979
-0.02499690732
-0.02091736322
-0.01709903745
-0.01353351667
-0.01020307511
-0.00709880044
-0.004203454236
-0.001502991945
0.001017150371
0.003368919421
0.005562571479
0.007605899402
0.009505347809
0.01126725435
0.01290148513
0.01441866021
0.0158299557
0.01714258172
0.01836199983
0.01949250242
0.02053916517
0.02150845141
0.02240699247
0.02324040769
0.02401103641
0.02472312174
0.02538078777
0.02599005151
0.02655394465
0.02707310844
0.02754860451
0.02798460339
0.02838556533
0.02875447172
0.02909509105
0.02941289272
0.02970510665
0.02997533242
0.03021916679
0.03044839405
0.03066336372
0.0308629375
0.03108155866
0.03132606682
0.03191557768
0.03248124434
0.03310417562
0.03369295798
)


101
(
-1.360705985e-12
4.074716565e-07
-5.833200433e-06
-3.152357012e-05
-0.0001058641332
-0.0002733078045
-0.0005981585971
-0.001258172879
-0.002486654377
-0.004654567313
-0.008199242374
-0.01361986693
-0.02121701731
-0.03150001273
-0.04453296179
-0.06000048455
-0.07747712915
-0.09651559519
-0.1160803315
-0.1353795608
-0.1537237874
-0.1701943204
-0.1841793684
-0.1954529708
-0.203878956
-0.209421186
-0.2121904675
-0.212420754
-0.2104171882
-0.2065064181
-0.201008324
-0.1942243977
-0.1864442033
-0.178002626
-0.169088747
-0.1598844266
-0.1505248703
-0.1411162365
-0.1317692109
-0.1225884385
-0.1136477927
-0.1049874848
-0.09667136547
-0.08871962145
-0.08113549979
-0.07392912362
-0.06708659337
-0.06060771371
-0.0544836741
-0.04871435679
-0.04328614488
-0.03818623412
-0.03339591171
-0.02889561879
-0.02466722085
-0.02069823647
-0.01698065175
-0.01349862441
-0.01024568749
-0.007206810244
-0.004368512484
-0.001715531887
0.0007649036981
0.003084564022
0.005252520684
0.007275616164
0.009158515978
0.01090778593
0.0125330866
0.01404654389
0.01545760339
0.01677348649
0.01799822288
0.01913590813
0.02019203599
0.02117340108
0.02208621672
0.02293405534
0.02372183489
0.02445183994
0.02512947602
0.02576021718
0.02634537455
0.026885034
0.02738169379
0.02784104215
0.02826708465
0.02866059392
0.02902935197
0.02937228455
0.02969234119
0.02998233129
0.03025537397
0.03051395807
0.03075531129
0.03101293996
0.0312947957
0.03187753743
0.03243705197
0.03305512726
0.03364014757
)


101
(
-1.360441124e-12
6.703563421e-07
-4.647333245e-06
-2.788051664e-05
-9.626732448e-05
-0.0002501757347
-0.0005466521086
-0.001147544314
-0.002266920122
-0.00424663601
-0.00749578806
-0.01248402562
-0.01951408769
-0.02905883035
-0.04123890057
-0.0558131033
-0.07240618289
-0.09060925213
-0.1095500838
-0.1284241512
-0.1465947569
-0.1632145228
-0.1776231588
-0.1895263515
-0.1987516755
-0.2052270193
-0.2090123474
-0.2102877276
-0.209312903
-0.2063842006
-0.2018017434
-0.1958519686
-0.1888059511
-0.1809847617
-0.1725903752
-0.1638231589
-0.1548348707
-0.1457395942
-0.1366446981
-0.1276469373
-0.1188190469
-0.110210115
-0.1018971963
-0.09391517816
-0.08627621671
-0.07899628765
-0.07206466663
-0.06548097907
-0.05923533415
-0.05332997572
-0.04775630012
-0.04250722571
-0.03756820153
-0.03292102952
-0.02854688262
-0.02443083073
-0.02056401832
-0.01693097751
-0.01352767555
-0.01034163755
-0.00736145875
-0.004572064026
-0.001960151582
0.0004870154577
0.002780332438
0.00492790253
0.006935125008
0.008805508701
0.0105458308
0.01216716103
0.01368036658
0.01509522377
0.01641743817
0.01765042386
0.01879835022
0.01986703087
0.02086321161
0.02179136338
0.02265759765
0.02346419288
0.0242146014
0.02491493203
0.02556885039
0.0261765029
0.0267379289
0.0272578597
0.02774417857
0.0281949718
0.02861705994
0.0290134034
0.02938591698
0.02972527989
0.03004474167
0.03034944017
0.03063495663
0.03093301876
0.03125312249
0.03182998612
0.03238446509
0.03299949412
0.03358137633
)


101
(
-1.360249436e-12
8.947088838e-07
-3.572827729e-06
-2.453856617e-05
-8.746008656e-05
-0.0002290202142
-0.0004997100238
-0.001046663983
-0.00206590659
-0.003871776482
-0.006845964009
-0.01142931346
-0.01792314113
-0.02676674367
-0.03812391205
-0.05182149173
-0.06753490478
-0.08489347403
-0.1031632359
-0.1215553969
-0.1394751482
-0.1561434509
-0.1708791479
-0.1833299444
-0.1932819424
-0.2006274577
-0.205381154
-0.2076728883
-0.2077163947
-0.2057741719
-0.2021234805
-0.1970350066
-0.1907634457
-0.183611902
-0.1757856355
-0.1674954181
-0.1589086951
-0.1501533168
-0.141342699
-0.1325697376
-0.1239012854
-0.1153872355
-0.1071119499
-0.09912392439
-0.09144855908
-0.08411017109
-0.07710327774
-0.07042970038
-0.06407835757
-0.05805106203
-0.05234216467
-0.04694943097
-0.04186368351
-0.03707053703
-0.03255206057
-0.02829137593
-0.02427889507
-0.02049764694
-0.01694454809
-0.01360918322
-0.01048350087
-0.007553366199
-0.004806032587
-0.002228615714
0.0001911938731
0.002463785378
0.004596261661
0.006591593362
0.008453364176
0.01018938977
0.01181033024
0.01332766609
0.01474989478
0.01608146998
0.01732580737
0.01848717165
0.01957159786
0.02058387799
0.02153141089
0.02241788812
0.02324574142
0.02401924021
0.02474440503
0.02542328499
0.0260539506
0.02663786554
0.02718650591
0.02769867201
0.02817820535
0.0286293238
0.02905722813
0.02944924224
0.02981801034
0.03017056097
0.03050277752
0.03084340512
0.03120252768
0.03177448696
0.03232549204
0.03294123932
0.03352514304
)


101
(
-1.360243241e-12
1.08324341e-06
-2.602256497e-06
-2.147524848e-05
-7.93770318e-05
-0.000209671461
-0.0004569456953
-0.0009547601583
-0.001882273607
-0.003527863276
-0.006246685701
-0.01045169824
-0.01643976752
-0.02461911563
-0.03518530368
-0.04802632041
-0.06286770218
-0.07937710932
-0.09693750491
-0.1147956884
-0.1323930906
-0.1490145518
-0.1639795404
-0.1768911267
-0.1874930819
-0.1956415709
-0.2013099092
-0.2045815024
-0.2056250121
-0.2046667916
-0.2019579196
-0.1977516208
-0.1922875417
-0.1858495427
-0.1786399899
-0.1708720524
-0.1627239323
-0.1543379369
-0.1458394959
-0.1373255686
-0.1288591539
-0.1204852436
-0.1122884229
-0.1043253593
-0.09663618044
-0.08925711526
-0.08218956445
-0.07543988741
-0.06899793645
-0.06286376175
-0.05703232518
-0.05150532908
-0.04627809295
-0.04134067567
-0.0366789994
-0.03227581406
-0.02812038601
-0.02419419653
-0.02049334676
-0.01700872633
-0.01373510604
-0.01066050455
-0.007773133311
-0.005061270847
-0.002512333309
-0.0001134964176
0.002144370016
0.004266146913
0.006253540991
0.008110916245
0.009846406933
0.01147150913
0.01299677669
0.0144293828
0.01577372364
0.01703309722
0.01821136555
0.01931270881
0.02034524608
0.02131452491
0.02222391739
0.02307541372
0.0238747301
0.02462703656
0.02533112282
0.02598390736
0.02659688313
0.02717319589
0.0277146387
0.02822280553
0.0287083836
0.0291563038
0.02957757604
0.02997982365
0.03036108456
0.03074637709
0.03114566308
0.03171595151
0.03226648975
0.03288542163
0.03347097912
)


101
(
-1.360236321e-12
1.238536481e-06
-1.728713938e-06
-1.866994079e-05
-7.195809642e-05
-0.0001919724871
-0.0004179991249
-0.000871104687
-0.001714734922
-0.003212838501
-0.005694956464
-0.009547145
-0.01505941053
-0.02261103484
-0.03241978307
-0.04442731295
-0.05840796708
-0.07406758034
-0.09088884437
-0.1081660917
-0.1253757672
-0.1418612767
-0.1569582168
-0.1702400106
-0.1814112117
-0.1902913614
-0.1968150002
-0.201022631
-0.2030398199
-0.2030558054
-0.201292528
-0.1979832289
-0.193352709
-0.1876655854
-0.1811181122
-0.1739197544
-0.1662530302
-0.1582712729
-0.1501133707
-0.1418878208
-0.1336593794
-0.1254685018
-0.1173939545
-0.1094939762
-0.1018192855
-0.09442060051
-0.08730948187
-0.08049787682
-0.07397926266
-0.06775334997
-0.06181404687
-0.056164294
-0.05080370669
-0.04572662831
-0.04092335699
-0.03637969913
-0.0320835947
-0.02801526718
-0.02416950521
-0.0205370232
-0.01711428557
-0.01389275627
-0.01086166099
-0.00801071979
-0.00532789123
-0.002800067725
-0.0004158838982
0.001832455615
0.003947203892
0.005931007382
0.007787940484
0.009527549075
0.01116073055
0.01269704324
0.01414368525
0.01550496628
0.01678304201
0.01797962705
0.01910164119
0.02015704685
0.02115135336
0.02208584844
0.02296373218
0.02379171648
0.02457191921
0.02529880324
0.0259797084
0.02662224801
0.02722933108
0.0277983471
0.02834377533
0.02885053081
0.02932661971
0.02978109664
0.03021346167
0.03064547414
0.03108624293
0.03165782347
0.03221097797
0.03283563225
0.03343059541
)


101
(
-1.360230373e-12
1.363038202e-06
-9.457725908e-07
-1.610370836e-05
-6.51482669e-05
-0.0001757786249
-0.000382535454
-0.000795011341
-0.001562063216
-0.002924718247
-0.005187866347
-0.008711637219
-0.01377739372
-0.02073731863
-0.02982338051
-0.04102327035
-0.05415799188
-0.06897104784
-0.08503087992
-0.1016863861
-0.118449313
-0.1347163415
-0.149850277
-0.1634091528
-0.1750650231
-0.1846016006
-0.1919161689
-0.1970094108
-0.1999660607
-0.2009386631
-0.200118002
-0.1977145113
-0.1939370999
-0.1890313184
-0.1831860733
-0.1766031955
-0.1694638315
-0.1619267455
-0.1541419956
-0.1462324738
-0.1382722787
-0.130302099
-0.1223929769
-0.11459863
-0.1069734584
-0.0995808797
-0.09244619717
-0.08558918866
-0.07900776409
-0.07270440052
-0.06667251409
-0.06091387571
-0.05543017446
-0.05022058546
-0.04527930443
-0.04059647896
-0.03616207905
-0.03195465317
-0.02796716359
-0.02418910653
-0.02061787769
-0.01724785765
-0.01407042492
-0.0110763046
-0.008254349935
-0.005593145329
-0.003079809561
-0.0007041302257
0.00153891159
0.003651788508
0.005635671221
0.007496962026
0.009244778211
0.01088933088
0.01244053855
0.01390597604
0.01528856978
0.01658660259
0.017804457
0.01895009406
0.02003192877
0.02105347343
0.02201542475
0.02292268286
0.02378115694
0.02458630707
0.02534012143
0.02605124353
0.02672699544
0.0273610371
0.02796821083
0.02853708151
0.02906981908
0.02957899875
0.0300644758
0.03054444904
0.03102704967
0.03160299399
0.03216183039
0.03279355184
0.03339841287
)


101
(
-1.360223029e-12
1.459088338e-06
-2.477854135e-07
-1.37591001e-05
-5.889698219e-05
-0.0001609564261
-0.0003502428912
-0.0007258332459
-0.001423078501
-0.002661574186
-0.0047225653
-0.007941202924
-0.01258890686
-0.01899245286
-0.02739136348
-0.03781200834
-0.0501187407
-0.06409231986
-0.07937511034
-0.09537428528
-0.1116379661
-0.1276115614
-0.1426911701
-0.1564330545
-0.1684852691
-0.1785990386
-0.1866355829
-0.1925579921
-0.196412419
-0.1983160239
-0.1984277063
-0.1969326052
-0.1940218294
-0.1899211573
-0.1848119925
-0.1788864617
-0.1723204015
-0.1652726314
-0.1578992441
-0.1503357267
-0.1426713571
-0.134953014
-0.1272483751
-0.119603185
-0.1120684289
-0.1047139687
-0.09757911538
-0.09069563798
-0.08406748716
-0.07770106357
-0.07159101243
-0.06573821566
-0.0601442269
-0.0548114519
-0.04973828011
-0.04491927
-0.04034824762
-0.03600412357
-0.0318784292
-0.02795834818
-0.02424092194
-0.02072199071
-0.01739632896
-0.0142556407
-0.01129024051
-0.008490373792
-0.005843329109
-0.003337627933
-0.0009651206182
0.001278031024
0.003392446683
0.005381781709
0.007251841301
0.009011559758
0.01067150334
0.01224273625
0.01373187966
0.01513672107
0.01645755462
0.01769915561
0.01887181649
0.01998334497
0.02103407366
0.02202558884
0.02296510545
0.02385158179
0.02468346843
0.02546643034
0.02621311344
0.02691592501
0.02758681277
0.02822052439
0.02881272787
0.02937835515
0.02991881657
0.03044734135
0.03097211908
0.031554999
0.032121949
0.03275985995
0.03337094916
)


101
(
-1.360214436e-12
1.528922756e-06
3.711917053e-07
-1.162015525e-05
-5.315819787e-05
-0.0001473838503
-0.0003208339536
-0.000662967832
-0.001296654074
-0.002421529876
-0.004296301675
-0.00723198557
-0.01148916916
-0.01737076255
-0.0251184129
-0.03479029496
-0.04629011893
-0.05943488961
-0.07393145715
-0.08924617795
-0.1049645658
-0.120577255
-0.1355166182
-0.1493482304
-0.161705763
-0.1723133824
-0.1809986984
-0.1876885629
-0.1923923029
-0.1951932895
-0.196219184
-0.1956283071
-0.1935916222
-0.1903136119
-0.1859676944
-0.1807356704
-0.1747860063
-0.1682735183
-0.1613544318
-0.154172212
-0.1468317067
-0.1393925591
-0.1319253992
-0.1244699859
-0.1170688878
-0.109790796
-0.1026846029
-0.09579626275
-0.08913979805
-0.08272598528
-0.07655239651
-0.07062022156
-0.06493013265
-0.05948563679
-0.05428873261
-0.04933876364
-0.04463363279
-0.04015491545
-0.03589415816
-0.03183593322
-0.02797536098
-0.02430899639
-0.02083412182
-0.01754460377
-0.01443254871
-0.01148885846
-0.008702706631
-0.006062676218
-0.003558371477
-0.001183414286
0.001063927361
0.003185681038
0.005185086557
0.007068219995
0.008843724973
0.01052409041
0.01212094413
0.01363544652
0.01506503512
0.01640995181
0.01767887595
0.01888277079
0.02002566996
0.02110670979
0.02213084173
0.0231008404
0.02401522658
0.02487418672
0.02569366936
0.02646821664
0.02720550958
0.027905452
0.0285604686
0.0291839464
0.02978051096
0.03035812134
0.03092553756
0.03151590852
0.03209175128
0.03273317796
0.03335222197
)


101
(
-1.36020776e-12
1.574666455e-06
9.167461638e-07
-9.67225094e-06
-4.789004755e-05
-0.0001349494838
-0.0002940445791
-0.0006058558041
-0.001181736343
-0.002202795653
-0.003906418883
-0.006580224633
-0.01047342513
-0.01586647797
-0.0229988297
-0.03195402974
-0.04267104745
-0.05500119223
-0.06870792195
-0.08331664165
-0.09845038323
-0.1136420944
-0.128362116
-0.1421925808
-0.1547632487
-0.1657778584
-0.1750343274
-0.182425029
-0.1879236318
-0.1915809574
-0.1934947858
-0.193796491
-0.1926349309
-0.1901911259
-0.1866293191
-0.1821205478
-0.1768252504
-0.1708918978
-0.1644725054
-0.1577125598
-0.1507282376
-0.1435951206
-0.1363929547
-0.1291620981
-0.1219368348
-0.11477749
-0.107735277
-0.1008681016
-0.09420376571
-0.08776002374
-0.08153833009
-0.07554190537
-0.06977087181
-0.06422794001
-0.05891749976
-0.05384299416
-0.04900747958
-0.04439659678
-0.04000338708
-0.03581086833
-0.03181104942
-0.02800004164
-0.02437617821
-0.0209365523
-0.01767532724
-0.01458394444
-0.01165367501
-0.008873928952
-0.006233784863
-0.003724338735
-0.001342245924
0.000914877419
0.003049013568
0.005063402468
0.006963167054
0.00875917765
0.01046630807
0.01209115514
0.01363301024
0.01508799705
0.01646020944
0.01776014364
0.01899762493
0.02017272972
0.02128587505
0.02234139104
0.02334117206
0.02428056448
0.02517466783
0.02602319467
0.02682973441
0.0275966882
0.02831666635
0.02899940697
0.02965247812
0.03027943994
0.03088947672
0.03148583856
0.03206938266
0.0327090192
0.03333036706
)


101
(
-1.360200076e-12
1.598348267e-06
1.393431355e-06
-7.90191085e-06
-4.305416308e-05
-0.0001235510053
-0.0002696305046
-0.0005539728378
-0.001077336292
-0.002003678269
-0.003550271438
-0.005982244257
-0.00953684185
-0.01447362813
-0.02102643612
-0.0292983443
-0.039259262
-0.05079235581
-0.06371085667
-0.07759755356
-0.09211375839
-0.1068324409
-0.1212612111
-0.1350040161
-0.1476956646
-0.1590276969
-0.1687734162
-0.176793461
-0.1830271854
-0.1874933379
-0.1902608332
-0.191435413
-0.19114289
-0.1895386809
-0.1867759537
-0.1830138502
-0.1784046873
-0.1730899319
-0.1672148889
-0.1609215309
-0.1543315051
-0.1475342049
-0.1406227204
-0.1336452515
-0.1266327988
-0.1196351128
-0.1126976785
-0.1058838907
-0.09923492365
-0.0927807796
-0.08652802346
-0.08048298789
-0.07464684518
-0.06902083492
-0.06360928869
-0.05841894546
-0.05345758732
-0.04871678064
-0.04419292282
-0.03986931132
-0.03573502869
-0.03178310876
-0.02801229536
-0.0244220529
-0.02100961232
-0.01776789399
-0.01468933829
-0.01176455193
-0.008983554878
-0.006336096262
-0.003817032925
-0.001422222364
0.000850148014
0.003001800713
0.0050345739
0.006955178708
0.008777940547
0.01051469175
0.01216996761
0.0137391481