/*--------------------------------*- C++ -*----------------------------------*\
| =========                 |                                                 |
| \\      /  F ield         | OpenFOAM: The Open Source CFD Toolbox           |
|  \\    /   O peration     | Version:  2.3.1                                 |
|   \\  /    A nd           | Web:      www.OpenFOAM.org                      |
|    \\/     M anipulation  |                                                 |
\*---------------------------------------------------------------------------*/
FoamFile
{
    version     2.0;
    format      ascii;
    class       dictionary;
    location    "constant";
    object      PM58;
}
// * * * * * * * * * * * * * * * * * * * * * * * * * * * * * * * * * * * * * //

PM58_table
101
(

101
(
-1.089464496e-35
-3.966806176e-31
-1.781783012e-29
-1.746715406e-28
-8.610808245e-28
-2.672867639e-27
-6.189577178e-27
-1.334749611e-26
-2.598078427e-26
-4.742249933e-26
-8.228965435e-26
-1.386155922e-25
-2.246907514e-25
-3.649608272e-25
-5.822753159e-25
-9.086517833e-25
-1.391784149e-24
-2.126580129e-24
-3.072223277e-24
-4.475922824e-24
-6.227443581e-24
-8.312952918e-24
-1.09343438e-23
-1.39358646e-23
-1.715204725e-23
-2.041759115e-23
-2.353430158e-23
-2.62773698e-23
-2.84726849e-23
-2.995466049e-23
-3.058635634e-23
-3.029502918e-23
-2.910400405e-23
-2.661848834e-23
-2.353238473e-23
-1.958699129e-23
-1.027678628e-22
-2.388781706e-22
-2.342235876e-22
-2.265009013e-22
-2.168786706e-22
-2.069206318e-22
-1.946289814e-22
-1.812729621e-22
-1.676617143e-22
-1.528764585e-22
-1.380337726e-22
-1.226252489e-22
-1.074246397e-22
-9.217604346e-23
-7.745509908e-23
-6.313182056e-23
-4.937735647e-23
-3.63206399e-23
-2.404362408e-23
-1.256663562e-23
-1.737009694e-24
7.969430803e-24
1.692797953e-23
2.491179123e-23
3.201736122e-23
3.821621371e-23
4.35405242e-23
4.802097315e-23
5.167772538e-23
5.45675613e-23
5.67182427e-23
5.817460293e-23
5.897848868e-23
5.918855101e-23
5.884806706e-23
5.80141059e-23
5.67197275e-23
5.504123653e-23
3.455581888e-23
2.212876723e-23
2.498726145e-23
2.67044977e-23
2.750855403e-23
2.756813698e-23
2.702565292e-23
2.592965187e-23
2.446820834e-23
1.559764745e-23
1.01423894e-23
1.134092963e-23
1.15079294e-23
1.096239646e-23
9.926281368e-24
5.469469204e-24
5.107701339e-24
4.707415762e-24
3.820050758e-24
2.419808358e-24
1.509381152e-24
8.484397553e-25
2.970018374e-25
1.208445727e-24
4.082838108e-24
1.192670193e-23
3.075591489e-23
)


101
(
-1.089464723e-35
-2.551795475e-31
-9.937270237e-30
-9.135385106e-29
-4.335740062e-28
-1.309708856e-27
-2.955002799e-27
-6.237028449e-27
-1.188176756e-26
-2.124155049e-26
-3.608565943e-26
-5.952003036e-26
-9.412460164e-26
-1.495500394e-25
-2.324309151e-25
-3.513105146e-25
-5.180763534e-25
-7.610949689e-25
-1.029157804e-24
-1.413111512e-24
-1.78870212e-24
-2.088542463e-24
-2.340671287e-24
-2.347239301e-24
-1.928447455e-24
-9.128201507e-25
8.817477251e-25
3.63147613e-24
7.445171228e-24
1.242612219e-23
1.86089885e-23
2.599527811e-23
3.455907317e-23
4.415980346e-23
5.469286627e-23
6.605336196e-23
3.367892166e-23
-2.511032273e-23
-1.267806089e-23
1.163256475e-24
1.591492714e-23
3.09020501e-23
4.663684608e-23
6.269506743e-23
7.867638904e-23
9.476478078e-23
1.105507604e-22
1.26083211e-22
1.410572152e-22
1.554594955e-22
1.690568342e-22
1.818241869e-22
1.936679846e-22
2.045052848e-22
2.142788663e-22
2.229610588e-22
2.305689862e-22
2.369507294e-22
2.422009148e-22
2.462627485e-22
2.491596284e-22
2.5090038e-22
2.515101544e-22
2.510199678e-22
2.49464302e-22
2.468904671e-22
2.433388238e-22
2.388608458e-22
2.335105522e-22
2.273483584e-22
2.204404641e-22
2.128528308e-22
2.046496319e-22
1.959105265e-22
1.774553684e-22
1.628632642e-22
1.557590553e-22
1.478625741e-22
1.39299584e-22
1.302441355e-22
1.20875876e-22
1.11300565e-22
1.016653816e-22
8.850634919e-23
7.732221131e-23
6.974686456e-23
6.18815438e-23
5.396214388e-23
4.621842489e-23
3.725329586e-23
3.085794823e-23
2.500852022e-23
1.942756704e-23
1.420974546e-23
9.901777016e-24
6.280032172e-24
3.332961395e-24
1.08806065e-23
3.075663467e-23
7.773090853e-23
1.776806728e-22
)


101
(
-1.08946479e-35
-1.083656888e-31
-2.031625572e-30
-8.124872103e-30
-6.758978162e-30
5.208802097e-29
2.807179322e-28
8.914834116e-28
2.290529287e-27
5.160895977e-27
1.068111865e-26
2.086778798e-26
3.917151707e-26
7.14818021e-26
1.283764336e-25
2.269949606e-25
3.951243197e-25
6.777936183e-25
1.144119539e-24
1.8866559e-24
3.053894638e-24
4.816983977e-24
7.38839725e-24
1.10509085e-23
1.610161408e-23
2.283252969e-23
3.152216094e-23
4.241421996e-23
5.569228094e-23
7.147288762e-23
8.980340369e-23
1.106553658e-22
1.33962653e-22
1.596621737e-22
1.872951657e-22
2.169200203e-22
2.483378666e-22
2.813893115e-22
3.158438658e-22
3.512285291e-22
3.87009589e-22
4.2285053e-22
4.591519386e-22
4.953476758e-22
5.311419685e-22
5.667595887e-22
6.015832873e-22
6.357535378e-22
6.687162436e-22
7.005613764e-22
7.307838503e-22
7.594487574e-22
7.863199204e-22
8.111966596e-22
8.339138473e-22
8.543910212e-22
8.728718489e-22
8.882791749e-22
9.015052732e-22
9.118076902e-22
9.195116428e-22
9.242998601e-22
9.262041576e-22
9.252933346e-22
9.214870923e-22
9.148410429e-22
9.053046991e-22
8.929583903e-22
8.779698216e-22
8.602239052e-22
8.39969307e-22
8.172852621e-22
7.924002701e-22
7.652648383e-22
7.361695532e-22
7.0535189e-22
6.731422673e-22
6.394248857e-22
6.041236395e-22
5.674372716e-22
5.297552242e-22
4.915898501e-22
4.531801329e-22
4.148618537e-22
3.769022398e-22
3.396111889e-22
3.029932086e-22
2.67070445e-22
2.323121893e-22
1.992847474e-22
1.681459227e-22
1.392471236e-22
1.125680212e-22
8.825615542e-23
6.680031677e-23
4.757812648e-23
3.075452931e-23
8.469644272e-23
2.079277412e-22
4.667449949e-22
9.65818887e-22
)


101
(
-1.089464849e-35
-9.788765334e-32
-1.970879189e-30
-8.248968545e-30
-8.314470678e-30
4.705147847e-29
2.728288915e-28
8.917205181e-28
2.340017613e-27
5.369604308e-27
1.129825572e-26
2.241213008e-26
4.267836367e-26
7.893457452e-26
1.435780612e-25
2.572669049e-25
4.541431682e-25
7.905727707e-25
1.355929329e-24
2.277031763e-24
3.754187043e-24
6.045202737e-24
9.482578542e-24
1.450734886e-23
2.163927255e-23
3.144294208e-23
4.450634985e-23
6.141023938e-23
8.27025411e-23
1.088328569e-22
1.401759402e-22
1.769617564e-22
2.192489555e-22
2.676932573e-22
3.213230087e-22
3.803895834e-22
4.447748456e-22
5.142156872e-22
5.888008346e-22
6.681684517e-22
7.510845464e-22
8.361008704e-22
9.244595121e-22
1.015152034e-21
1.107102151e-21
1.201100837e-21
1.295673476e-21
1.391212931e-21
1.486274912e-21
1.581021852e-21
1.674019542e-21
1.765239988e-21
1.854049282e-21
1.939733502e-21
2.021609087e-21
2.099251009e-21
2.173521286e-21
2.241025435e-21
2.303836312e-21
2.359922069e-21
2.40983407e-21
2.452523746e-21
2.487708102e-21
2.515379387e-21
2.535102454e-21
2.546755557e-21
2.549935613e-21
2.544582579e-21
2.531009138e-21
2.508624079e-21
2.477863618e-21
2.43878352e-21
2.391925129e-21
2.33696229e-21
2.274312695e-21
2.204314387e-21
2.128108485e-21
2.045860559e-21
1.957311334e-21
1.862565972e-21
1.762093421e-21
1.657343343e-21
1.549353393e-21
1.439214862e-21
1.327585499e-21
1.215620849e-21
1.103983223e-21
9.929057699e-22
8.827606532e-22
7.756714751e-22
6.724886454e-22
5.746058359e-22
4.825017296e-22
3.962938134e-22
3.176776682e-22
2.445347597e-22
1.768057137e-22
4.250230055e-22
9.303700658e-22
1.892759173e-21
3.594643276e-21
)


101
(
-1.089464802e-35
-8.800331771e-32
-1.909496776e-30
-8.357333673e-30
-9.854753686e-30
4.17944363e-29
2.637232312e-28
8.881537789e-28
2.380333711e-27
5.560609576e-27
1.188791277e-26
2.392522579e-26
4.617465273e-26
8.646008215e-26
1.590687344e-25
2.883583354e-25
5.152642754e-25
9.084089415e-25
1.579529756e-24
2.694317171e-24
4.513993895e-24
7.400237333e-24
1.183781866e-23
1.847701451e-23
2.813789068e-23
4.177817957e-23
6.046216249e-23
8.532078151e-23
1.175274439e-22
1.58170945e-22
2.082834098e-22
2.687012919e-22
3.399198061e-22
4.23763006e-22
5.191573862e-22
6.266658765e-22
7.464945818e-22
8.784556009e-22
1.023258597e-21
1.181190666e-21
1.350493299e-21
1.528051263e-21
1.715886394e-21
1.9126303e-21
2.11613804e-21
2.327866749e-21
2.545260437e-21
2.769039753e-21
2.996458666e-21
3.227624818e-21
3.459572934e-21
3.691854937e-21
3.923040415e-21
4.151419857e-21
4.375181614e-21
4.592998336e-21
4.806578929e-21
5.008614128e-21
5.20251212e-21
5.383841043e-21
5.553176082e-21
5.707889322e-21
5.846762004e-21
5.969237538e-21
6.073962952e-21
6.160131458e-21
6.226336703e-21
6.271854642e-21
6.296913606e-21
6.299744284e-21
6.280793939e-21
6.239670062e-21
6.177263489e-21
6.092601402e-21
5.986123779e-21
5.857856482e-21
5.709911255e-21
5.543128415e-21
5.357441168e-21
5.15315206e-21
4.929971874e-21
4.690074432e-21
4.436122175e-21
4.171507342e-21
3.897853851e-21
3.617910233e-21
3.333648281e-21
3.047192683e-21
2.758529667e-21
2.471831429e-21
2.190077568e-21
1.918150149e-21
1.65738336e-21
1.408852515e-21
1.176514101e-21
9.545439968e-22
7.411366405e-22
1.596165381e-21
3.182318101e-21
5.98242077e-21
1.06146499e-20
)


101
(
-1.08946495e-35
-7.870299829e-32
-1.847605075e-30
-8.449797697e-30
-1.137480605e-29
3.633419353e-29
2.534100798e-28
8.806557459e-28
2.410749597e-27
5.731295569e-27
1.244259756e-26
2.538833173e-26
4.961701827e-26
9.396288492e-26
1.746396664e-25
3.198066112e-25
5.774738658e-25
1.029136671e-24
1.810384902e-24
3.12936993e-24
5.31581991e-24
8.850405757e-24
1.440056158e-23
2.287721668e-23
3.548206173e-23
5.369762157e-23
7.925898112e-23
1.141116353e-22
1.603936422e-22
2.202524395e-22
2.958585459e-22
3.891873261e-22
5.017066992e-22
6.3704162e-22
7.947391142e-22
9.761767579e-22
1.182272992e-21
1.413349492e-21
1.671229204e-21
1.95763973e-21
2.270950685e-21
2.606242653e-21
2.966276814e-21
3.349244878e-21
3.751756747e-21
4.176146871e-21
4.618533888e-21
5.080196448e-21
5.556674295e-21
6.047955689e-21
6.548770799e-21
7.057827275e-21
7.572261858e-21
8.088666656e-21
8.603224609e-21
9.112837778e-21
9.620097266e-21
1.011154534e-20
1.059208883e-20
1.105302102e-20
1.149441744e-20
1.191061624e-20
1.229835623e-20
1.265555914e-20
1.29788421e-20
1.326569734e-20
1.351251263e-20
1.371677159e-20
1.387791347e-20
1.399154759e-20
1.405765204e-20
1.407433029e-20
1.404246327e-20
1.395954035e-20
1.38256929e-20
1.363986116e-20
1.340475557e-20
1.312162741e-20
1.279063935e-20
1.24137106e-20
1.198941386e-20
1.151893745e-20
1.100582162e-20
1.045808319e-20
9.88027005e-21
9.278224379e-21
8.655459449e-21
8.018452717e-21
7.368425059e-21
6.71133177e-21
6.052983145e-21
5.407917731e-21
4.779466619e-21
4.171348193e-21
3.591812388e-21
3.026273219e-21
2.468602119e-21
4.867767981e-21
8.996503508e-21
1.582916606e-20
2.649842972e-20
)


101
(
-1.089464991e-35
-6.997589954e-32
-1.785330254e-30
-8.526236185e-30
-1.286964061e-29
3.068928384e-29
2.419053172e-28
8.691204537e-28
2.430591663e-27
5.879128315e-27
1.295482417e-26
2.678226967e-26
5.296028713e-26
1.013422704e-25
1.900692974e-25
3.511176948e-25
6.396751176e-25
1.15037413e-24
2.043397138e-24
3.57160059e-24
6.138583382e-24
1.035547752e-23
1.709804815e-23
2.758486994e-23
4.347697634e-23
6.691320519e-23
1.005065079e-22
1.473158974e-22
2.108468999e-22
2.948283719e-22
4.032018921e-22
5.398140139e-22
7.079017195e-22
9.137482077e-22
1.158577644e-21
1.445548037e-21
1.77708764e-21
2.15473552e-21
2.582201836e-21
3.063719478e-21
3.598960181e-21
4.18178072e-21
4.816042474e-21
5.499410157e-21
6.22709338e-21
7.002634054e-21
7.820661839e-21
8.683431279e-21
9.584478056e-21
1.052375628e-20
1.149289874e-20
1.248930203e-20
1.350781841e-20
1.454240585e-20
1.5586134e-20
1.663293638e-20
1.768607859e-20
1.872310447e-20
1.975046743e-20
2.075267806e-20
2.172829515e-20
2.266640127e-20
2.35599257e-20
2.440360751e-20
2.519027038e-20
2.591394337e-20
2.656700309e-20
2.714318137e-20
2.763975895e-20
2.804721329e-20
2.836389418e-20
2.858462177e-20
2.870918962e-20
2.873187448e-20
2.865149868e-20
2.846453639e-20
2.817320521e-20
2.777826561e-20
2.727840627e-20
2.667859202e-20
2.597754476e-20
2.51739753e-20
2.426820724e-20
2.327299089e-20
2.219910811e-20
2.105930457e-20
1.985843644e-20
1.860990963e-20
1.731853463e-20
1.599496484e-20
1.464357927e-20
1.329984694e-20
1.197167696e-20
1.067000956e-20
9.409043898e-21
8.159927457e-21
6.905100145e-21
1.266215513e-20
2.19722573e-20
3.653054329e-20
5.816566588e-20
)


101
(
-1.089465027e-35
-6.18106927e-32
-1.722799838e-30
-8.586578338e-30
-1.433432627e-29
2.487949297e-29
2.292321043e-28
8.53465081e-28
2.439249081e-27
6.001687754e-27
1.341720703e-26
2.808765631e-26
5.61579909e-26
1.08493504e-25
2.051266896e-25
3.817765175e-25
7.00718209e-25
1.269600095e-24
2.273108719e-24
4.009429546e-24
6.958620629e-24
1.186873585e-23
1.98418922e-23
3.244193732e-23
5.185527236e-23
8.099507911e-23
1.235514961e-22
1.840044906e-22
2.67664047e-22
3.804364112e-22
5.287922133e-22
7.193693677e-22
9.582355828e-22
1.25543109e-21
1.61525733e-21
2.044108434e-21
2.547254247e-21
3.128626891e-21
3.794943491e-21
4.554285585e-21
5.40927093e-21
6.353982604e-21
7.394542001e-21
8.528397132e-21
9.749314828e-21
1.106238742e-20
1.246068761e-20
1.394802812e-20
1.551589477e-20
1.716457125e-20
1.888206953e-20
2.066396256e-20
2.250187092e-20
2.438610597e-20
2.630514244e-20
2.824845211e-20
3.021962532e-20
3.218386977e-20
3.414889951e-20
3.608954756e-20
3.800139114e-20
3.986532758e-20
4.16681557e-20
4.339864486e-20
4.504329617e-20
4.658990486e-20
4.802438236e-20
4.933441892e-20
5.051283874e-20
5.154171428e-20
5.241498725e-20
5.312149372e-20
5.36574691e-20
5.401200297e-20
5.418109841e-20
5.415597371e-20
5.393617909e-20
5.352050137e-20
5.290247247e-20
5.208993521e-20
5.10826084e-20
4.987861502e-20
4.846904367e-20
4.686604447e-20
4.508699946e-20
4.315914804e-20
4.108825594e-20
3.889853514e-20
3.659782158e-20
3.421020526e-20
3.172755648e-20
2.922254484e-20
2.671172376e-20
2.422147205e-20
2.177534911e-20
1.932241081e-20
1.681906237e-20
2.900852117e-20
4.769021969e-20
7.534797161e-20
1.146185657e-19
)


101
(
-1.089464856e-35
-5.419533291e-32
-1.66013988e-30
-8.630805008e-30
-1.576399924e-29
1.89259368e-29
2.154220183e-28
8.336347371e-28
2.436184098e-27
6.096705144e-27
1.382257853e-26
2.928521735e-26
5.916317066e-26
1.153097901e-25
2.195765398e-25
4.112600199e-25
7.594348725e-25
1.384240757e-24
2.493917538e-24
4.430829686e-24
7.750877096e-24
1.333948898e-23
2.253309069e-23
3.726430336e-23
6.02911809e-23
9.53920229e-23
1.475027084e-22
2.22806831e-22
3.288478484e-22
4.743283373e-22
6.690777101e-22
9.235824823e-22
1.248029834e-21
1.657542564e-21
2.161223891e-21
2.770591624e-21
3.495680793e-21
4.344608515e-21
5.328679011e-21
6.461463979e-21
7.75055165e-21
9.192534071e-21
1.07979063e-20
1.256512437e-20
1.448694555e-20
1.657038344e-20
1.880693443e-20
2.120250888e-20
2.374687827e-20
2.644127353e-20
2.926989842e-20
3.222626087e-20
3.529804462e-20
3.847064646e-20
4.172647638e-20
4.504900299e-20
4.844080045e-20
5.185178843e-20
5.528984583e-20
5.871710627e-20
6.212474722e-20
6.548170585e-20
6.876599644e-20
7.195699707e-20
7.503135335e-20
7.79669452e-20
8.073935686e-20
8.332803912e-20
8.571837534e-20
8.787950273e-20
8.97979916e-20
9.145205073e-20
9.283234329e-20
9.391802347e-20
9.470004643e-20
9.516125432e-20
9.529590667e-20
9.509730055e-20
9.454778427e-20
9.365813177e-20
9.242709264e-20
9.085276354e-20
8.891742745e-20
8.661988761e-20
8.397939624e-20
8.10434662e-20
7.781731264e-20
7.434539803e-20
7.063342914e-20
6.672955803e-20
6.259997018e-20
5.836878441e-20
5.406729411e-20
4.97493225e-20
4.545824897e-20
4.110592242e-20
3.661468778e-20
5.982922247e-20
9.368598263e-20
1.40916377e-19
2.045672021e-19
)


101
(
-1.089464885e-35
-4.711688944e-32
-1.597477413e-30
-8.658958454e-30
-1.715393059e-29
1.28508671e-29
2.005152254e-28
8.096059766e-28
2.42093945e-27
6.162087442e-27
1.416409211e-26
3.035612268e-26
6.192920534e-26
1.216841415e-25
2.331837377e-25
4.390498931e-25
8.146727838e-25
1.491758238e-24
2.700289848e-24
4.823859038e-24
8.490182581e-24
1.47159393e-23
2.50679431e-23
4.18530684e-23
6.842059556e-23
1.094649823e-22
1.71282998e-22
2.619832459e-22
3.917122364e-22
5.725448501e-22
8.184915555e-22
1.144996783e-21
1.567799226e-21
2.108580058e-21
2.783240466e-21
3.610628678e-21
4.607989826e-21
5.790091176e-21
7.175010506e-21
8.783794023e-21
1.063128253e-20
1.271947741e-20
1.506620659e-20
1.767341219e-20
2.053429512e-20
2.36584287e-20
2.703587822e-20
3.06749387e-20
3.456421068e-20
3.870653659e-20
4.30825314e-20
4.768378816e-20
5.24937242e-20
5.749179625e-20
6.265357995e-20
6.795376162e-20
7.339219384e-20
7.890061359e-20
8.448584222e-20
9.009393255e-20
9.571033489e-20
1.012888295e-19
1.067940549e-19
1.121937953e-19
1.174509329e-19
1.225287846e-19
1.273851191e-19
1.319893313e-19
1.363159327e-19
1.403187445e-19
1.439735112e-19
1.472415965e-19
1.501022113e-19
1.525211621e-19
1.544812108e-19
1.559559674e-19
1.569280723e-19
1.573805222e-19
1.572792172e-19
1.566340109e-19
1.554411548e-19
1.536946286e-19
1.513745044e-19
1.48453271e-19
1.449395091e-19
1.409052095e-19
1.363439531e-19
1.313341798e-19
1.258775602e-19
1.200480938e-19
1.137852867e-19
1.072604153e-19
1.005294341e-19
9.36876035e-20
8.681995709e-20
7.97847296e-20
7.247053511e-20
1.125760618e-19
1.682322878e-19
2.408009922e-19
3.342338029e-19
)


101
(
-1.089445411e-35
-4.056180572e-32
-1.534937904e-30
-8.671129818e-30
-1.849951506e-29
6.677511738e-30
1.845595727e-28
7.81384714e-28
2.393143596e-27
6.195942443e-27
1.443531095e-26
3.128222073e-26
6.441048884e-26
1.27510862e-25
2.45716894e-25
4.646428599e-25
8.653252684e-25
1.58972735e-24
2.886970787e-24
5.177150339e-24
9.152444808e-24
1.594803034e-23
2.734434657e-23
4.600745983e-23
7.586548839e-23
1.225304641e-22
1.937028885e-22
2.995419053e-22
4.530533038e-22
6.70141364e-22
9.697144347e-22
1.373218438e-21
1.903387942e-21
2.589975575e-21
3.457816544e-21
4.535478077e-21
5.850212992e-21
7.426491992e-21
9.291988879e-21
1.147762256e-20
1.400798753e-20
1.689369648e-20
2.016330558e-20
2.38259818e-20
2.787828919e-20
3.233378152e-20
3.718177259e-20
4.243283758e-20
4.807447193e-20
5.411180618e-20
6.052276909e-20
6.729745697e-20
7.441457368e-20
8.184751494e-20
8.956415886e-20
9.752678021e-20
1.057332784e-19
1.140915398e-19
1.226074052e-19
1.312052398e-19
1.398636073e-19
1.485196305e-19
1.571207144e-19
1.656198076e-19
1.739604214e-19
1.820882299e-19
1.899390761e-19
1.974600446e-19
2.046151042e-19
2.113402484e-19
2.175984848e-19
2.233304325e-19
2.284958823e-19
2.33042011e-19
2.369392428e-19
2.401512386e-19
2.426434533e-19
2.443842766e-19
2.453244288e-19
2.454557769e-19
2.447703951e-19
2.432639719e-19
2.409079362e-19
2.376508236e-19
2.334752639e-19
2.284760302e-19
2.226148103e-19
2.15999904e-19
2.086489032e-19
2.006755314e-19
1.919663934e-19
1.827335914e-19
1.73069647e-19
1.631185888e-19
1.530388545e-19
1.426230433e-19
1.31735715e-19
1.947189989e-19
2.775232338e-19
3.767541662e-19
4.963231107e-19
)


101
(
-1.089375474e-35
-3.451584666e-32
-1.472643919e-30
-8.667452494e-30
-1.979625176e-29
4.300861068e-31
1.676105815e-28
7.490059894e-28
2.352515997e-27
6.196614745e-27
1.463031098e-26
3.204630392e-26
6.656307963e-26
1.326873268e-25
2.569521135e-25
4.875597353e-25
9.103559012e-25
1.675906736e-24
3.04914081e-24
5.480367337e-24
9.715745029e-24
1.69899514e-23
2.926784707e-23
4.9537854e-23
8.226019312e-23
1.339101219e-22
2.13548679e-22
3.333878829e-22
5.093872779e-22
7.615432729e-22
1.114166885e-21
1.595546504e-21
2.236700096e-21
3.076839418e-21
4.151839511e-21
5.502356439e-21
7.168564617e-21
9.188035863e-21
1.160137408e-20
1.445223733e-20
1.777774562e-20
2.160038902e-20
2.596270603e-20
3.08856356e-20
3.637361522e-20
4.244677956e-20
4.909520841e-20
5.633153837e-20
6.414195766e-20
7.25335967e-20
8.148294068e-20
9.097929854e-20
1.009965918e-19
1.115015685e-19
1.22452896e-19
1.338014312e-19
1.455388984e-19
1.57547955e-19
1.698284048e-19
1.822807535e-19
1.948716704e-19
2.075208503e-19
2.201562303e-19
2.327133389e-19
2.451138842e-19
2.572738032e-19
2.691122905e-19
2.805427992e-19
2.915081396e-19
3.019281048e-19
3.117481485e-19
3.208888452e-19
3.292947331e-19
3.368789155e-19
3.435904333e-19
3.493748699e-19
3.541936016e-19
3.580035712e-19
3.607145254e-19
3.623136098e-19
3.627765425e-19
3.620966847e-19
3.602386331e-19
3.57143603e-19
3.527291224e-19
3.471283229e-19
3.402803719e-19
3.322628413e-19
3.231290032e-19
3.130852379e-19
3.019228812e-19
2.898726997e-19
2.770676019e-19
2.637463414e-19
2.50134664e-19
2.359498306e-19
2.210454291e-19
3.102613999e-19
4.203733051e-19
5.391714744e-19
6.709340535e-19
)


101
(
-1.089325436e-35
-2.896402664e-32
-1.410718302e-30
-8.648122946e-30
-2.10398415e-29
-5.866431075e-30
1.497317977e-28
7.125375701e-28
2.298871519e-27
6.162706404e-27
1.474380064e-26
3.263248429e-26
6.83455698e-26
1.371161487e-25
2.666779523e-25
5.073556608e-25
9.488238811e-25
1.748299705e-24
3.182574139e-24
5.724556259e-24
1.016126106e-23
1.780255254e-23
3.075711105e-23
5.227773871e-23
8.727583467e-23
1.429788792e-22
2.296726497e-22
3.614846087e-22
5.572253192e-22
8.409881753e-22
1.242681065e-21
1.797928237e-21
2.546974989e-21
3.539568939e-21
4.824478851e-21
6.456564018e-21
8.491645067e-21
1.098378966e-20
1.399011299e-20
1.757021933e-20
2.17768716e-20
2.664776905e-20
3.224203623e-20
3.859676486e-20
4.573000783e-20
5.36724798e-20
6.241784325e-20
7.198086145e-20
8.234595849e-20
9.35205439e-20
1.054812766e-19
1.182167403e-19
1.316953275e-19
1.458775005e-19
1.607118836e-19
1.761396531e-19
1.921363501e-19
2.085648132e-19
2.254085225e-19
2.42546962e-19
2.59924223e-19
2.774440914e-19
2.950111387e-19
3.125383816e-19
3.299232394e-19
3.470547358e-19
3.638262046e-19
3.801135359e-19
3.95836134e-19
4.108696954e-19
4.251550469e-19
4.385863507e-19
4.511096263e-19
4.625979244e-19
4.729649137e-19
4.821247592e-19
4.90026691e-19
4.966305022e-19
5.018322955e-19
5.05577441e-19
5.078369549e-19
5.08577733e-19
5.078011718e-19
5.054373859e-19
5.012992331e-19
4.95565817e-19
4.882215892e-19
4.792340993e-19
4.686666057e-19
4.568553855e-19
4.435668097e-19
4.289649524e-19
4.132125448e-19
3.966554871e-19
3.796876969e-19
3.617983087e-19
3.428031198e-19
4.553228123e-19
5.83431015e-19
7.038795326e-19
8.202379435e-19
)


101
(
-1.089325043e-35
-2.389075725e-32
-1.349280066e-30
-8.613382393e-30
-2.222616644e-29
-1.218647145e-29
1.309936614e-28
6.720778282e-28
2.232126017e-27
6.093091164e-27
1.477116161e-26
3.302636314e-26
6.971970387e-26
1.407063848e-25
2.746976813e-25
5.236262218e-25
9.799018805e-25
1.805196589e-24
3.283763429e-24
5.902432032e-24
1.047388865e-23
1.835478018e-23
3.174770105e-23
5.409306982e-23
9.06404939e-23
1.492056228e-22
2.41074013e-22
3.820088161e-22
5.933547939e-22
9.030052274e-22
1.346269702e-21
1.966137639e-21
2.812505394e-21
3.946199754e-21
5.430233643e-21
7.335280754e-21
9.735022187e-21
1.270298706e-20
1.631612601e-20
2.065347062e-20
2.578677764e-20
3.177225951e-20
3.868740689e-20
4.658892296e-20
5.551413179e-20
6.550947214e-20
7.657707412e-20
8.873491429e-20
1.019648851e-19
1.162721081e-19
1.316326167e-19
1.480339982e-19
1.654384121e-19
1.838005059e-19
2.030573882e-19
2.231375693e-19
2.439997824e-19
2.654818707e-19
2.875536024e-19
3.100632438e-19
3.329259727e-19
3.560266223e-19
3.792505872e-19
4.024709998e-19
4.255570111e-19
4.483904799e-19
4.708118297e-19
4.926840993e-19
5.138632685e-19
5.341888063e-19
5.535903425e-19
5.719240054e-19
5.891402621e-19
6.05095683e-19
6.196713841e-19
6.327370156e-19
6.441692221e-19
6.53986935e-19
6.620831486e-19
6.683545638e-19
6.727942677e-19
6.75303394e-19
6.759119056e-19
6.746114542e-19
6.711587086e-19
6.656248462e-19
6.5808778e-19
6.485739227e-19
6.369448006e-19
6.236838456e-19
6.087723028e-19
5.920378123e-19
5.7397592e-19
5.546429052e-19
5.348989612e-19
5.137409018e-19
4.910285697e-19
6.149587298e-19
7.406212872e-19
8.353182463e-19
8.938082072e-19
)


101
(
-1.089324648e-35
-1.927987314e-32
-1.288446615e-30
-8.563530712e-30
-2.335134056e-29
-1.850396266e-29
1.114732632e-28
6.277561547e-28
2.152306406e-27
5.986952756e-27
1.470850549e-26
3.321535971e-26
7.065112202e-26
1.433751038e-25
2.808319567e-25
5.360131259e-25
1.002889229e-24
1.845225111e-24
3.350005594e-24
6.008660815e-24
1.064283401e-23
1.86248537e-23
3.219484229e-23
5.488934786e-23
9.215599573e-23
1.521887657e-22
2.469699068e-22
3.934873878e-22
6.150948925e-22
9.42873262e-22
1.416900224e-21
2.087003804e-21
3.012505213e-21
4.265137535e-21
5.922712729e-21
8.072572722e-21
1.08076553e-20
1.422309756e-20
1.841828059e-20
2.349485996e-20
2.954682601e-20
3.6652568e-20
4.490892451e-20
5.439409103e-20
6.516843047e-20
7.729945606e-20
9.08051231e-20
1.057085795e-19
1.219906112e-19
1.396505286e-19
1.586574756e-19
1.7899691e-19
2.006272483e-19
2.234934245e-19
2.475187038e-19
2.726169412e-19
2.987300776e-19
3.256629496e-19
3.533727161e-19
3.816695956e-19
4.104410733e-19
4.395260087e-19
4.687985424e-19
4.980802886e-19
5.272166997e-19
5.56073497e-19
5.844444885e-19
6.121678498e-19
6.390302882e-19
6.648563869e-19
6.895251596e-19
7.128497817e-19
7.34783374e-19
7.551586645e-19
7.738708206e-19
7.907780495e-19
8.056280429e-19
8.184738652e-19
8.291521578e-19
8.377061111e-19
8.440563356e-19
8.48041745e-19
8.497524072e-19
8.491945095e-19
8.461863203e-19
8.407418859e-19
8.328439398e-19
8.227590406e-19
8.101844843e-19
7.95540945e-19
7.793350658e-19
7.607632619e-19
7.409481035e-19
7.194990811e-19
6.975803631e-19
6.738290091e-19
6.479352839e-19
7.610998806e-19
8.542105262e-19
8.944500846e-19
8.817859124e-19
)


101
(
-1.089325467e-35
-1.5114555e-32
-1.228333112e-30
-8.498924111e-30
-2.441175121e-29
-2.479256231e-29
9.125414105e-29
5.79733214e-28
2.059548871e-27
5.843793917e-27
1.455274854e-26
3.318893325e-26
7.111005243e-26
1.450490883e-25
2.849225423e-25
5.442089591e-25
1.017220359e-24
1.867364581e-24
3.379470541e-24
6.039936518e-24
1.066181716e-23
1.860083922e-23
3.207474766e-23
5.461553499e-23
9.170857622e-23
1.516806668e-22
2.468464639e-22
3.948989699e-22
6.204954341e-22
9.569998944e-22
1.44818917e-21
2.149600278e-21
3.12898191e-21
4.467994209e-21
6.258781566e-21
8.605159923e-21
1.161962722e-20
1.541990794e-20
2.012928578e-20
2.587407876e-20
3.277370306e-20
4.093214031e-20
5.04660054e-20
6.147573567e-20
7.404615449e-20
8.826835739e-20
1.041835586e-19
1.218250057e-19
1.411771522e-19
1.622288289e-19
1.849345852e-19
2.0927195e-19
2.351967338e-19
2.626382168e-19
2.915086424e-19
3.217046036e-19
3.531358246e-19
3.855792442e-19
4.189680968e-19
4.53080538e-19
4.87760428e-19
5.22794096e-19
5.580170224e-19
5.932154587e-19
6.282260889e-19
6.628141594e-19
6.968043742e-19
7.299804495e-19
7.620911998e-19
7.929076147e-19
8.222193887e-19
8.498503123e-19
8.756989076e-19
8.995921914e-19
9.214470367e-19
9.411584451e-19
9.58476514e-19
9.73166155e-19
9.852403444e-19
9.948003266e-19
1.001714258e-18
1.005907349e-18
1.007542355e-18
1.006446968e-18
1.00270237e-18
9.962695086e-19
9.870961121e-19
9.755239652e-19
9.614736338e-19
9.450077768e-19
9.271307609e-19
9.067721384e-19
8.850992565e-19
8.620482298e-19
8.383374634e-19
8.122824047e-19
7.827006736e-19
8.567775823e-19
8.857266646e-19
8.512443143e-19
7.517586019e-19
)


101
(
-1.089325473e-35
-1.137738391e-32
-1.16906159e-30
-8.419940902e-30
-2.540398282e-29
-3.102577429e-29
7.042545493e-29
5.28197847e-28
1.95409825e-27
5.663439625e-27
1.430163719e-26
3.293855453e-26
7.107159597e-26
1.456659173e-25
2.868347076e-25
5.47958478e-25
1.022464978e-24
1.870931019e-24
3.371146581e-24
5.994885726e-24
1.052891189e-23
1.828016671e-23
3.138427603e-23
5.326413645e-23
8.927248169e-23
1.47600503e-22
2.404891629e-22
3.857400171e-22
6.084721869e-22
9.431926282e-22
1.435924793e-21
2.146210225e-21
3.148415652e-21
4.532247031e-21
6.402597648e-21
8.878281027e-21
1.20903039e-20
1.61785769e-20
2.129029842e-20
2.757691683e-20
3.51852978e-20
4.424751564e-20
5.490106474e-20
6.72683004e-20
8.145750742e-20
9.758161599e-20
1.15709708e-19
1.358927905e-19
1.581242181e-19
1.823818028e-19
2.086011292e-19
2.367378353e-19
2.667378599e-19
2.985142435e-19
3.319644946e-19
3.669690276e-19
4.03391272e-19
4.409841768e-19
4.796315791e-19
5.19087861e-19
5.591379406e-19
5.995243103e-19
6.399963328e-19
6.803303537e-19
7.203287054e-19
7.596433385e-19
7.981421877e-19
8.355423464e-19
8.71580082e-19
9.059049506e-19
9.382881295e-19
9.685638736e-19
9.965096745e-19
1.021998758e-18
1.044955002e-18
1.065248912e-18
1.082708284e-18
1.09706217e-18
1.108254012e-18
1.116327842e-18
1.121283826e-18
1.123358592e-18
1.122434571e-18
1.118507265e-18
1.111844427e-18
1.102377682e-18
1.090109273e-18
1.075294358e-18
1.058327431e-18
1.038912863e-18
1.01813642e-18
9.95589148e-19
9.715612356e-19
9.467297573e-19
9.215347674e-19
8.928959024e-19
8.584979257e-19
8.676507685e-19
8.114543419e-19
6.990160457e-19
5.145721375e-19
)


101
(
-1.089324668e-35
-8.05048333e-33
-1.110723668e-30
-8.327024796e-30
-2.632494988e-29
-3.717713204e-29
4.908210182e-29
4.733691531e-28
1.836324276e-27
5.446110105e-27
1.395386036e-26
3.245798993e-26
7.05163383e-26
1.451759491e-25
2.864623024e-25
5.470710739e-25
1.018340391e-24
1.855600941e-24
3.324848866e-24
5.873939671e-24
1.02463109e-23
1.766931463e-23
3.01397779e-23
5.086914359e-23
8.490679777e-23
1.400331258e-22
2.279882951e-22
3.660456187e-22
5.788653256e-22
9.008041023e-22
1.378387911e-21
2.072960618e-21
3.062958672e-21
4.4433525e-21
6.32903771e-21
8.851068689e-21
1.215636406e-20
1.640487452e-20
2.176592905e-20
2.841483636e-20
3.652585031e-20
4.626096788e-20
5.777894681e-20
7.122327112e-20
8.672316466e-20
1.044087353e-19
1.243767831e-19
1.466999955e-19
1.713859594e-19
1.984080881e-19
2.276833821e-19
2.59131466e-19
2.926698431e-19
3.281915948e-19
3.655691888e-19
4.046567104e-19
4.452852226e-19
4.871788249e-19
5.301330811e-19
5.738746189e-19
6.181687629e-19
6.626468141e-19
7.06999366e-19
7.509679735e-19
7.942723515e-19
8.365386356e-19
8.775582934e-19
9.17020204e-19
9.54651207e-19
9.900147574e-19
1.022931734e-18
1.053063549e-18
1.080188733e-18
1.104241991e-18
1.125122143e-18
1.142665456e-18
1.156867747e-18
1.167577141e-18
1.174441351e-18
1.17759333e-18
1.177261598e-18
1.173827209e-18
1.166991672e-18
1.157019177e-18
1.144607252e-18
1.129335133e-18
1.111517562e-18
1.091320708e-18
1.069493158e-18
1.045590074e-18
1.020734412e-18
9.950218188e-19
9.68388919e-19
9.414178299e-19
9.148665842e-19
8.833251391e-19
8.4344002e-19
7.741738668e-19
6.324791371e-19
4.602980268e-19