/*--------------------------------*- C++ -*----------------------------------*\
| =========                 |                                                 |
| \\      /  F ield         | OpenFOAM: The Open Source CFD Toolbox           |
|  \\    /   O peration     | Version:  2.3.1                                 |
|   \\  /    A nd           | Web:      www.OpenFOAM.org                      |
|    \\/     M anipulation  |                                                 |
\*---------------------------------------------------------------------------*/
FoamFile
{
    version     2.0;
    format      ascii;
    class       dictionary;
    location    "constant";
    object      PM9;
}
// * * * * * * * * * * * * * * * * * * * * * * * * * * * * * * * * * * * * * //

PM9_table
101
(

101
(
1.622765134e-14
1.41799703e-15
-1.030637841e-15
-3.283943135e-15
-5.22038046e-15
-7.312489132e-15
-9.428343722e-15
-1.123035312e-14
-1.230013635e-14
-1.336589451e-14
-1.382398373e-14
-1.400096788e-14
-1.403145767e-14
-1.349304347e-14
-1.267414686e-14
-1.168918999e-14
-1.048406709e-14
-9.165522178e-15
-7.822129691e-15
-6.607702359e-15
-5.534502253e-15
-4.395210001e-15
-3.561230977e-15
-2.887914807e-15
-2.302777083e-15
-1.821426724e-15
-1.441553317e-15
-1.113622888e-15
-8.701477512e-16
-6.680435537e-16
-5.117978693e-16
-4.078241274e-16
-2.201611354e-16
-1.9919029e-16
-1.888215658e-16
2.70917182e-17
1.73633427e-17
-6.913954626e-16
-5.922149408e-16
-4.135099565e-16
-3.412905419e-16
-2.771400084e-16
-2.248445733e-16
-1.845955008e-16
-1.45398049e-16
-1.148861879e-16
-8.826626144e-17
-6.857453956e-17
-5.203894459e-17
-3.958829307e-17
-2.936167147e-17
-2.106100914e-17
-1.450895098e-17
-9.781788294e-18
-6.466299285e-18
-3.200387084e-18
-1.503708425e-18
2.392501691e-19
1.357789383e-18
2.237813971e-18
2.657863721e-18
2.824547618e-18
2.96317871e-18
3.048417432e-18
2.802619098e-18
2.566979881e-18
2.353282683e-18
2.116419849e-18
1.823160774e-18
1.561246699e-18
1.31566853e-18
1.101889576e-18
9.054102291e-19
8.427037173e-19
5.636541194e-19
2.267952265e-19
1.434486354e-19
1.423789373e-19
1.221296358e-19
1.003301969e-19
8.223649519e-20
6.189796976e-20
5.102818553e-20
3.069746517e-20
1.226413151e-20
7.633911674e-21
6.704096644e-21
4.935591936e-21
3.778329227e-21
1.845203921e-21
7.91916487e-22
6.114603541e-22
4.064386028e-22
2.144614047e-22
1.097753331e-22
4.849839273e-23
1.64967798e-24
2.389376169e-30
-1.155746801e-40
-1.405008027e-40
2.12442256e-41
)


101
(
1.592843671e-14
1.293370517e-15
-1.018251887e-15
-2.931897943e-15
-4.424457489e-15
-5.992390243e-15
-7.523251707e-15
-8.710558742e-15
-9.188034409e-15
-9.653519576e-15
-9.581976859e-15
-9.310800034e-15
-8.960362272e-15
-8.182662008e-15
-7.254476364e-15
-6.280677757e-15
-5.218094988e-15
-4.157069817e-15
-3.158386408e-15
-2.3102562e-15
-1.622123541e-15
-9.206419657e-16
-4.572469629e-16
-1.180856336e-16
1.452302801e-16
3.340741683e-16
4.561259875e-16
5.474392818e-16
5.89742804e-16
6.13979704e-16
6.163931827e-16
5.922241805e-16
6.203248366e-16
5.508633814e-16
4.769790577e-16
5.070871509e-16
4.271229463e-16
-1.051976159e-17
7.873245453e-18
1.969326033e-17
3.85788486e-17
5.555415103e-17
6.601339766e-17
7.204252206e-17
7.748958848e-17
7.9241469e-17
8.030404449e-17
7.810817844e-17
7.536925759e-17
7.107790047e-17
6.664799911e-17
6.191973947e-17
5.707894449e-17
5.21466913e-17
4.731568148e-17
4.297282948e-17
3.831103372e-17
3.429199577e-17
3.035572085e-17
2.68444662e-17
2.354793142e-17
2.055911995e-17
1.783890961e-17
1.541954323e-17
1.321601582e-17
1.12931513e-17
9.550234359e-18
8.01235558e-18
6.67120382e-18
5.508121726e-18
4.501249872e-18
3.638988455e-18
2.915763543e-18
2.333831655e-18
1.768616707e-18
1.309113565e-18
9.933357307e-19
7.534940362e-19
5.714836875e-19
4.28960831e-19
3.183312752e-19
2.305949736e-19
1.663290971e-19
1.131738577e-19
7.549074639e-20
5.039927144e-20
3.380588209e-20
2.256062495e-20
1.466949991e-20
9.045626678e-21
5.571925681e-21
3.316520458e-21
2.028703396e-21
1.168984857e-21
6.818777113e-22
3.476041797e-22
2.980478287e-23
6.014128978e-24
2.283932137e-23
5.106483878e-23
5.811108328e-23
)


101
(
1.563136895e-14
1.280976712e-15
-7.50006126e-16
-2.156120001e-15
-2.966196978e-15
-3.676379249e-15
-4.225325881e-15
-4.36811343e-15
-3.80028068e-15
-3.201474445e-15
-2.177807458e-15
-1.063781213e-15
-6.181644758e-18
1.25586182e-15
2.488822799e-15
3.575906515e-15
4.548521033e-15
5.345504898e-15
5.922268189e-15
6.274928586e-15
6.370004387e-15
6.393266512e-15
6.234699299e-15
5.934179542e-15
5.567090113e-15
5.165784457e-15
4.742666938e-15
4.326706219e-15
3.919690151e-15
3.535608596e-15
3.178639657e-15
2.842699438e-15
2.566613118e-15
2.287657845e-15
2.002040319e-15
1.786223707e-15
1.633425294e-15
1.259882455e-15
1.032313271e-15
9.096386038e-16
8.139983512e-16
7.325416038e-16
6.616766791e-16
5.949521199e-16
5.345012701e-16
4.808441763e-16
4.322932176e-16
3.878410404e-16
3.470481426e-16
3.09742306e-16
2.756731001e-16
2.450247843e-16
2.176167275e-16
1.929582434e-16
1.706020166e-16
1.505596005e-16
1.322673616e-16
1.159861191e-16
1.013975886e-16
8.836010422e-17
7.686325243e-17
6.66315895e-17
5.756454522e-17
4.962816986e-17
4.259987357e-17
3.631597433e-17
3.079247612e-17
2.596126236e-17
2.182164546e-17
1.821353358e-17
1.50785011e-17
1.238452471e-17
1.012037371e-17
8.192085281e-18
6.557041638e-18
5.181557148e-18
4.05083781e-18
3.140320412e-18
2.413356439e-18
1.838978093e-18
1.387810538e-18
1.028679365e-18
7.53160703e-19
5.409513714e-19
3.807327007e-19
2.63552401e-19
1.796256118e-19
1.220815876e-19
8.136763005e-20
5.242118885e-20
3.281471085e-20
2.060978432e-20
1.318761184e-20
7.989924812e-21
4.86788626e-21
2.555434311e-21
2.987399929e-22
3.665197118e-22
1.032280133e-21
1.623316798e-21
1.187094593e-21
)


101
(
1.533642761e-14
1.267172799e-15
-4.93331506e-16
-1.410806112e-15
-1.566808711e-15
-1.45989785e-15
-1.078600131e-15
-2.383517704e-16
1.309439806e-15
2.897135647e-15
4.810883794e-15
6.706163914e-15
8.421254368e-15
1.014171479e-14
1.16677448e-14
1.288116427e-14
1.380060347e-14
1.438872375e-14
1.461059272e-14
1.453277784e-14
1.411022199e-14
1.353407384e-14
1.280279086e-14
1.19220117e-14
1.097730785e-14
1.00258926e-14
9.088705198e-15
8.193339869e-15
7.354186077e-15
6.577475092e-15
5.868116446e-15
5.22516079e-15
4.657931959e-15
4.153657446e-15
3.65698501e-15
3.273882703e-15
2.943536725e-15
2.512627815e-15
2.15026722e-15
1.883330351e-15
1.669242693e-15
1.49039714e-15
1.336183581e-15
1.196718217e-15
1.071429149e-15
9.608848152e-16
8.615412631e-16
7.724906435e-16
6.915222043e-16
6.186826281e-16
5.523870994e-16
4.9287249e-16
4.396343415e-16
3.919864463e-16
3.491421484e-16
3.100778112e-16
2.750825811e-16
2.437190288e-16
2.155015303e-16
1.899059562e-16
1.672263581e-16
1.470315199e-16
1.289623505e-16
1.129662559e-16
9.861699087e-17
8.556192506e-17
7.39125064e-17
6.365156e-17
5.470832158e-17
4.680293585e-17
3.96607412e-17
3.343451235e-17
2.803481684e-17
2.335849452e-17
1.931004742e-17
1.58203587e-17
1.279994085e-17
1.028472067e-17
8.190979957e-18
6.470551354e-18
5.06129685e-18
3.894011294e-18
2.960647793e-18
2.221748858e-18
1.636641509e-18
1.180551817e-18
8.364298028e-19
5.88775602e-19
4.095226089e-19
2.774246237e-19
1.813894954e-19
1.177147409e-19
7.501304211e-20
4.733513149e-20
2.987376748e-20
1.596477427e-20
3.770352881e-21
6.299394339e-21
2.310929342e-20
4.74818799e-20
5.21766844e-20
)


101
(
1.504359417e-14
1.252045042e-15
-2.479478857e-16
-6.951722493e-16
-2.243547134e-16
6.611983815e-16
1.924878755e-15
3.69393419e-15
6.165294436e-15
8.679378241e-15
1.143569133e-14
1.406973705e-14
1.641176651e-14
1.858371038e-14
2.041117455e-14
2.178005536e-14
2.269681568e-14
2.314295023e-14
2.308892134e-14
2.265321068e-14
2.179147759e-14
2.069634955e-14
1.944960038e-14
1.804431858e-14
1.657221597e-14
1.510750849e-14
1.368292627e-14
1.23298608e-14
1.107085041e-14
9.908892733e-15
8.853516321e-15
7.895628434e-15
7.035690717e-15
6.292416887e-15
5.599003191e-15
5.033393003e-15
4.479915962e-15
3.948877553e-15
3.466362354e-15
3.058370676e-15
2.721438177e-15
2.435870761e-15
2.189739095e-15
1.970554001e-15
1.773297318e-15
1.597825509e-15
1.440270464e-15
1.299794485e-15
1.173213335e-15
1.058909602e-15
9.542804836e-16
8.593372809e-16
7.739676033e-16
6.974218003e-16
6.2814474e-16
5.645672788e-16
5.074485268e-16
4.555097373e-16
4.085306632e-16
3.653254199e-16
3.264622357e-16
2.917793929e-16
2.601914919e-16
2.319865541e-16
2.063420819e-16
1.826925519e-16
1.612664127e-16
1.419620563e-16
1.245789922e-16
1.091723326e-16
9.491010495e-17
8.219744973e-17
7.079244753e-17
6.069651016e-17
5.169966244e-17
4.371458711e-17
3.669994734e-17
3.060194341e-17
2.521507026e-17
2.065539978e-17
1.677373992e-17
1.351897243e-17
1.07362706e-17
8.449102386e-18
6.543245349e-18
4.983944127e-18
3.712575719e-18
2.747805896e-18
2.008527054e-18
1.443935638e-18
9.978812366e-19
6.799482416e-19
4.624181672e-19
3.038705617e-19
1.989515196e-19
1.115946872e-19
4.787198807e-20
8.498472815e-20
3.391563514e-19
5.384942669e-19
4.431267488e-19
)


101
(
1.475285125e-14
1.235669027e-15
-1.358178293e-17
-8.479290269e-18
1.062969955e-15
2.690785748e-15
4.792412676e-15
7.442227512e-15
1.078854041e-14
1.417714964e-14
1.774003937e-14
2.108669925e-14
2.403858495e-14
2.667109637e-14
2.882305132e-14
3.038707845e-14
3.136388204e-14
3.174238173e-14
3.149486738e-14
3.078111722e-14
2.956168462e-14
2.802767103e-14
2.632623261e-14
2.44510051e-14
2.249669641e-14
2.055478724e-14
1.866905225e-14
1.687545712e-14
1.52049163e-14
1.366224753e-14
1.225860344e-14
1.097863133e-14
9.820434664e-15
8.81802938e-15
7.899207992e-15
7.101262242e-15
6.372958737e-15
5.692832807e-15
5.072803815e-15
4.528890447e-15
4.061514163e-15
3.656668005e-15
3.305464805e-15
2.994216182e-15
2.713318964e-15
2.461835395e-15
2.236060358e-15
2.035737903e-15
1.855429669e-15
1.69116612e-15
1.540349561e-15
1.401789255e-15
1.276271412e-15
1.163167791e-15
1.060603712e-15
9.654555906e-16
8.786344224e-16
7.995991339e-16
7.268394036e-16
6.590095089e-16
5.980259445e-16
5.42994739e-16
4.921302877e-16
4.460746081e-16
4.037769292e-16
3.644061102e-16
3.279379573e-16
2.942719721e-16
2.6372911e-16
2.35920871e-16
2.099463761e-16
1.863061968e-16
1.646787571e-16
1.449924587e-16
1.269809552e-16
1.106507546e-16
9.603399958e-17
8.262529871e-17
7.046828659e-17
5.981897057e-17
5.047157592e-17
4.238003023e-17
3.511434078e-17
2.887801252e-17
2.353376441e-17
1.887221527e-17
1.488365702e-17
1.159829835e-17
9.008055994e-18
6.911289916e-18
5.120724986e-18
3.709157356e-18
2.711472999e-18
1.920350447e-18
1.347065769e-18
8.047402673e-19
4.56398083e-19
8.229604607e-19
3.817916642e-18
6.545609946e-18
6.085099532e-18
)


101
(
1.446418344e-14
1.218161921e-15
2.100360982e-16
6.499889534e-16
2.297417654e-15
4.634434806e-15
7.534739714e-15
1.102303612e-14
1.519846873e-14
1.941598825e-14
2.375795412e-14
2.779929107e-14
3.135487584e-14
3.446361048e-14
3.69723668e-14
3.877813138e-14
3.98801119e-14
4.026892129e-14
3.991501594e-14
3.900856505e-14
3.751603717e-14
3.562494809e-14
3.353282164e-14
3.124205328e-14
2.884937705e-14
2.646539104e-14
2.41460402e-14
2.193088943e-14
1.985862067e-14
1.793803658e-14
1.618156052e-14
1.457914921e-14
1.311491378e-14
1.183849294e-14
1.067825054e-14
9.646746626e-15
8.715286654e-15
7.859979206e-15
7.082928912e-15
6.390011951e-15
5.780836118e-15
5.241369278e-15
4.770047269e-15
4.351741949e-15
3.973276253e-15
3.63335962e-15
3.327470343e-15
3.055395322e-15
2.809858485e-15
2.585728344e-15
2.379343644e-15
2.187329749e-15
2.012782327e-15
1.855187515e-15
1.710959718e-15
1.575808945e-15
1.452158803e-15
1.338151352e-15
1.231831291e-15
1.132093504e-15
1.041348839e-15
9.581778181e-16
8.806219327e-16
8.099759823e-16
7.448205879e-16
6.836625779e-16
6.258499615e-16
5.719270518e-16
5.219169991e-16
4.757502612e-16
4.329054148e-16
3.925246438e-16
3.54829542e-16
3.195645917e-16
2.868069423e-16
2.565532341e-16
2.288559044e-16
2.027717866e-16
1.787070794e-16
1.566596457e-16
1.3671559e-16
1.186993062e-16
1.023388436e-16
8.747789065e-17
7.444087441e-17
6.255032171e-17
5.189502434e-17
4.250850393e-17
3.494267914e-17
2.827279447e-17
2.239296176e-17
1.73077894e-17
1.359259441e-17
1.042297078e-17
7.750988576e-18
5.194657713e-18
4.274361715e-18
7.655586207e-18
2.764459924e-17
4.469777174e-17
4.11607909e-17
)


101
(
1.417757697e-14
2.514986973e-15
1.559176503e-15
1.280926564e-15
3.481344543e-15
6.498626593e-15
1.01655391e-14
1.445759842e-14
1.941555759e-14
2.442196174e-14
2.95231198e-14
3.425053992e-14
3.841351445e-14
4.202057884e-14
4.49247749e-14
4.702373539e-14
4.831608709e-14
4.879361796e-14
4.842208617e-14
4.741154025e-14
4.573369278e-14
4.356900831e-14
4.114964372e-14
3.849883482e-14
3.571305096e-14
3.29229506e-14
3.019984091e-14
2.758658626e-14
2.51270472e-14
2.283471945e-14
2.072629391e-14
1.879696398e-14
1.702068561e-14
1.545847767e-14
1.40409521e-14
1.276626593e-14
1.161027265e-14
1.055458926e-14
9.598882731e-15
8.738105886e-15
7.971532229e-15
7.284799865e-15
6.677903998e-15
6.13530791e-15
5.643281678e-15
5.20048398e-15
4.800669717e-15
4.443991435e-15
4.122357113e-15
3.827932898e-15
3.553525715e-15
3.298095248e-15
3.065683976e-15
2.85263324e-15
2.657310011e-15
2.475402757e-15
2.306619135e-15
2.148956915e-15
2.00156687e-15
1.861957555e-15
1.733619548e-15
1.615119904e-15
1.502856016e-15
1.400196707e-15
1.305001541e-15
1.215839364e-15
1.131595701e-15
1.051318791e-15
9.750257244e-16
9.030068888e-16
8.356272309e-16
7.711318498e-16
7.114507248e-16
6.546750026e-16
6.001473941e-16
5.489597095e-16
5.01300981e-16
4.558538365e-16
4.126779027e-16
3.711870784e-16
3.332086731e-16
2.982412571e-16
2.660884624e-16
2.352207899e-16
2.075524503e-16
1.809231246e-16
1.569102648e-16
1.343849636e-16
1.154705743e-16
9.813792523e-17
8.174830382e-17
6.707630317e-17
5.595196661e-17
4.580369697e-17
3.615461837e-17
2.66409885e-17
2.646278706e-17
4.602915178e-17
1.388162154e-16
2.206718489e-16
2.068427317e-16
)


101
(
1.389301975e-14
2.485907678e-15
1.75230197e-15
1.885306539e-15
4.616702138e-15
8.287472602e-15
1.269346286e-14
1.776048666e-14
2.345609971e-14
2.921613048e-14
3.506176175e-14
4.047508961e-14
4.525576613e-14
4.9389332e-14
5.273113646e-14
5.517871835e-14
5.67288357e-14
5.737401924e-14
5.707449137e-14
5.605196881e-14
5.428074855e-14
5.19298528e-14
4.924969112e-14
4.630091072e-14
4.317537794e-14
4.00226899e-14
3.692924279e-14
3.39417395e-14
3.11089497e-14
2.844992137e-14
2.598817085e-14
2.372604232e-14
2.163075659e-14
1.977251652e-14
1.807927793e-14
1.654528251e-14
1.514915403e-14
1.387666405e-14
1.272437504e-14
1.167779893e-14
1.07370565e-14
9.884769297e-15
9.123114145e-15
8.438919386e-15
7.818151407e-15
7.258649269e-15
6.751882173e-15
6.300196219e-15
5.89045847e-15
5.511977639e-15
5.159188692e-15
4.833764171e-15
4.533258106e-15
4.256094766e-15
4.003063973e-15
3.763719299e-15
3.540955537e-15
3.331243378e-15
3.136147716e-15
2.950733694e-15
2.777609498e-15
2.616216322e-15
2.462239644e-15
2.321011834e-15
2.189654405e-15
2.066309856e-15
1.94921634e-15
1.834901198e-15
1.724440845e-15
1.620125239e-15
1.522392445e-15
1.429603063e-15
1.341597176e-15
1.255251693e-15
1.17147126e-15
1.092537902e-15
1.016822856e-15
9.443126884e-16
8.745986984e-16
8.055728283e-16
7.397632491e-16
6.799181818e-16
6.227489428e-16
5.677740064e-16
5.143065037e-16
4.630947465e-16
4.166362786e-16
3.700977889e-16
3.295531003e-16
2.909682513e-16
2.525014953e-16
2.184632008e-16
1.903618745e-16
1.636522799e-16
1.359433969e-16
1.049961388e-16
1.177070639e-16
1.962189345e-16
5.028294611e-16
8.151142863e-16
8.097144294e-16
)


101
(
1.3610501e-14
1.159701824e-15
8.191715802e-16
3.299753311e-15
5.706312879e-15
1.000481224e-14
1.512300568e-14
2.093768795e-14
2.733518711e-14
3.382078351e-14
4.039786049e-14
4.649822862e-14
5.190953396e-14
5.66002798e-14
6.042470796e-14
6.327901797e-14
6.515584985e-14
6.604900668e-14
6.591223337e-14
6.497273924e-14
6.320449372e-14
6.076299696e-14
5.79055795e-14
5.472886241e-14
5.132765916e-14
4.786532565e-14
4.443779706e-14
4.109794729e-14
3.790289099e-14
3.488024121e-14
3.206120312e-14
2.945584121e-14
2.702849963e-14
2.486330159e-14
2.287911315e-14
2.107473806e-14
1.94313984e-14
1.7933471e-14
1.656667938e-14
1.531322483e-14
1.417744888e-14
1.313949994e-14
1.220925861e-14
1.137069525e-14
1.060959964e-14
9.922440276e-15
9.296667688e-15
8.735266753e-15
8.220737369e-15
7.747285517e-15
7.31032732e-15
6.907688133e-15
6.532289153e-15
6.18530958e-15
5.8607975e-15
5.556754316e-15
5.27473375e-15
5.007640808e-15
4.761284959e-15
4.52477749e-15
4.301332188e-15
4.09107235e-15
3.891129162e-15
3.705025301e-15
3.529711804e-15
3.364371577e-15
3.209854633e-15
3.057947397e-15
2.912337083e-15
2.772858514e-15
2.639451811e-15
2.510613344e-15
2.388189227e-15
2.269904972e-15
2.153402548e-15
2.03871152e-15
1.927425062e-15
1.82348717e-15
1.720209224e-15
1.614429754e-15
1.512849651e-15
1.420406582e-15
1.329567209e-15
1.24106825e-15
1.149045731e-15
1.062317152e-15
9.810454945e-16
8.971355018e-16
8.205301526e-16
7.477085126e-16
6.710128096e-16
6.027012726e-16
5.432144559e-16
4.839692522e-16
4.182320867e-16
3.372978971e-16
4.025047679e-16
6.363076507e-16
1.386572863e-15
2.273782766e-15
2.433075426e-15
)


101
(
1.333001485e-14
1.138550038e-15
1.002703685e-15
3.846216911e-15
6.752574958e-15
1.165422494e-14
1.745829728e-14
2.399427896e-14
3.106714088e-14
3.825875265e-14
4.555381604e-14
5.234250148e-14
5.839803493e-14
6.367779471e-14
6.803188964e-14
7.135290844e-14
7.362520056e-14
7.484621535e-14
7.496446048e-14
7.420680099e-14
7.254308312e-14
7.011659445e-14
6.718491512e-14
6.385599665e-14
6.025358703e-14
5.654105264e-14
5.281679714e-14
4.914656283e-14
4.560256512e-14
4.222280397e-14
3.904517034e-14
3.60873952e-14
3.331497653e-14
3.083525541e-14
2.855120796e-14
2.646785364e-14
2.456834233e-14
2.283102018e-14
2.122978489e-14
1.975167196e-14
1.840658643e-14
1.717129983e-14
1.606063012e-14
1.505825505e-14
1.414878618e-14
1.33240309e-14
1.25648239e-14
1.187621173e-14
1.12447891e-14
1.066874325e-14
1.013956476e-14
9.651576489e-15
9.195955124e-15
8.767561624e-15
8.365016068e-15
8.001022404e-15
7.653956142e-15
7.327036188e-15
7.023105447e-15
6.73343569e-15
6.457248819e-15
6.196535741e-15
5.948132405e-15
5.711028225e-15
5.487992983e-15
5.281716811e-15
5.087709731e-15
4.90000719e-15
4.718639718e-15
4.54067279e-15
4.369654283e-15
4.204684533e-15
4.048902821e-15
3.896465444e-15
3.743288373e-15
3.588774894e-15
3.441862632e-15
3.304056119e-15
3.160904771e-15
3.014639129e-15
2.873665496e-15
2.739884484e-15
2.610381379e-15
2.481343683e-15
2.338574097e-15
2.20208095e-15
2.074699757e-15
1.943233449e-15
1.818915999e-15
1.691788169e-15
1.556603772e-15
1.43907104e-15
1.329351706e-15
1.216678099e-15
1.083100031e-15
8.998532194e-16
1.116319395e-15
1.684803681e-15
3.124158095e-15
4.509290593e-15
4.522571656e-15
)


101
(
1.305155726e-14
1.116708925e-15
1.177029449e-15
3.551251369e-15
7.756603471e-15
1.32376038e-14
1.970226177e-14
2.693562134e-14
3.466349011e-14
4.254565446e-14
5.054518462e-14
5.802689555e-14
6.474236083e-14
7.064443365e-14
7.557723743e-14
7.942620062e-14
8.216452102e-14
8.379333477e-14
8.426152778e-14
8.378952082e-14
8.233116129e-14
8.002481442e-14
7.712050599e-14
7.371824101e-14
6.9983528e-14
6.607658725e-14
6.210253176e-14
5.814057391e-14
5.427850865e-14
5.056167183e-14
4.703593803e-14
4.373067892e-14
4.061566179e-14
3.781840013e-14
3.52264425e-14
3.285357309e-14
3.068344594e-14
2.868796911e-14
2.683563031e-14
2.512466211e-14
2.356172416e-14
2.211951309e-14
2.081627576e-14
1.964030591e-14
1.857104433e-14
1.759575036e-14
1.669220639e-14
1.586863172e-14
1.511430666e-14
1.442889678e-14
1.379923796e-14
1.322036469e-14
1.268033074e-14
1.21670203e-14
1.169556473e-14
1.12639235e-14
1.084727576e-14
1.045509803e-14
1.009443236e-14
9.755085428e-15
9.428358444e-15
9.118442287e-15
8.822049561e-15
8.538969124e-15
8.270613947e-15
8.024549661e-15
7.793838282e-15
7.576266303e-15
7.363530196e-15
7.151261901e-15
6.947627565e-15
6.751467043e-15
6.561210542e-15
6.374965586e-15
6.188156805e-15
6.001692002e-15
5.823910163e-15
5.647342269e-15
5.467182643e-15
5.283884182e-15
5.098767926e-15
4.919338106e-15
4.749341438e-15
4.571009683e-15
4.370962569e-15
4.177060486e-15
3.993958046e-15
3.806797113e-15
3.614507192e-15
3.411386607e-15
3.206271155e-15
3.022192722e-15
2.841258624e-15
2.652229861e-15
2.415008461e-15
2.06495753e-15
2.54884545e-15
3.662411512e-15
6.104040489e-15
8.513228487e-15
8.640278522e-15
)


101
(
1.277511565e-14
2.362221266e-15
1.342520055e-15
4.060006602e-15
8.719473374e-15
1.475650429e-14
2.185584853e-14
2.976451511e-14
3.813848361e-14
4.669900894e-14
5.538342106e-14
6.356658576e-14
7.09595348e-14
7.751518595e-14
8.307566529e-14
8.751556767e-14
9.079900905e-14
9.292412099e-14
9.384049932e-14
9.375717535e-14
9.259343966e-14
9.049838835e-14
8.770847078e-14
8.431751414e-14
8.052356418e-14
7.648786886e-14
7.232957076e-14
6.813473778e-14
6.400398083e-14
5.998473121e-14
5.613389637e-14
5.249993352e-14
4.905870254e-14
4.594703768e-14
4.303967439e-14
4.036341525e-14
3.790455899e-14
3.563303344e-14
3.352154358e-14
3.157667248e-14
2.979056332e-14
2.813259812e-14
2.662558218e-14
2.526278058e-14
2.40196782e-14
2.288401755e-14
2.183197027e-14
2.087032197e-14
1.999054436e-14
1.919465702e-14
1.845880305e-14
1.77857002e-14
1.716448235e-14
1.657348441e-14
1.603123024e-14
1.552338442e-14
1.504655638e-14
1.459125535e-14
1.418379801e-14
1.379917207e-14
1.343265151e-14
1.308055326e-14
1.274248966e-14
1.241865174e-14
1.211984351e-14
1.18430515e-14
1.158001223e-14
1.134093877e-14
1.110260586e-14
1.086934609e-14
1.064619644e-14
1.042691887e-14
1.020684694e-14
9.994336961e-15
9.781682433e-15
9.569440467e-15
9.360778146e-15
9.159337446e-15
8.946373184e-15
8.722168062e-15
8.491146226e-15
8.270714038e-15
8.049883129e-15
7.820592438e-15
7.566167444e-15
7.299503844e-15
7.042577225e-15
6.790181325e-15
6.515328301e-15
6.224495524e-15
5.933163474e-15
5.665123423e-15
5.383014874e-15
5.099962444e-15
4.715131483e-15
4.121186568e-15
5.063384571e-15
6.969794562e-15
1.049383175e-14
1.371384174e-14
1.369966075e-14
)


101
(
1.250068401e-14
2.329891152e-15
1.499429956e-15
4.546389022e-15
9.642027013e-15
1.621253115e-14
2.392068826e-14
3.248398366e-14
4.150366001e-14
5.07349521e-14
6.007899941e-14
6.897484522e-14
7.706410835e-14
8.430218806e-14
9.053908765e-14
9.563493294e-14
9.954987891e-14
1.022693017e-13
1.037337606e-13
1.041435981e-13
1.033556e-13
1.01553037e-13
9.896015277e-14
9.567773231e-14
9.191977468e-14
8.783939603e-14
8.357089364e-14
7.920505047e-14
7.485499973e-14
7.057273657e-14
6.643107168e-14
6.249676943e-14
5.874809845e-14
5.53292932e-14
5.210235263e-14
4.911302134e-14
4.635482242e-14
4.380082151e-14
4.143252662e-14
3.925360888e-14
3.724396039e-14
3.536762901e-14
3.365228284e-14
3.209172957e-14
3.066266766e-14
2.936016285e-14
2.815652941e-14
2.70548254e-14
2.605232419e-14
2.514103624e-14
2.429296685e-14
2.353179063e-14
2.284076782e-14
2.217821159e-14
2.156745364e-14
2.100435943e-14
2.047952419e-14
1.997664634e-14
1.952522609e-14
1.91076099e-14
1.871547451e-14
1.833302731e-14
1.796425401e-14
1.762206861e-14
1.730957286e-14
1.700320402e-14
1.672691821e-14
1.646348278e-14
1.62206648e-14
1.599486104e-14
1.576440165e-14
1.553183396e-14
1.529220605e-14
1.50611221e-14
1.482653281e-14
1.459033747e-14
1.437197674e-14
1.414263308e-14
1.389410508e-14
1.363427346e-14
1.335289531e-14
1.307886955e-14
1.279594873e-14
1.25121488e-14
1.218887313e-14
1.182987206e-14
1.148459609e-14
1.114409991e-14
1.077739599e-14
1.038251966e-14
9.970996893e-15
9.599356501e-15
9.181805532e-15
8.783712245e-15
8.196950862e-15
7.281752423e-15
8.844076477e-15
1.177498333e-14
1.628477087e-14
2.034773182e-14
2.024976584e-14
)


101
(
1.222826629e-14
1.048105976e-15
2.719635118e-15
5.010883585e-15
1.052479059e-14
1.760669675e-14
2.589983377e-14
3.509817822e-14
4.476541312e-14
5.466399072e-14
6.464933401e-14
7.426178715e-14
8.306968974e-14
9.102301475e-14
9.798758639e-14
1.038053499e-13
1.084316516e-13
1.118372005e-13
1.139446747e-13
1.149326941e-13
1.146073237e-13
1.131940538e-13
1.10906634e-13
1.078413741e-13
1.042261694e-13
1.002020178e-13
9.59046707e-14
9.142772129e-14
8.690483177e-14
8.24044343e-14
7.801997453e-14
7.382439598e-14
6.978709204e-14
6.607417027e-14
6.253226657e-14
5.923107805e-14
5.617311657e-14
5.333778693e-14
5.071716666e-14
4.830642162e-14
4.608212679e-14
4.399142579e-14
4.206509367e-14
4.030116577e-14
3.868373463e-14
3.721343085e-14
3.585550626e-14
3.461769281e-14
3.349252754e-14
3.246081717e-14
3.151158836e-14
3.067766146e-14
2.992378624e-14
2.920589915e-14
2.855022469e-14
2.795219854e-14
2.739421981e-14
2.685932101e-14
2.637213445e-14
2.594373233e-14
2.553732341e-14
2.514205072e-14
2.476504528e-14
2.443748334e-14
2.412247317e-14
2.380883933e-14
2.352607111e-14
2.326737436e-14
2.304161108e-14
2.281955557e-14
2.25957884e-14
2.236550425e-14
2.212153365e-14
2.187963476e-14
2.162137138e-14
2.136148636e-14
2.111980923e-14
2.084863988e-14
2.057909055e-14
2.025682584e-14
1.99048837e-14
1.956205172e-14
1.919607303e-14
1.881973621e-14
1.840732044e-14
1.794217943e-14
1.746261425e-14
1.698981084e-14
1.650675545e-14
1.596116191e-14
1.538956416e-14
1.48596168e-14
1.427014182e-14
1.373200002e-14
1.289048029e-14
1.150424653e-14
1.378159075e-14
1.790205652e-14
2.319276682e-14
2.832577143e-14
2.87678019e-14
)


101
(
1.195786363e-14
1.02453994e-15
2.851580716e-15
5.453873702e-15
1.136841893e-14
1.894009807e-14
2.779613272e-14
3.761071722e-14
4.7929475e-14
5.849574681e-14
6.911362461e-14
7.943399868e-14
8.898684471e-14
9.769601795e-14
1.054429467e-13
1.120493119e-13
1.174547751e-13
1.216202014e-13
1.244501998e-13
1.260708748e-13
1.263155809e-13
1.254155683e-13
1.235756185e-13
1.208473769e-13
1.174896002e-13
1.136357664e-13
1.093976585e-13
1.048762373e-13
1.002398736e-13
9.557989841e-14
9.100457426e-14
8.65853486e-14
8.228676273e-14
7.830129211e-14
7.445995066e-14
7.086174652e-14
6.751470478e-14
6.440398772e-14
6.153422295e-14
5.890156314e-14
5.646788769e-14
5.416566557e-14
5.203738084e-14
5.007730008e-14
4.827136048e-14
4.663140707e-14
4.512895335e-14
4.377046276e-14
4.252337006e-14
4.138522682e-14
4.035667242e-14
3.946140803e-14
3.865502863e-14
3.791060072e-14
3.723011524e-14
3.660676078e-14
3.604513617e-14
3.550265187e-14
3.500181105e-14
3.455454279e-14
3.417354208e-14
3.379974916e-14
3.345636521e-14
3.316988376e-14
3.285639694e-14
3.256709878e-14
3.229710936e-14
3.207091666e-14
3.185507886e-14
3.162569097e-14
3.143074311e-14
3.120652927e-14
3.097181306e-14
3.072305722e-14
3.041622326e-14
3.010782728e-14
2.979491726e-14
2.949314231e-14
2.91631959e-14
2.873987271e-14
2.829580611e-14
2.783138193e-14
2.732194628e-14
2.682444676e-14
2.625221935e-14
2.561620886e-14
2.494644148e-14
2.42747727e-14
2.359491219e-14
2.283317749e-14
2.204879799e-14
2.128789961e-14
2.048621432e-14
1.974221566e-14
1.855438567e-14
1.652228214e-14
1.965737019e-14
2.508384169e-14
3.084309828e-14
3.526086355e-14
3.45594541e-14
)


101
(
1.168947939e-14
2.230919699e-15
1.923791436e-15
5.875647207e-15
1.217364287e-14
2.021456224e-14
2.961240808e-14
4.002498274e-14
5.099626831e-14
6.223470739e-14
7.348589598e-14
8.450091737e-14
9.482527206e-14
1.043345918e-13
1.129185272e-13
1.203796677e-13
1.266273748e-13
1.316193121e-13
1.352473353e-13
1.375488072e-13
1.384860873e-13
1.382344193e-13
1.369853875e-13
1.347187701e-13
1.317330457e-13
1.281628552e-13
1.240836183e-13
1.196084534e-13
1.149466592e-13
1.102038233e-13
1.054865754e-13
1.008756594e-13
9.635443229e-14
9.212780754e-14
8.80182427e-14
8.415501677e-14
8.054265851e-14
7.716797671e-14
7.405035846e-14
7.119352428e-14
6.85526582e-14
6.605981781e-14
6.374487306e-14
6.159446422e-14
5.960541227e-14
5.780925057e-14
5.618329766e-14
5.471407996e-14
5.336293702e-14
5.215186023e-14
5.106736535e-14
5.012409626e-14
4.92905147e-14
4.854427328e-14
4.785795191e-14
4.72402778e-14
4.671663995e-14
4.618728814e-14
4.569618207e-14
4.526641756e-14
4.492044562e-14
4.461358678e-14
4.434562148e-14
4.409947281e-14
4.382827312e-14
4.359861966e-14
4.332992736e-14
4.31086532e-14
4.291030416e-14
4.271201611e-14
4.253133228e-14
4.230613367e-14
4.206600257e-14
4.178403701e-14
4.140521203e-14
4.098504473e-14
4.058230247e-14
4.018203598e-14
3.972009145e-14
3.917908046e-14
3.857753348e-14
3.78712584e-14
3.714591996e-14
3.644192549e-14
3.562185286e-14
3.472382965e-14
3.375846726e-14
3.278686291e-14
3.179155351e-14
3.074355215e-14
2.966606805e-14
2.856480133e-14
2.746709702e-14
2.64292492e-14
2.47860561e-14
2.197118752e-14
2.606971025e-14
3.29000648e-14
3.912949695e-14
4.391447024e-14
4.27748958e-14
)


101
(
1.142311673e-14
2.19752458e-15
2.051468392e-15
6.276488705e-15
1.347013765e-14
2.143182609e-14
3.13513591e-14
4.234432291e-14
5.395833424e-14
6.587119407e-14
7.777783974e-14
8.947755531e-14
1.005988818e-13
1.109456883e-13
1.204088691e-13
1.287775265e-13
1.35927921e-13
1.418189184e-13
1.463293707e-13
1.494199453e-13
1.511792473e-13
1.517072229e-13
1.511539417e-13
1.494709495e-13
1.469694487e-13
1.437982552e-13
1.399963348e-13
1.356813001e-13
1.311018656e-13
1.263617705e-13
1.21556624e-13
1.167943733e-13
1.12098798e-13
1.076722837e-13
1.033355558e-13
9.924781631e-14
9.540099162e-14
9.177659946e-14
8.833616792e-14
8.526678215e-14
8.250848523e-14
7.984055879e-14
7.735395289e-14
7.503660954e-14
7.288784745e-14
7.095482491e-14
6.921696767e-14
6.76548314e-14
6.624733854e-14
6.500124984e-14
6.388968638e-14
6.292388518e-14
6.208959918e-14
6.13665689e-14
6.070945937e-14
6.015022079e-14
5.96989739e-14
5.922196751e-14
5.879070673e-14
5.843791018e-14
5.81153159e-14
5.788738567e-14
5.773777493e-14
5.754366667e-14
5.735009043e-14
5.715614916e-14
5.689984686e-14
5.669550803e-14
5.651817202e-14
5.63473901e-14
5.610417456e-14
5.584988762e-14
5.556959604e-14
5.521057004e-14
5.472921732e-14
5.417885245e-14
5.356890627e-14
5.292349217e-14
5.228414887e-14
5.155767436e-14
5.067804812e-14
4.9624726e-14
4.858101104e-14
4.753347059e-14
4.634226495e-14
4.505270194e-14
4.367739611e-14
4.227168385e-14
4.082587372e-14
3.940432988e-14
3.789246959e-14
3.6319092e-14
3.482327754e-14
3.337120987e-14
3.114366994e-14
2.738828165e-14
3.273629935e-14
4.128401439e-14
4.832763767e-14
5.374220408e-14
5.224524722e-14
)


101
(
1.1158782e-14