/*--------------------------------*- C++ -*----------------------------------*\
| =========                 |                                                 |
| \\      /  F ield         | OpenFOAM: The Open Source CFD Toolbox           |
|  \\    /   O peration     | Version:  2.3.1                                 |
|   \\  /    A nd           | Web:      www.OpenFOAM.org                      |
|    \\/     M anipulation  |                                                 |
\*---------------------------------------------------------------------------*/
FoamFile
{
    version     2.0;
    format      ascii;
    class       dictionary;
    location    "constant";
    object      PV;
}
// * * * * * * * * * * * * * * * * * * * * * * * * * * * * * * * * * * * * * //

PV_table
101
(

101
(
3.416783715
3.34508666
3.267093129
3.187083195
3.107487176
3.029615324
2.954021402
2.881154003
2.811005082
2.743545789
2.678659608
2.616231496
2.55606606
2.498133303
2.442230012
2.388217003
2.33600654
2.285536676
2.23653451
2.189155736
2.143102217
2.098292349
2.054785356
2.012424756
1.971115624
1.930798061
1.891410605
1.852888493
1.815200592
1.778283616
1.742096661
1.706581182
1.671637362
1.637435662
1.603776029
1.570658222
1.538045818
1.505887867
1.474195122
1.442984428
1.41221243
1.381790405
1.351765547
1.322100848
1.292750424
1.263738089
1.235021231
1.206613686
1.178481942
1.150631537
1.123031852
1.095680217
1.068564666
1.041672528
1.014990686
0.9885103498
0.9622477722
0.93615271
0.9102512547
0.884514673
0.8589481426
0.8335367134
0.8082732213
0.7831546198
0.7581719748
0.7333211441
0.7085928535
0.683981826
0.659487058
0.6350968732
0.6108091451
0.5866183686
0.5625237771
0.5385124556
0.514579133
0.4907165008
0.466930834
0.4432132885
0.4195562987
0.3959552026
0.3724064107
0.3489115354
0.3254602799
0.3020523348
0.2786810336
0.2553429404
0.2320354075
0.2087551677
0.1854994674
0.1622659809
0.1390494327
0.1158479579
0.0926600808
0.06948233738
0.04631275492
0.02314897428
3.441071348e-22
0
2.40741243e-35
-9.798810246e-20
0
)


101
(
3.416806028
3.345825971
3.268612445
3.189402724
3.1106028
3.033509878
2.958670498
2.886532094
2.817085022
2.75030067
2.686063698
2.624260309
2.564697012
2.507344084
2.452000334
2.398528045
2.346840288
2.296875657
2.248364032
2.20145955
2.155867171
2.111505952
2.068434545
2.026498032
1.985602427
1.945688415
1.906695126
1.868558422
1.83124746
1.794699548
1.758874168
1.723713344
1.689118249
1.65525748
1.621933039
1.589144622
1.556856121
1.525017088
1.493638114
1.462735821
1.432267154
1.402144439
1.372414234
1.343039911
1.313976079
1.285246199
1.25680816
1.228675613
1.200815376
1.17323285
1.145897788
1.118807543
1.091950249
1.065313346
1.038883857
1.012653087
0.9866369869
0.960785988
0.9351257286
0.9096278495
0.8842973776
0.8591195027
0.8340870862
0.8091969411
0.7844404641
0.7598131909
0.7353059899
0.7109134898
0.6866345701
0.6624574879
0.6383803616
0.6143972164
0.5905069956
0.5666970536
0.5429620204
0.51929447
0.4956995697
0.4721693339
0.4486951473
0.4252724892
0.4018971847
0.3785702852
0.3552815337
0.3320298512
0.3088079536
0.2856131281
0.2624406308
0.2392880083
0.2161506629
0.1930289858
0.1699124778
0.1468054467
0.1237029801
0.100602235
0.07750250068
0.05440159096
0.03130758323
0.0311238057
0.03093909328
0.03074659026
0.03055408724
)


101
(
3.416828342
3.346565281
3.27013176
3.191722254
3.113718425
3.037404433
2.963319593
2.891910185
2.823164962
2.757055551
2.693467788
2.632289121
2.573327965
2.516554865
2.461770657
2.408839088
2.357674036
2.308214638
2.260193554
2.213763364
2.168632126
2.124719555
2.082083734
2.040571308
2.000089229
1.96057877
1.921979647
1.884228352
1.847294327
1.811115479
1.775651675
1.740845505
1.706599136
1.673079297
1.640090048
1.607631021
1.575666424
1.544146308
1.513081105
1.482487214
1.452321878
1.422498474
1.39306292
1.363978975
1.335201734
1.30675431
1.278595089
1.250737539
1.22314881
1.195834162
1.168763724
1.141934869
1.115335832
1.088954165
1.062777028
1.036795823
1.011026202
0.9854192659
0.9600002026
0.9347410259
0.9096466126
0.8847022919
0.8599009511
0.8352392623
0.8107089534
0.7863052377
0.7620191264
0.7378451535
0.7137820822
0.6898181026
0.665951578
0.6421760642
0.6184902141
0.5948816516
0.5713449078
0.5478724392
0.5244683055
0.5011253794
0.477833996
0.4545897758
0.4313879586
0.408229035
0.3851027876
0.3620073676
0.3389348735
0.3158833157
0.2928458541
0.2698208488
0.2468018584
0.2237919907
0.2007755229
0.1777629355
0.1547458795
0.1317221327
0.1086922464
0.08565354215
0.06261521231
0.06224765781
0.06187823544
0.06149322676
0.06110821808
)


101
(
3.416850656
3.347304592
3.271651076
3.194041783
3.11683405
3.041298987
2.967968689
2.897288276
2.829244902
2.763810432
2.700871878
2.640317934
2.581958918
2.525765646
2.471540979
2.419150131
2.368507784
2.319553619
2.272023077
2.226067178
2.18139708
2.137933158
2.095732922
2.054644585
2.014576032
1.975469124
1.937264167
1.899898281
1.863341194
1.827531411
1.792429183
1.757977667
1.724080024
1.690901115
1.658247058
1.62611742
1.594476727
1.563275528
1.532524096
1.502238607
1.472376602
1.442852508
1.413711607
1.384918038
1.356427389
1.32826242
1.300382018
1.272799466
1.245482244
1.218435475
1.191629659
1.165062195
1.138721415
1.112594984
1.0866702
1.06093856
1.035415416
1.010052544
0.9848746766
0.9598542023
0.9349958476
0.9102850812
0.885714816
0.8612815836
0.8369774426
0.8127972844
0.7887322628
0.7647768173
0.7409295944
0.7171787173
0.6935227944
0.669954912
0.6464734326
0.6230662496
0.5997277952
0.5764504084
0.5532370412
0.5300814249
0.5069728447
0.4839070624
0.4608787325
0.4378877849
0.4149240414
0.391984884
0.3690617934
0.3461535034
0.3232510774
0.3003536894
0.2774530539
0.2545549956
0.231638568
0.2087204243
0.1857887788
0.1628420303
0.1398819922
0.1169050632
0.09392285254
0.09337152921
0.09281740392
0.09223987583
0.09166234773
)


101
(
3.41687297
3.348043902
3.273170391
3.196361312
3.119949674
3.045193541
2.972617785
2.902666366
2.835324843
2.770565314
2.708275968
2.648346747
2.590589871
2.534976427
2.481311301
2.429461174
2.379341532
2.3308926
2.283852599
2.238370992
2.194162034
2.15114676
2.109382111
2.068717861
2.029062835
1.990359478
1.952548688
1.915568211
1.879388061
1.843947342
1.80920669
1.775109829
1.741560911
1.708722933
1.676404067
1.64460382
1.613287029
1.582404749
1.551967088
1.52199
1.492431326
1.463206542
1.434360294
1.405857101
1.377653043
1.349770531
1.322168946
1.294861392
1.267815678
1.241036788
1.214495595
1.188189521
1.162106998
1.136235802
1.110563371
1.085081297
1.059804631
1.034685822
1.009749151
0.9849673787
0.9603450826
0.9358678704
0.911528681
0.8873239049
0.8632459319
0.8392893312
0.8154453993
0.791708481
0.7680771065
0.744539332
0.7210940108
0.6977337598
0.6744566511
0.6512508476
0.6281106826
0.6050283776
0.582005777
0.5590374704
0.5361116934
0.513224349
0.4903695064
0.4675465347
0.4447452952
0.4219624004
0.3991887134
0.376423691
0.3536563007
0.3308865299
0.3081042493
0.2853180005
0.2625016131
0.2396779131
0.2168316781
0.193961928
0.171071738
0.1481563929
0.1252304948
0.1244953809
0.1237565332
0.1229865017
0.1222164703
)


101
(
3.416895284
3.348783213
3.274689707
3.198680842
3.123065299
3.049088096
2.977266881
2.908044458
2.841404784
2.777320196
2.71568006
2.656375561
2.599220825
2.54418721
2.491081625
2.439772218
2.390175281
2.342231583
2.295682123
2.250674808
2.206926991
2.164360366
2.123031302
2.08279114
2.04354964
2.005249836
1.967833211
1.931238143
1.895434931
1.860363277
1.8259842
1.792241994
1.759041802
1.726544754
1.69456108
1.663090223
1.632097336
1.601533973
1.571410083
1.541741397
1.512486054
1.48356058
1.455008984
1.426796168
1.398878702
1.371278645
1.343955879
1.316923322
1.290149116
1.263638105
1.237361535
1.211316851
1.185492586
1.159876626
1.134456547
1.109224038
1.08419385
1.059319104
1.034623629
1.01008056
0.9856943224
0.9614506644
0.9373425507
0.913366231
0.8895144261
0.8657813829
0.8421585407
0.8186401498
0.7952246237
0.7718999518
0.7486652324
0.7255126128
0.7024398748
0.6794354509
0.6564935752
0.6336063521
0.6107745181
0.5879935212
0.5652505475
0.5425416411
0.5198602859
0.4972052901
0.4745665546
0.4519399223
0.4293156389
0.4066938843
0.3840615296
0.3614193761
0.3387554505
0.3160810112
0.2933646639
0.2706354077
0.2478745833
0.2250818314
0.2022614896
0.1794077356
0.1565381565
0.1556192124
0.1546956062
0.1537330932
0.1527705801
)


101
(
3.416917598
3.349522523
3.276209022
3.201000371
3.126180923
3.05298265
2.981915976
2.913422548
2.847484723
2.784075076
2.723084148
2.664404373
2.607851776
2.553397989
2.500851945
2.450083259
2.401009027
2.353570562
2.307511643
2.26297862
2.219691943
2.177573966
2.136680488
2.096864414
2.05803644
2.020140187
1.983117729
1.94690807
1.911481795
1.876779205
1.842761705
1.809374152
1.776522686
1.744366568
1.712718086
1.681576618
1.650907635
1.62066319
1.59085307
1.561492786
1.532540774
1.503914611
1.475657667
1.447735228
1.420104353
1.392786752
1.365742804
1.338985245
1.312482546
1.286239414
1.260227466
1.234444172
1.208878164
1.18351744
1.158349713
1.133366771
1.10858306
1.083952378
1.059498099
1.035193732
1.011043553
0.9870334489
0.9631564108
0.9394085475
0.9157829105
0.8922734248
0.8688716722
0.8455718085
0.8223721308
0.7992605614
0.7762364437
0.7532914554
0.7304230881
0.7076200436
0.6848764574
0.662184316
0.6395432485
0.6169495613
0.5943893908
0.5718589222
0.5493510543
0.5268640344
0.5043878029
0.4819174332
0.4594425532
0.4369640663
0.4144667472
0.391952211
0.3694066403
0.3468440103
0.3242277032
0.3015928907
0.2789174768
0.2562017232
0.2334512295
0.2106589732
0.1878458042
0.1867430822
0.1856347644
0.1844797282
0.1833246921
)


101
(
3.416939912
3.350261833
3.277728337
3.203319901
3.129296548
3.056877205
2.986565073
2.91880064
2.853564664
2.790829959
2.73048824
2.672433187
2.61648273
2.562608772
2.510622269
2.460394304
2.411842777
2.364909545
2.319341167
2.275282436
2.232456899
2.190787571
2.150329679
2.110937693
2.072523246
2.035030545
1.998402252
1.962578002
1.927528665
1.89319514
1.859539215
1.826506317
1.794003577
1.762188389
1.730875099
1.700063021
1.669717941
1.639792414
1.610296065
1.581244183
1.552595502
1.524268649
1.496306358
1.468674295
1.441330012
1.414294867
1.387529737
1.361047175
1.334815984
1.308840731
1.283093406
1.257571503
1.232263752
1.207158263
1.182242889
1.157509512
1.132972279
1.10858566
1.084372577
1.060306913
1.036392792
1.012616243
0.9889702805
0.9654508736
0.9420514047
0.9187654765
0.8955848136
0.8725034772
0.8495196479
0.8266211812
0.8038076653
0.7810703084
0.7584063118
0.7358046469
0.71325935
0.6907622905
0.6683119896
0.6459056122
0.6235282449
0.6011762143
0.5788418337
0.5565227897
0.5342090623
0.5118949551
0.4895694788
0.4672342595
0.4448719762
0.4224850572
0.4000578415
0.3776070209
0.355090754
0.3325503853
0.3099603819
0.2873216267
0.2646409811
0.2419094894
0.2191533307
0.2178668647
0.2165738676
0.2152263565
0.2138788455
)


101
(
3.416962226
3.351001144
3.279247652
3.20563943
3.132412172
3.060771758
2.991214167
2.92417873
2.859644603
2.797584839
2.737892328
2.680461998
2.625113681
2.571819551
2.520392589
2.470705345
2.422676523
2.376248524
2.331170687
2.287586247
2.245221851
2.204001172
2.163978865
2.125010966
2.087010046
2.049920896
2.01368677
1.978247929
1.94357553
1.909611068
1.876316719
1.843638476
1.811484461
1.780010204
1.749032105
1.718549417
1.688528241
1.658921631
1.629739053
1.600995572
1.572650223
1.544622679
1.51695504
1.489613354
1.462555663
1.435802973
1.409316662
1.383109097
1.357149414
1.331442039
1.305959337
1.280698824
1.255649331
1.230799077
1.206136056
1.181652244
1.157361489
1.133218934
1.109247046
1.085420084
1.061742023
1.038199027
1.014784141
0.99149319
0.9683198891
0.9452575183
0.922297945
0.899435136
0.876667155
0.8539817907
0.8313788766
0.808849151
0.7863895251
0.7639892396
0.7416422321
0.7193402544
0.69708072
0.6748616523
0.6526670882
0.6304934954
0.6083326021
0.586181534
0.5640303106
0.5418724659
0.5196963931
0.4975044415
0.4752771938
0.4530178921
0.4307090313
0.4083700201
0.3859537934
0.3635078683
0.3410032755
0.3184415185
0.295830721
0.2731604973
0.2504609233
0.2489906788
0.2475129685
0.2459729506
0.2444329326
)


101
(
3.41698454
3.351740454
3.280766969
3.20795896
3.135527799
3.064666314
2.995863266
2.929556823
2.865724547
2.804339724
2.745296422
2.688490816
2.633744639
2.581030337
2.530162917
2.481016393
2.433510277
2.387587511
2.343000216
2.299890068
2.257986812
2.217214782
2.177628061
2.13908425
2.101496857
2.064811259
2.028971299
1.993917867
1.959622406
1.926027009
1.893094236
1.860770647
1.828965358
1.797832031
1.767189125
1.737035827
1.707338554
1.678050862
1.649182055
1.620746976
1.592704958
1.564976725
1.537603739
1.510552429
1.48378133
1.457311096
1.431103603
1.405171036
1.37948286
1.354043364
1.328825286
1.303826163
1.279034927
1.254439909
1.230029241
1.205794995
1.181750718
1.157852225
1.134121534
1.110533275
1.087091272
1.063781831
1.04059802
1.017535526
0.994588393
0.9717495799
0.9490110964
0.9263668147
0.9038146823
0.8813424207
0.8589501084
0.8366280143
0.8143727592
0.7921738534
0.7700251354
0.7479182396
0.7258494718
0.7038177139
0.6818059532
0.6598107984
0.6378233925
0.6158403004
0.5938515811
0.5718499991
0.5498233299
0.5277746461
0.5056824341
0.4835507497
0.4613602439
0.4391330422
0.4168168557
0.3944653744
0.3720461922
0.3495614336
0.3270204842
0.3044116053
0.2817685533
0.2801145111
0.2784520694
0.2767195427
0.274987016
)


101
(
3.417006854
3.352479765
3.282286284
3.210278489
3.138643423
3.068560868
3.00051236
2.934934913
2.871804485
2.811094604
2.752700511
2.696519627
2.64237559
2.590241117
2.539933237
2.491327434
2.444344023
2.39892649
2.354829736
2.31219388
2.270751764
2.230428382
2.191277247
2.153157524
2.115983657
2.079701611
2.044255817
2.009587794
1.97566927
1.942442937
1.90987174
1.877902806
1.846446242
1.815653846
1.785346131
1.755522223
1.726148853
1.697180078
1.668625043
1.640498365
1.612759678
1.585330756
1.558252421
1.531491489
1.50500698
1.478819202
1.452890528
1.427232958
1.40181629
1.376644673
1.351691217
1.326953485
1.302420505
1.278080724
1.253922407
1.229937727
1.206139928
1.182485499
1.158996004
1.135646447
1.112440502
1.089364615
1.06641188
1.043577842
1.020856877
0.9982416217
0.9757242279
0.9532984735
0.9309621894
0.9087030303
0.8865213197
0.864406857
0.8423559725
0.8203584461
0.7984080175
0.7764962035
0.7546182022
0.732773754
0.7109447964
0.6891280795
0.667314161
0.6454990448
0.6236728294
0.6018275099
0.5799502442
0.5580448281
0.5360876517
0.5140835846
0.4920114336
0.4698960414
0.447679895
0.4254228575
0.4030890857
0.3806813254
0.3582102242
0.3356625042
0.3130761079
0.3112382733
0.3093911017
0.3074660559
0.3055410101
)


101
(
3.417029168
3.353219075
3.283805599
3.212598018
3.141759047
3.072455421
3.005161455
2.940313003
2.877884424
2.817849484
2.7601046
2.704548438
2.651006541
2.599451896
2.549703558
2.501638475
2.455177768
2.410265468
2.366659256
2.324497691
2.283516716
2.243641982
2.204926433
2.167230798
2.130470457
2.094591963
2.059540334
2.02525772
1.991716134
1.958858866
1.926649244
1.895034964
1.863927127
1.83347566
1.803503137
1.774008619
1.744959153
1.716309295
1.688068031
1.660249755
1.632814399
1.605684786
1.578901104
1.552430548
1.526232631
1.500327309
1.474677452
1.449294881
1.42414972
1.399245982
1.374557148
1.350080806
1.325806084
1.301721538
1.277815574
1.254080459
1.230529138
1.207118772
1.183870473
1.160759618
1.137789732
1.1149474
1.09222574
1.069620159
1.047125362
1.024733664
1.002437359
0.9802301322
0.9581096965
0.9360636399
0.914092531
0.8921856996
0.8703391858
0.8485430389
0.8267908996
0.8050741673
0.7833869326
0.7617297941
0.7400836397
0.7184453607
0.6968049294
0.6751577891
0.6534940777
0.6318050207
0.6100771585
0.5883150101
0.5664928693
0.5446164194
0.5226626234
0.5006590405
0.4785429344
0.4563803405
0.4341319793
0.4118012173
0.3893999642
0.3669133313
0.3443836294
0.342362012
0.3403301221
0.338212591
0.3360950599
)


101
(
3.417051481
3.353958385
3.285324914
3.214917547
3.144874671
3.076349975
3.00981055
2.945691093
2.883964363
2.824604364
2.767508688
2.71257725
2.659637492
2.608662675
2.559473878
2.511949516
2.466011514
2.421604447
2.378488776
2.336801503
2.296281668
2.256855583
2.218575619
2.181304071
2.144957257
2.109482314
2.074824852
2.040927647
2.007762998
1.975274794
1.943426749
1.912167123
1.881408011
1.851297474
1.821660143
1.792495015
1.763769452
1.735438512
1.707511018
1.680001144
1.652869119
1.626038817
1.599549787
1.573369608
1.547458282
1.521835415
1.496464377
1.471356803
1.446483149
1.42184729
1.39742308
1.373208128
1.349191663
1.325362352
1.301708741
1.278223192
1.254918348
1.231752046
1.208744942
1.18587279
1.163138963
1.140530184
1.1180396
1.095662475
1.073393846
1.051225705
1.029150491
1.007161791
0.9852572035
0.9634242495
0.9416637423
0.9199645422
0.8983223991
0.8767276317
0.8551737817
0.8336521312
0.812155663
0.7906858342
0.769222483
0.7477626418
0.7262956978
0.7048165334
0.6833153259
0.6617825315
0.6402040729
0.6185851921
0.596898087
0.5751492543
0.5533138132
0.5314220397
0.5094059737
0.4873378235
0.4651748728
0.4429211091
0.4205897041
0.3981643401
0.3756911962
0.3734858033
0.3712692009
0.368959152
0.3666491031
)


101
(
3.417073795
3.354697695
3.286844229
3.217237076
3.147990295
3.080244528
3.014459645
2.951069183
2.890044302
2.831359244
2.774912777
2.720606061
2.668268443
2.617873455
2.569244198
2.522260557
2.47684526
2.432943426
2.390318296
2.349105315
2.30904662
2.270069183
2.232224805
2.195377345
2.159444057
2.124372666
2.09010937
2.056597573
2.023809862
1.991690723
1.960204253
1.929299281
1.898888895
1.869119289
1.83981715
1.810981411
1.782579751
1.754567729
1.726954006
1.699752533
1.672923839
1.646392847
1.62019847
1.594308667
1.568683933
1.543343522
1.518251302
1.493418725
1.468816579
1.444448599
1.420289011
1.396335449
1.372577241
1.349003167
1.325601908
1.302365924
1.279307558
1.256385319
1.233619412
1.210985962
1.188488193
1.166112969
1.14385346
1.121704792
1.099662331
1.077717747
1.055863622
1.03409345
1.012404711
0.9907848591
0.9692349536
0.9477433848
0.9263056124
0.9049122244
0.8835566639
0.8622300951
0.8409243934
0.8196418742
0.7983613262
0.7770799229
0.7557864663
0.7344752777
0.7131365742
0.6917600423
0.6703309872
0.6488553741
0.6273033046
0.6056820891
0.583965003
0.5621850389
0.540269013
0.5182953066
0.4962177664
0.474041001
0.4517794441
0.4294152829
0.4069987338
0.404609527
0.4022081799
0.3997056788
0.3972031776
)


101
(
3.417096109
3.355437006
3.288363545
3.219556606
3.151105921
3.084139085
3.019108743
2.956447277
2.896124246
2.838114129
2.782316871
2.728634878
2.676899401
2.627084241
2.579014526
2.532571605
2.487679014
2.444282413
2.402147825
2.361409135
2.321811581
2.283282793
2.245874001
2.209450629
2.173930868
2.139263029
2.105393899
2.072267512
2.039856739
2.008106663
1.97698177
1.946431453
1.916369792
1.886941116
1.857974169
1.829467821
1.801390065
1.77369696
1.746397008
1.719503937
1.692978575
1.666746893
1.640847168
1.615247742
1.5899096
1.564851644
1.540038243
1.515480664
1.491150026
1.467049924
1.44315496
1.419462788
1.395962837
1.372643999
1.349495093
1.326508674
1.303696786
1.281018611
1.2584939
1.236099152
1.213837442
1.191695772
1.16966734
1.147747127
1.125930835
1.104209809
1.082576774
1.061025128
1.039552238
1.018145489
0.9968061854
0.9755222482
0.9542888465
0.9330968382
0.9119395671
0.8908080803
0.8696931452
0.8485979359
0.8275001912
0.8063972259
0.7852772567
0.7641340441
0.7429578447
0.7217375755
0.7004579239
0.6791255787
0.6577085449
0.6362149467
0.6146162156
0.592948061
0.5711320753
0.5492528127
0.5272606831
0.505160916
0.4829692073
0.4606662177
0.4383062737
0.4357332842
0.4331472176
0.4304522205
0.4277572233
)


101
(
3.417118423
3.356176317
3.289882862
3.221876137
3.154221547
3.088033641
3.023757841
2.96182537
2.902204189
2.844869014
2.789720965
2.736663696
2.685530358
2.636295027
2.588784853
2.542882654
2.498512768
2.455621401
2.413977354
2.373712956
2.334576542
2.296496403
2.259523197
2.223523913
2.188417679
2.154153392
2.120678428
2.08793745
2.055903615
2.024522604
1.993759286
1.963563624
1.933850689
1.904762944
1.876131189
1.84795423
1.820200378
1.792826191
1.76584001
1.739255341
1.71303331
1.687100938
1.661495866
1.636186817
1.611135266
1.586359767
1.561825184
1.537542603
1.513483472
1.48965125
1.466020908
1.442590127
1.419348434
1.39628483
1.373388277
1.350651425
1.328086015
1.305651902
1.283368387
1.261212343
1.239186691
1.217278576
1.195481219
1.173789463
1.152199339
1.13070187
1.109289925
1.087956807
1.066699765
1.045506119
1.024377417
1.003301111
0.9822720806
0.9612814519
0.9403224704
0.9193860654
0.8984618971
0.8775539976
0.8566390562
0.8357145289
0.8147680471
0.7937928105
0.7727791152
0.7517151086
0.7305848607
0.7093957832
0.6881137851
0.6667478043
0.6452674282
0.623711083
0.6019951377
0.5802103188
0.5583035998
0.536280831
0.5141589705
0.4919169052
0.4696136989
0.4668570023
0.4640862819
0.4611987612
0.4583112406
)


101
(
3.417140737
3.356915627
3.291402176
3.224195664
3.157337169
3.091928192
3.028406933
2.967203456
2.908284124
2.851623889
2.797125048
2.744692501
2.694161303
2.645505799
2.598555166
2.553193687
2.509346506
2.466960371
2.425806865
2.386016759
2.347341485
2.309709994
2.273172373
2.237597177
2.202904468
2.169043732
2.135962934
2.103607365
2.071950467
2.04093852
2.010536778
1.98069577
1.951331561
1.922584745
1.894288181
1.866440612
1.839010663
1.811955394
1.785282984
1.759006716
1.733088015
1.707454954
1.682144534
1.657125861
1.632360901
1.607867857
1.583612093
1.559604509
1.535816885
1.512252541
1.488886822
1.465717431
1.442733995
1.419925627
1.397281426
1.374794139
1.352475207
1.330285157
1.308242838
1.286325496
1.264535903
1.242861341
1.22129506
1.19983176
1.178467803
1.157193892
1.136003037
1.114888446
1.093847252
1.072866708
1.051948608
1.031079933
1.010255273
0.9894660237
0.9687053313
0.947964008
0.927230606
0.9065100161
0.8857778777
0.8650317882
0.8442587936
0.8234515327
0.8026003413
0.7816925971
0.7607117526
0.7396659427
0.7185189801
0.6972806164
0.6759185951
0.6544740593
0.632858154
0.6111677788
0.5893464702
0.5674006997
0.5453486872
0.5231678657
0.5009211957
0.4979806957
0.4950252393
0.4919452566
0.488865274
)


101
(
3.417163051
3.357654937
3.292921492
3.226515195
3.160452796
3.095822748
3.033056031
2.97258155
2.914364067
2.858378774
2.804529142
2.752721318
2.702792261
2.654716586
2.608325494
2.563504736
2.52018026
2.478299358
2.437636394
2.398320579
2.360106446
2.322923604
2.286821569
2.251670461
2.217391279
2.183934095
2.151247463
2.119277303
2.087997343
2.057354461
2.027314295
1.997827941
1.968812458
1.940406573
1.912445201
1.884927022
1.857820976
1.831084625
1.804725986
1.77875812
1.753142751
1.727809
1.702793232
1.678064936
1.653586568
1.62937598
1.605399034
1.581666447
1.558150331
1.534853867
1.511752771
1.48884477
1.466119591
1.443566459
1.421174611
1.398936889
1.376864435
1.354918449
1.333117326
1.311438686
1.289885152
1.268444145
1.247108939
1.225874096
1.204736307
1.183685954
1.162716188
1.141820125
1.120994779
1.100227338
1.07951984
1.058858797
1.038238507
1.017650637
0.9970882346
0.9765419932
0.9559993578
0.9354660777
0.9149167427
0.8943490912
0.873749584
0.8531102991
0.8324216118
0.8116701302
0.7908386894
0.7699361472
0.7489242204
0.7278134741
0.7065698077
0.6852370814
0.6637212163
0.6421252849
0.6203893869
0.5985206147
0.5765384504
0.5544187928
0.532228694
0.5291043673
0.5259641542
0.5226917522
0.5194193503
)


101
(
3.417185365
3.358394248
3.294440808
3.228834726
3.163568422
3.099717305
3.037705129
2.977959644
2.920444011
2.865133659
2.811933236
2.760750136
2.711423218
2.663927372
2.618095822
2.573815784
2.531014014
2.489638345
2.449465923
2.4106244
2.372871407
2.336137214
2.300470765
2.265743745
2.231878089
2.198824458
2.166531993
2.134947241
2.104044219
2.073770402
2.044091811
2.014960112
1.986293355
1.9582284
1.930602221
1.903413432
1.87663129
1.850213856
1.824168988
1.798509524
1.773197486
1.748163045
1.72344193
1.699004011
1.674812235
1.650884102
1.627185975
1.603728386
1.580483778
1.557455192
1.534618719
1.511972109
1.489505187
1.467207291
1.445067795
1.42307964
1.401253663
1.379551741
1.357991814
1.336551877
1.315234401
1.294026948
1.272922818
1.251916432
1.231004811
1.210178016
1.189429339
1.168751803
1.148142307
1.127587968
1.107091072
1.08663766
1.066221741
1.045835251
1.025471138
1.005119978
0.9847681097
0.9644221394
0.9440556077
0.9236663941
0.9032403744
0.8827690655
0.8622428823
0.8416476634
0.8209656261
0.8002063518
0.7793294607
0.7583463317
0.7372210203
0.7160001035
0.6945842786
0.673082791
0.6514323035
0.6296405298
0.6077282136
0.5856698682
0.5635362561
0.5602281125
0.5569031503
0.5534382795
0.5499734087
)


101
(
3.417207679
3.359133558
3.295960122
3.231154253
3.166684044
3.103611855
3.04235422
2.98333773
2.926523945
2.871888534
2.819337319
2.768778941
2.720054163
2.673138144
2.627866135
2.584126817
2.541847751
2.500977316
2.461295434
2.422928203
2.38563635
2.349350804
2.314119941
2.279817008
2.246364879
2.213714799
2.181816499
2.150617156
2.120091071
2.090186318
2.060869303
2.032092258
2.003774226
1.976050202
1.948759213
1.921899814
1.895441575
1.869343059
1.843611961
1.818260899
1.793252192
1.768517061
1.744090597
1.719943055
1.69603787
1.672392193
1.648972883
1.625790292
1.602817191
1.580056484
1.557484633
1.535099413
1.512890748
1.490848088
1.468960944
1.447222354
1.425642855
1.404184996
1.382866265
1.36166503
1.340583612
1.319609714
1.298736659
1.277958729
1.257273276
1.236670038
1.216142451
1.195683442
1.175289794
1.154948557
1.134662262
1.114416482
1.094204934
1.074019823
1.053853999
1.033697921
1.013536819
0.9933781579
0.9731944292
0.9529836534
0.9327311208
0.9124277877
0.8920641084
0.8716251519
0.851092518
0.8304765112
0.8097346556
0.7888791438
0.7678721873
0.7467630797
0.725447295
0.704040251
0.682475174
0.6607603984
0.6389179303
0.6169208875
0.5948437635
0.5913518405
0.5878421598
0.5841847675
0.5805273752
)


101
(
3.417229993
3.359872869
3.297479438
3.233473783
3.16979967
3.107506412
3.047003319
2.988715823
2.932603889
2.878643419
2.826741414
2.776807758
2.72868512
2.682348931
2.637636462
2.594437866
2.552681505
2.512316303
2.473124963
2.435232023
2.398401311
2.362564414
2.327769137
2.293890292
2.26085169
2.228605161
2.197101028
2.166287095
2.136137947
2.106602258
2.07764682
2.04922443
2.021255123
1.993872029
1.966916233
1.940386224
1.914251888
1.88847229
1.863054963
1.838012303
1.813306927
1.788871106
1.764739296
1.74088213
1.717263537
1.693900315
1.670759824
1.64785223
1.625150637
1.602657809
1.580350582
1.558226752
1.536276344
1.51448892
1.492854129
1.471365104
1.450032083
1.428818288
1.407740753
1.38677822
1.365932861
1.345192517
1.324550539
1.304001065
1.28354178
1.263162099
1.242855602
1.222615121
1.202437321
1.182309187
1.162233494
1.142195345
1.122188168
1.102204437
1.082236902
1.062275906
1.04230557
1.02233422
1.002333294
0.9823009564
0.9622219112
0.9420865541
0.9218853789
0.901602685
0.8812194548
0.8607467158
0.8401398959
0.8194120014
0.7985233999
0.7775261018
0.7563103573
0.7349977571
0.7135180907
0.6918803135
0.6701076935
0.648171894
0.6261512805
0.6224755684
0.6187811644
0.6149313104
0.6110814565
)


101
(
3.417252307
3.360612178
3.298998752
3.235793311
3.172915292
3.111400962
3.05165241
2.994093909
2.938683823
2.885398294
2.834145497
2.784836564
2.737316065
2.691559703
2.647406775
2.604748899
2.563515243
2.523655273
2.484954474
2.447535826
2.411166253
2.375778005
2.341418313
2.307963556
2.275338479
2.243495502
2.212385534
2.18195701
2.1521848
2.123018175
2.094424312
2.066356575
2.038735995
2.01169383
1.985073226
1.958872606
1.933062174
1.907601493
1.882497937
1.857763678
1.833361632
1.809225122
1.785387963
1.761821173
1.738489172
1.715408406
1.692546733
1.669914136
1.64748405
1.625259101
1.603216496
1.581354057
1.559661906
1.538129716
1.516747278
1.495507819
1.474421275
1.453451543
1.432615204
1.411891373
1.391282073
1.370775283
1.35036438
1.330043362
1.309810245
1.289654121
1.269568714
1.24954676
1.229584808
1.209669777
1.189804685
1.169974167
1.15017136
1.130389008
1.110619763
1.090853849
1.071074279
1.051290238
1.031472116
1.011618216
0.9917126577
0.9717452764
0.9517066049
0.9315801735
0.9113463467
0.8910168752
0.8705450909
0.8499448135
0.8291745668
0.808289078
0.7871733736
0.765955217
0.7445609611
0.7230001821
0.7012974102
0.67942295
0.6574588011
0.6535992884
0.6497201497
0.6456778102
0.6416354706
)


101
(
3.417274621
3.361351489
3.300518069
3.238112841
3.176030918
3.115295519
3.056301508
2.999472003
2.944763767
2.892153179
2.841549591
2.792865381
2.745947023
2.700770489
2.657177103
2.615059948
2.574348997
2.534994261
2.496784002
2.459839647
2.423931215
2.388991615
2.355067509
2.32203684
2.28982529
2.258385865
2.227670063
2.197626948
2.168231676
2.139434115
2.111201828
2.083488747
2.056216892
2.029515658
2.003230245
1.977359016
1.951872487
1.926730724
1.901940939
1.877515082
1.853416368
1.829579167
1.806036661
1.782760248
1.759714838
1.736916528
1.714333674
1.691976075
1.669817497
1.647860426
1.626082445
1.604481395
1.583047502
1.561770548
1.540640463
1.519650569
1.498810504
1.478084834
1.457489691
1.437004564
1.416631322
1.396358086
1.376178259
1.356085698
1.336078749
1.316146183
1.296281865
1.276478438
1.256732335
1.237030407
1.217375917
1.197753031
1.178154595
1.158573622
1.139002666
1.119431834
1.099843031
1.0802463
1.060610981
1.040935519
1.021203448
1.001404043
0.9815278754
0.9615577066
0.9414732834
0.9212870798
0.9009503312
0.8804776711
0.8598257794
0.8390521001
0.818036436
0.7969127231
0.7756038778
0.7541200971
0.7324871734
0.7106738256
0.6887662248
0.6847229924
0.6806591909
0.6764243608
0.6721895307
)


101
(
3.417296934
3.3620908
3.302037385
3.240432372
3.179146544
3.119190075
3.060950606
3.004850097
2.95084371
2.898908064
2.848953685
2.800894198
2.75457798
2.709981275
2.66694743
2.625370996
2.585182751
2.546333248
2.508613531
2.472143467
2.436696176
2.402205225
2.368716705
2.336110124
2.304312101
2.273276228
2.242954592
2.213296886
2.184278552
2.155850056
2.127979345
2.100620918
2.073697789
2.047337486
2.021387265
1.995845425
1.9706828
1.945859955
1.921383941
1.897266486
1.873471103
1.849933213
1.826685359
1.803699323
1.780940505
1.758424651
1.736120615