/*--------------------------------*- C++ -*----------------------------------*\
| =========                 |                                                 |
| \\      /  F ield         | OpenFOAM: The Open Source CFD Toolbox           |
|  \\    /   O peration     | Version:  2.3.1                                 |
|   \\  /    A nd           | Web:      www.OpenFOAM.org                      |
|    \\/     M anipulation  |                                                 |
\*---------------------------------------------------------------------------*/
FoamFile
{
    version     2.0;
    format      ascii;
    class       dictionary;
    location    "constant";
    object      rC2H5;
}
// * * * * * * * * * * * * * * * * * * * * * * * * * * * * * * * * * * * * * //

rC2H5_table
101
(

101
(
-4.416003017e-18
-1.156559609e-09
-4.863206836e-07
-1.516359122e-05
-0.0001560406007
-0.0008397316034
-0.003009072081
-0.008678665087
-0.02094149768
-0.044516584
-0.08569343877
-0.1528793685
-0.2553094668
-0.4063703472
-0.6175659774
-0.9007692249
-1.268053134
-1.730586999
-2.285925671
-2.945823084
-3.696534886
-4.52929932
-5.432795905
-6.385842134
-7.367069771
-8.354237997
-9.325296589
-10.25996139
-11.13619316
-11.93842923
-12.65187791
-13.26917781
-13.79601705
-14.18816771
-14.48546434
-14.70376246
-15.00486653
-15.33197572
-15.19533318
-14.9571032
-14.63203548
-14.2374133
-13.77463837
-13.25618752
-12.69168506
-12.08893496
-11.45665171
-10.80410533
-10.13770016
-9.467105442
-8.796882726
-8.13378628
-7.483693469
-6.850605601
-6.237510675
-5.647639203
-5.09126649
-4.558958349
-4.06221218
-3.595578641
-3.163931886
-2.765673681
-2.399697315
-2.067405368
-1.767440081
-1.498302242
-1.258503784
-1.046675061
-0.8624596561
-0.7022515803
-0.5653106938
-0.4489418306
-0.3524225898
-0.2723555798
-0.218196931
-0.1705560927
-0.1247882518
-0.0895865649
-0.06263811516
-0.04232404662
-0.02749032403
-0.01743751907
-0.01044762469
-0.006895054232
-0.004195562593
-0.002147590459
-0.001009950546
-0.0004298887667
-0.0001601094724
-7.733931665e-05
-2.251062956e-05
-4.460510323e-06
-6.001445125e-07
-1.390124879e-07
-2.025692823e-08
-2.236686772e-09
3.328482506e-14
-2.59923592e-31
-2.831423632e-24
1.617099092e-24
0
)


101
(
-4.359424918e-18
2.841799824e-09
-3.204086662e-07
-1.2867654e-05
-0.0001385590799
-0.0007543232976
-0.002709113299
-0.00780697955
-0.01881247779
-0.03991387907
-0.0767032132
-0.136636003
-0.2280232428
-0.3626680936
-0.5513829653
-0.805082746
-1.134894767
-1.551292077
-2.054790379
-2.652769608
-3.338581676
-4.102964959
-4.934494748
-5.817079233
-6.731062184
-7.655706945
-8.570633236
-9.456850224
-10.29414833
-11.06706215
-11.76140546
-12.3683661
-12.88912865
-13.29428562
-13.60127504
-13.82640609
-14.06420253
-14.32811241
-14.3597211
-14.20746468
-13.94465138
-13.60398195
-13.19765994
-12.73674328
-12.23081606
-11.68714755
-11.1132644
-10.5166684
-9.904499336
-9.284207054
-8.661898514
-8.043109051
-7.433207234
-6.836117316
-6.255693006
-5.69539128
-5.160934759
-4.651841686
-4.171132027
-3.719301216
-3.297520905
-2.906314994
-2.545099053
-2.21388253
-1.912392543
-1.640199407
-1.395654001
-1.177409523
-0.9844664124
-0.8154228887
-0.6686477892
-0.5422120151
-0.4344843011
-0.3432037949
-0.2702885296
-0.2121792511
-0.1631944025
-0.1225362754
-0.08975096956
-0.06397506701
-0.0443418137
-0.02988470593
-0.01945652025
-0.01236376756
-0.007669833796
-0.00455142835
-0.002557388404
-0.00132859575
-0.0006412394954
-0.0002894690376
-0.0001106686265
-3.876533453e-05
-1.338892474e-05
-3.20773279e-06
-9.15241468e-07
-2.556562366e-07
-2.784973164e-08
-4.528602838e-08
-1.010726737e-07
-4.7381143e-07
-7.413133203e-07
)


101
(
-4.302926875e-18
6.036925097e-09
-1.768880063e-07
-1.082608883e-05
-0.0001227839436
-0.0006768582627
-0.002437018782
-0.007017788121
-0.01688888281
-0.03576646292
-0.06862088353
-0.1220650736
-0.203575339
-0.3235822821
-0.4921854678
-0.7194781708
-1.015754284
-1.39085575
-1.847449901
-2.390299986
-3.017181144
-3.719828599
-4.487039082
-5.306129083
-6.159739563
-7.02875757
-7.894322267
-8.738711421
-9.543316421
-10.29314105
-10.97452197
-11.57794349
-12.10140856
-12.52330447
-12.850234
-13.09388473
-13.31498854
-13.54303772
-13.65343306
-13.60213458
-13.42147833
-13.14800314
-12.80381977
-12.40371366
-11.95802397
-11.47442113
-10.9597858
-10.42009216
-9.862140914
-9.292310421
-8.716775067
-8.140802233
-7.569586738
-7.007276692
-6.457346905
-5.923118659
-5.40862617
-4.916105429
-4.447611582
-4.004259315
-3.587253409
-3.197144516
-2.833944277
-2.497953371
-2.189138279
-1.907118519
-1.650694018
-1.41891141
-1.210937008
-1.025524
-0.8617239286
-0.7177990495
-0.5926553938
-0.4840000753
-0.3913936531
-0.3141457672
-0.2499244727
-0.1965305796
-0.1522254979
-0.1157173682
-0.08630621774
-0.06313776716
-0.04522903269
-0.03162312007
-0.02154912383
-0.01426503539
-0.009292429067
-0.005879562369
-0.003545023637
-0.002055450311
-0.001120102043
-0.0005535407714
-0.0002804648128
-0.0001239382479
-5.275136289e-05
-2.294940216e-05
-4.59285247e-06
-1.034561359e-05
-1.97487714e-05
-6.076210482e-05
-9.715476694e-05
)


101
(
-4.246508868e-18
8.514564171e-09
-5.365859455e-08
-9.016332372e-06
-0.000108570008
-0.0006066643825
-0.002190376853
-0.006303689108
-0.01515166842
-0.03203036384
-0.06135581647
-0.1089937655
-0.1816655294
-0.2886058233
-0.4391975416
-0.6428086294
-0.9089936628
-1.247013487
-1.661064665
-2.154454798
-2.727704233
-3.374149447
-4.083219567
-4.844597998
-5.643258078
-6.461870378
-7.283031244
-8.090228634
-8.866290967
-9.596889005
-10.26887378
-10.87254935
-11.40381246
-11.84516265
-12.19789472
-12.46544081
-12.69559313
-12.91227284
-13.06320445
-13.09560569
-13.00336946
-12.80864782
-12.53436554
-12.19901215
-11.81569016
-11.39345915
-10.93904457
-10.45779081
-9.955229275
-9.437250544
-8.90932645
-8.376746958
-7.84443419
-7.316554637
-6.796703479
-6.288325881
-5.794093764
-5.316973288
-4.859451909
-4.42270629
-4.008382327
-3.617225212
-3.249579512
-2.905892603
-2.586340466
-2.290759711
-2.018618791
-1.768991134
-1.541785886
-1.33582628
-1.15032761
-0.9840382859
-0.8362414485
-0.705123677
-0.5895018199
-0.4888023845
-0.4021554024
-0.3282456322
-0.2655157373
-0.212407699
-0.1677974683
-0.1306868864
-0.1002972406
-0.07567888747
-0.05600887819
-0.04055385891
-0.02875704968
-0.02017630978
-0.01379119954
-0.009056501873
-0.005731185396
-0.00349789908
-0.002121190964
-0.001199872274
-0.0006605396037
-0.0003449292597
-7.584735452e-05
-0.0002569118324
-0.0004867999805
-0.001164612166
-0.001902240452
)


101
(
-4.190170879e-18
1.035451077e-08
5.12289737e-08
-7.417475794e-06
-9.578291306e-05
-0.000543121504
-0.001966972146
-0.005657921978
-0.01358353267
-0.02866590996
-0.05482674558
-0.0972681504
-0.1620281999
-0.2572941106
-0.3917416067
-0.5740824977
-0.8132068356
-1.117836962
-1.493226764
-1.941964958
-2.466275544
-3.061233618
-3.717249588
-4.425743503
-5.173852411
-5.946077198
-6.726466937
-7.499703411
-8.249913795
-8.963535951
-9.627890162
-10.23347559
-10.77484369
-11.23684946
-11.61863128
-11.91984071
-12.16819107
-12.39094139
-12.57020834
-12.66591624
-12.65618224
-12.54495485
-12.3476733
-12.08257926
-11.76489468
-11.4057791
-11.01280221
-10.59124694
-10.14572923
-9.68154279
-9.203369496
-8.716180117
-8.224674383
-7.733075621
-7.244816477
-6.763134238
-6.291275421
-5.83129382
-5.386160921
-4.956877769
-4.545691081
-4.153767117
-3.781679595
-3.430200099
-3.099582975
-2.789547398
-2.500290647
-2.231459837
-1.982986908
-1.754226709
-1.544120028
-1.352252777
-1.178084242
-1.020551648
-0.8783519766
-0.7507366318
-0.637039451
-0.5370177194
-0.4495024949
-0.3733293019
-0.3074685467
-0.250594173
-0.2019961509
-0.1607898479
-0.1261321522
-0.09734366026
-0.07378126763
-0.05514127842
-0.04084900294
-0.02949705929
-0.02066194406
-0.01402177859
-0.009294220311
-0.006082349201
-0.003901353053
-0.002330467308
-0.0008434202114
-0.002338511117
-0.003984857257
-0.007341370948
-0.01060147756
)


101
(
-4.133912877e-18
1.163091531e-08
1.395821386e-07
-6.010161695e-06
-8.429839818e-05
-0.0004856576882
-0.001764770299
-0.005074316062
-0.01216877254
-0.0256373664
-0.04896095165
-0.08675175144
-0.1444291961
-0.2292596786
-0.3492306526
-0.5124482135
-0.72719984
-1.001702989
-1.341908899
-1.750143458
-2.229688441
-2.777261265
-3.384484322
-4.044155584
-4.745329953
-5.474319214
-6.216617723
-6.958088041
-7.68406495
-8.381810552
-9.039237535
-9.646842944
-10.19868571
-10.6809556
-11.09172554
-11.42792403
-11.70481524
-11.94562802
-12.15053573
-12.29589454
-12.35790692
-12.32812302
-12.2114426
-12.02162377
-11.77354165
-11.47990199
-11.14991667
-10.78972999
-10.4035203
-9.9956435
-9.57001814
-9.131112738
-8.683384114
-8.231092584
-7.777661266
-7.325910225
-6.879224292
-6.439572737
-6.010225053
-5.591771295
-5.186394104
-4.796240495
-4.421740872
-4.064256817
-3.724365772
-3.401700334
-3.096521851
-2.808928638
-2.539030356
-2.287390498
-2.05237222
-1.833822397
-1.631417352
-1.444870841
-1.273226213
-1.115839439
-0.9722268149
-0.8421120382
-0.7246665153
-0.6196908605
-0.5264963318
-0.4442599282
-0.371439279
-0.3076588733
-0.2519227534
-0.2038303714
-0.1624177556
-0.1276926555
-0.09941469601
-0.07657472894
-0.05755379656
-0.04244373684
-0.03066174397
-0.02167978884
-0.01531835701
-0.01019427637
-0.004884214179
-0.009797471452
-0.0157053983
-0.03047997066
-0.04545905689
)


101
(
-4.077734875e-18
1.241254877e-08
2.130745011e-07
-4.776487902e-06
-7.400163481e-05
-0.0004337457517
-0.001581903711
-0.004547233426
-0.01089310597
-0.02291241116
-0.04369295157
-0.07732231214
-0.1286595927
-0.2041591561
-0.3111457937
-0.4571574648
-0.6499302904
-0.8972038655
-1.205352504
-1.576706379
-2.015203674
-2.519006154
-3.081068073
-3.6953617
-4.35260786
-5.040861526
-5.747050703
-6.458188578
-7.160745906
-7.842835626
-8.493009138
-9.101930793
-9.663368348
-10.16439726
-10.60269711
-10.97335305
-11.28366933
-11.55091247
-11.78299399
-11.96979056
-12.09270303
-12.13789188
-12.10120122
-11.98955619
-11.81479255
-11.5895598
-11.32449662
-11.02725913
-10.70233066
-10.35331468
-9.983501757
-9.596460884
-9.196297062
-8.787197693
-8.372816056
-7.95547613
-7.538335712
-7.123474019
-6.714103932
-6.311137819
-5.916680793
-5.532805735
-5.160297495
-4.800458321
-4.454607069
-4.122720671
-3.804819987
-3.501225905
-3.212215061
-2.938659159
-2.680096672
-2.436069092
-2.206177823
-1.990344636
-1.788184741
-1.59943869
-1.424089063
-1.261506796
-1.111113772
-0.9731740512
-0.8476021001
-0.7344927037
-0.6319504284
-0.5396523632
-0.4569092775
-0.3831014347
-0.3173954698
-0.2598236631
-0.2106970903
-0.1698014623
-0.1344367131
-0.1046336269
-0.0806044494
-0.06097728968
-0.04613098753
-0.03243088931
-0.01808007834
-0.03561890566
-0.05524437997
-0.09456191308
-0.1326435608
)


101
(
-4.021636812e-18
1.276306533e-08
2.732539072e-07
-3.699913157e-06
-6.478659236e-05
-0.0003869004195
-0.001416662195
-0.004071540476
-0.009743561876
-0.02046183327
-0.03896386103
-0.06887037782
-0.1145332158
-0.1816882457
-0.2770286222
-0.4075527988
-0.5804860422
-0.8031142783
-1.082025973
-1.419697544
-1.820471263
-2.283721561
-2.803753153
-3.375602098
-3.991424577
-4.640918899
-5.312436997
-5.994115643
-6.673489643
-7.339520652
-7.981442021
-8.590217154
-9.159479905
-9.676918679
-10.14020576
-10.5433659
-10.88850566
-11.18708339
-11.44891611
-11.67275033
-11.84736063
-11.95903769
-11.99814233
-11.96469539
-11.8656816
-11.7117968
-11.51396297
-11.28117543
-11.01900444
-10.73095886
-10.41978074
-10.08810601
-9.73963282
-9.378191202
-9.007311135
-8.629392981
-8.24738043
-7.862843923
-7.479056066
-7.097065898
-6.719037629
-6.34706304
-5.982180199
-5.625757312
-5.279151299
-4.942959366
-4.617142552
-4.302355897
-3.998709455
-3.707189517
-3.428233941
-3.161374026
-2.906429775
-2.663230906
-2.431847948
-2.212172649
-2.004872553
-1.809449263
-1.625366451
-1.45266158
-1.291589569
-1.143196482
-1.006644161
-0.8807451724
-0.7656076186
-0.660440778
-0.5643117947
-0.4772526003
-0.4002646197
-0.3336200705
-0.2754907604
-0.2236332187
-0.1799776329
-0.1433420285
-0.1133394209
-0.08528887391
-0.05408319662
-0.09845045765
-0.1469086921
-0.2356323215
-0.3202488145
)


101
(
-3.965618711e-18
1.274126462e-08
3.215496941e-07
-2.76517356e-06
-5.655544414e-05
-0.0003446749864
-0.001267479022
-0.003642562052
-0.008708359911
-0.01825923537
-0.03472067491
-0.06129800475
-0.1018840261
-0.1615772762
-0.2464733235
-0.3630549214
-0.5180677767
-0.7183648281
-0.9705911161
-1.277429431
-1.643466745
-2.069059247
-2.549796979
-3.081728871
-3.658245247
-4.270558017
-4.908431602
-5.561112491
-6.217127343
-6.866254673
-7.498438116
-8.105060327
-8.679755645
-9.210612872
-9.695510722
-10.12796951
-10.5067724
-10.83851652
-11.13195513
-11.39049422
-11.60971185
-11.77927439
-11.887485
-11.92917184
-11.90603285
-11.82529669
-11.69679984
-11.53008913
-11.33204243
-11.10656045
-10.85603357
-10.58273015
-10.28967128
-9.979908169
-9.65709543
-9.323697719
-8.98213548
-8.633809076
-8.281853348
-7.927346267
-7.572408007
-7.219003527
-6.868159587
-6.521682984
-6.180917737
-5.84693403
-5.519845011
-5.200023587
-4.887724343
-4.583494816
-4.288855866
-4.003578307
-3.728250416
-3.462122357
-3.204997281
-2.957294289
-2.720003332
-2.493133492
-2.276277511
-2.069151351
-1.872395181
-1.687038796
-1.51403857
-1.351538295
-1.200346363
-1.059011528
-0.9281052853
-0.8058681618
-0.6948571643
-0.595448361
-0.5067782981
-0.4254397653
-0.3551829475
-0.2942822749
-0.2418652329
-0.1921917521
-0.1320130505
-0.2240115379
-0.3223092428
-0.4899607874
-0.6503790323
)


101
(
-3.909680489e-18
1.240133329e-08
3.592799541e-07
-1.958196409e-06
-4.921798439e-05
-0.0003066580386
-0.001132914942
-0.003256021664
-0.007776775431
-0.01628068954
-0.03091549795
-0.05451700072
-0.09056288859
-0.1435852071
-0.2191177552
-0.3231487767
-0.4619688452
-0.642015362
-0.8698712484
-1.148435907
-1.482436112
-1.873000552
-2.316873759
-2.811102243
-3.350147426
-3.926585957
-4.531543316
-5.155364071
-5.78751189
-6.418532592
-7.039075362
-7.641047048
-8.218250097
-8.759021817
-9.261434251
-9.7190073
-10.12856238
-10.49292263
-10.81847883
-11.11014713
-11.36842651
-11.58750142
-11.75665505
-11.86787055
-11.91823424
-11.91066969
-11.85263405
-11.75320942
-11.62002028
-11.45785189
-11.26939861
-11.056696
-10.8219592
-10.56764867
-10.29697504
-10.01228775
-9.716224998
-9.409488894
-9.095338655
-8.774766906
-8.449595339
-8.121838084
-7.792372773
-7.463063682
-7.135312137
-6.810389388
-6.488915908
-6.171037379
-5.857174945
-5.547755095
-5.244281906
-4.947068071
-4.656652605
-4.372994122
-4.095787177
-3.825300573
-3.562274181
-3.307621116
-3.061519071
-2.822976723
-2.592374467
-2.371691149
-2.162105439
-1.963143521
-1.774376451
-1.594997144
-1.426778766
-1.266349462
-1.116997794
-0.979851505
-0.8544554197
-0.738190468
-0.6342043151
-0.5416932655
-0.4591723042
-0.378796082
-0.2820948482
-0.4450098894
-0.6137678706
-0.876391414
-1.126146381
)


101
(
-3.853822211e-18
1.179307937e-08
3.876581934e-07
-1.266025264e-06
-4.269115577e-05
-0.000272471339
-0.001011649307
-0.002908004853
-0.006939067604
-0.01450460899
-0.02750519386
-0.04844800556
-0.08043565259
-0.1274958527
-0.1946372548
-0.2873736751
-0.4115595554
-0.5732317244
-0.7788213732
-1.031423974
-1.335836226
-1.693786885
-2.103019165
-2.561516863
-3.064720816
-3.606410065
-4.178975932
-4.773839102
-5.381366105
-5.992833529
-6.599550704
-7.193977416
-7.770251335
-8.317007041
-8.832393731
-9.310191961
-9.746254873
-10.1406719
-10.49703593
-10.81990677
-11.11268536
-11.3737686
-11.59511874
-11.76825489
-11.88716422
-11.95050605
-11.96238516
-11.93023962
-11.86175166
-11.76267721
-11.63640067
-11.48502664
-11.31019203
-11.1137185
-10.89795496
-10.66546978
-10.4188527
-10.1584707
-9.887211449
-9.606111111
-9.316749135
-9.020919357
-8.719771529
-8.41471681
-8.107070451
-7.798197589
-7.489484054
-7.180925063
-6.873154225
-6.566202741
-6.261424589
-5.95948369
-5.661346748
-5.367140539
-5.076687389
-4.789840425
-4.507455826
-4.230919181
-3.960608703
-3.695939948
-3.436599412
-3.184721032
-2.941720188
-2.708613572
-2.484489957
-2.267968774
-2.062226368
-1.86400467
-1.675173525
-1.499114329
-1.333674346
-1.17897242
-1.037067587
-0.9080125506
-0.7904963216
-0.671430619
-0.5273634801
-0.7849279585
-1.037990847
-1.38108813
-1.674789712
)


101
(
-3.798054653e-18
1.096215632e-08
4.077997402e-07
-6.767442426e-07
-3.689848811e-05
-0.0002417669652
-0.0009024704257
-0.002594932343
-0.006186362597
-0.01291143405
-0.02445078082
-0.04301951832
-0.0713816031
-0.1131152545
-0.1727408094
-0.2553176078
-0.3662786777
-0.5112729866
-0.6965151029
-0.9252578339
-1.202315515
-1.529880547
-1.906542068
-2.331100734
-2.799945106
-3.307885113
-3.84843369
-4.414067413
-4.996051837
-5.586361974
-6.176911951
-6.760693057
-7.332280587
-7.88075217
-8.40424892
-8.896866992
-9.354118581
-9.774307508
-10.1584591
-10.50974846
-10.83273308
-11.12900219
-11.39370269
-11.61973958
-11.79982736
-11.92914712
-12.00808835
-12.04149083
-12.0363341
-11.99884932
-11.93323729
-11.84196452
-11.7265315
-11.58819596
-11.42860182
-11.25024348
-11.05514345
-10.84398334
-10.61890675
-10.38116041
-10.1320999
-9.873191044
-9.605670245
-9.330746378
-9.049660165
-8.763499356
-8.473725798
-8.181051534
-7.886029279
-7.588705031
-7.290104963
-6.990928939
-6.692363002
-6.394833825
-6.098377669
-5.802656866
-5.508430848
-5.217250969
-4.929349078
-4.645209449
-4.364286145
-4.087711253
-3.817482822
-3.555409639
-3.300878956
-3.052042018
-2.812223052
-2.580193438
-2.35564243
-2.141612612
-1.9378826
-1.745452701
-1.565032879
-1.398125988
-1.24440104
-1.085323238
-0.8921401303
-1.239129808
-1.561359269
-1.947050939
-2.251441832
)


101
(
-3.742394176e-18
9.950281814e-09
4.207278734e-07
-1.794113245e-07
-3.176966961e-05
-0.0002142251953
-0.0008042670463
-0.002313532458
-0.00551058727
-0.01148342685
-0.02171699562
-0.03816708502
-0.06329211154
-0.1002693368
-0.1531672733
-0.2266112184
-0.325625778
-0.4554816864
-0.6221311265
-0.8289385084
-1.080682261
-1.379912947
-1.725920355
-2.118171381
-2.553946777
-3.028979893
-3.537798114
-4.073869746
-4.629342234
-5.196848096
-5.768856025
-6.338865751
-6.901927008
-7.447626778
-7.974116707
-8.475791879
-8.948160324
-9.388488717
-9.795765608
-10.17149571
-10.52005707
-10.84498998
-11.1442648
-11.41315567
-11.64480021
-11.83231821
-11.97282334
-12.06790566
-12.12286233
-12.14375036
-12.1354334
-12.10095306
-12.04198184
-11.95955127
-11.85482203
-11.72964795
-11.58584155
-11.42415713
-11.24624578
-11.05313575
-10.84619038
-10.62665828
-10.39573062
-10.15448189
-9.903981712
-9.645223163
-9.379308067
-9.107235077
-8.829850951
-8.54736131
-8.260647172
-7.970333598
-7.677567427
-7.383111216
-7.087312968
-6.789852502
-6.490979473
-6.19223665
-5.894375793
-5.598070314
-5.303114954
-5.00999284
-4.720444006
-4.436665865
-4.159357404
-3.886488051
-3.61977122
-3.360336733
-3.107547352
-2.862121786
-2.625776776
-2.401350572
-2.188177206
-1.987011165
-1.800284267
-1.604725483
-1.366817126
-1.77608398
-2.122304924
-2.464882701
-2.684869132
)


101
(
-3.686813479e-18
8.79544551e-09
4.27379499e-07
2.360064799e-07
-2.724011689e-05
-0.0001895524801
-0.0007160203203
-0.002060812982
-0.004904408425
-0.01020455532
-0.01927191325
-0.03383253221
-0.05606923231
-0.08880109271
-0.1356808153
-0.2009211382
-0.2891528802
-0.4052766103
-0.5549465686
-0.7415896984
-0.9698849286
-1.242656821
-1.559770297
-1.921235098
-2.325134094
-2.768013394
-3.245330572
-3.751483011
-4.279478728
-4.822549694
-5.373660936
-5.926807235
-6.477533012
-7.015905295
-7.540093354
-8.044784533
-8.525666371
-8.979529406
-9.403926536
-9.798801852
-10.16752888
-10.51440763
-10.83946768
-11.14060098
-11.41251788
-11.647796
-11.84130233
-11.99133444
-12.10083681
-12.17477867
-12.21817062
-12.23470028
-12.22652561
-12.19469719
-12.14009178
-12.06398736
-11.96790722
-11.85270616
-11.71955916
-11.56909972
-11.40255728
-11.22120071
-11.02617491
-10.81849579
-10.59909588
-10.36878819
-10.12841835
-9.878800487
-9.620977707
-9.355488375
-9.083213719
-8.804753642
-8.521416447
-8.234054269
-7.94340624
-7.649251015
-7.351336421
-7.050944893
-6.749313307
-6.447552588
-6.145961575
-5.844489821
-5.544250747
-5.247579672
-4.956218722
-4.669010888
-4.386108795
-4.109163642
-3.838256661
-3.572961283
-3.314567047
-3.067981258
-2.832489424
-2.607597009
-2.396551924
-2.174111944
-1.90370941
-2.308025676
-2.596515284
-2.782121883
-2.810478148
)


101
(
-3.631312503e-18
7.532104909e-09
4.286105354e-07
5.786943416e-07
-2.325057218e-05
-0.000167479547
-0.0006367980426
-0.001834042748
-0.004361139375
-0.009060274111
-0.01708668202
-0.02996339424
-0.04962481154
-0.07856953519
-0.1200695227
-0.1779473498
-0.2564566684
-0.3601366302
-0.4943147718
-0.6624392336
-0.8690087176
-1.117051311
-1.406898847
-1.739009831
-2.112175862
-2.523634448
-2.969668001
-3.445517253
-3.945034689
-4.462053839
-4.989997942
-5.523266921
-6.057849365
-6.584318924
-7.100856707
-7.602424759
-8.08496643
-8.545169877
-8.979693137
-9.38708835
-9.769482759
-10.131098
-10.47303558
-10.79543976
-11.09516877
-11.36552732
-11.60046554
-11.79552815
-11.95097561
-12.06992249
-12.15697367
-12.21610853
-12.2499919
-12.2600543
-12.24711561
-12.21205703
-12.15594907
-12.07994412
-11.98484514
-11.87081637
-11.73858557
-11.58957361
-11.42511259
-11.24597702
-11.05307376
-10.84748367
-10.6294575
-10.39987724
-10.15916744
-9.908483533
-9.648900913
-9.380890141
-9.10624178
-8.825886699
-8.541158717
-8.252216235
-7.957813943
-7.659156271
-7.357612877
-7.05488861
-6.752501152
-6.449794663
-6.147151567
-5.846656338
-5.55092196
-5.259712444
-4.972854918
-4.691553109
-4.415427422
-4.144344858
-3.879193554
-3.625100012
-3.381874134
-3.148798285
-2.928129765
-2.694062494
-2.406077987
-2.702624456
-2.827079628
-2.734854573
-2.457689023
)


101
(
-3.57589127e-18
6.191382991e-09
4.252010898e-07
8.570465385e-07
-1.974673969e-05
-0.0001477595942
-0.0005657480233
-0.001630730956
-0.003874688319
-0.00803738341
-0.01513536297
-0.02651225026
-0.04387939336
-0.06944826219
-0.1061437282
-0.1574212351
-0.2271728643
-0.3195869826
-0.4396406613
-0.5907518942
-0.7771943416
-1.00213003
-1.266274503
-1.570412084
-1.913965379
-2.294766961
-2.709776736
-3.154963254
-3.625002837
-4.114377233
-4.617003077
-5.127566872
-5.642302187
-6.152354871
-6.655915594
-7.148215251
-7.625457481
-8.084431698
-8.52132491
-8.933559372
-9.322089629
-9.690379391
-10.03982066
-10.37222709
-10.68666104
-10.97781824
-11.23989257
-11.46681526
-11.65633274
-11.80914963
-11.92885609
-12.01923637
-12.0832487
-12.12283356
-12.13903387
-12.13252705
-12.10393654
-12.05476816
-11.98579695
-11.89676825
-11.78781919
-11.65991041
-11.5149184
-11.35322065
-11.17616558
-10.98526526
-10.78049263
-10.56235509
-10.33062308
-10.08722083
-9.833213497
-9.568912505
-9.296976097
-9.018055505
-8.734675697
-8.4483616
-8.156637835
-7.860110065
-7.559120696
-7.257384488
-6.957334049
-6.658452247
-6.361036464
-6.065173991
-5.774665747
-5.490907765
-5.213109422
-4.942455268
-4.677488318
-4.416802149
-4.163709409
-3.920760266
-3.689332322
-3.467670726
-3.257323046
-3.030636296
-2.744896897
-2.813523771
-2.665503658
-2.187506507
-1.627304101
)


101
(
-3.520549843e-18
4.801252843e-09
4.178604014e-07
1.078720787e-06
-1.667893079e-05
-0.0001301667064
-0.0005020918286
-0.001448607534
-0.00343950613
-0.007123900542
-0.01339456622
-0.02343630129
-0.03876128832
-0.06132376346
-0.09373317284
-0.1391016449
-0.2009731843
-0.2831954558
-0.3903803241
-0.5258506054
-0.6936594393
-0.8970224016
-1.136985546
-1.414505306
-1.729564224
-2.08052941
-2.464854816
-2.879106396
-3.318763581
-3.778987977
-4.254204016
-4.7393469
-5.230741624
-5.720028559
-6.205426066
-6.682453674
-7.147523639
-7.597578539
-8.028631198
-8.437288847
-8.823343026
-9.189373014
-9.536449877
-9.867234991
-10.18267149
-10.4792083
-10.75215106
-10.99483112
-11.20315608
-11.37539829
-11.51351564
-11.62050105
-11.69939205
-11.75240217
-11.78103338
-11.7861585
-11.76760778
-11.72742623
-11.66682042
-11.58551447
-11.4826759
-11.35870293
-11.21549294
-11.05342184
-10.87527487
-10.6812532
-10.47318624
-10.25120729
-10.01414959
-9.764335378
-9.502296449
-9.229394939
-8.948182836
-8.659679931
-8.367472565
-8.075085982
-7.78152041
-7.483258024
-7.181760435
-6.880205645
-6.582262008
-6.290354035
-6.005269408
-5.722446369
-5.447476401
-5.182921271
-4.929097696
-4.685269422
-4.451520667
-4.220921338
-4.001071772
-3.792483932
-3.596214629
-3.410164579
-3.234319145
-3.038403012
-2.780241543
-2.50083411
-1.996763322
-1.065721123
-0.1862436711
)


101
(
-3.465288038e-18
3.386691124e-09
4.072361649e-07
1.250689997e-06
-1.400171992e-05
-0.000114494205
-0.0004451187207
-0.001285604783
-0.003050522026
-0.006308904788
-0.01184316256
-0.02069702763
-0.03420585391
-0.05409366554
-0.08268395762
-0.1227701023
-0.1775610416
-0.2505743713
-0.3460513822
-0.4671392714
-0.6177185452
-0.8009687625
-1.018220327
-1.270461776
-1.558128064
-1.880099953
-2.234193441
-2.617418079
-3.025997422
-3.455762016
-3.901595526
-4.35870122
-4.823491188
-5.28793103
-5.750227969
-6.20623767
-6.65250581
-7.086029555
-7.502770577
-7.898862571
-8.273169256
-8.62732904
-8.961521805
-9.278678605
-9.58112453
-9.86699288
-10.1331159
-10.37307399
-10.58191779
-10.75576609
-10.89465835
-11.00030118
-11.07538254
-11.12212095
-11.1423599
-11.1374951
-11.10663182
-11.05241852
-10.97620552
-10.87867123
-10.75836755
-10.61488652
-10.4491327
-10.26226308
-10.05821687
-9.836404237
-9.601416431
-9.352474852
-9.088539392
-8.810583141
-8.520808026
-8.221321248
-7.913621708
-7.599753741
-7.284400423
-6.972082646
-6.66405557
-6.358859357
-6.053655455
-5.75012271
-5.452862379
-5.170710019
-4.90289642
-4.643290514
-4.395675904
-4.164288372
-3.952903078
-3.754940498
-3.575846153
-3.399981231
-3.236958657
-3.091279553
-2.958170928
-2.836128189
-2.724112475
-2.586592589
-2.38520846
-1.662702556
-0.7747908819
0.6039291854
1.67267061
)


101
(
-3.410105917e-18
1.969878365e-09
3.939046331e-07
1.379289449e-06
-1.167366048e-05
-0.0001005533276
-0.0003941808088
-0.001139843391
-0.002703103634
-0.005582377099
-0.01046205845
-0.0182599043
-0.03015512777
-0.0476655782
-0.07285534756
-0.1082233331
-0.1566585832
-0.2213608598
-0.3062078047
-0.4141226521
-0.5488079394
-0.7133473481
-0.9092682984
-1.13756187
-1.398949525
-1.692813133
-2.017253701
-2.369558588
-2.746598376
-3.144811838
-3.559480569
-3.986115397
-4.421300657
-4.85715156
-5.29173883
-5.721262608
-6.142382658
-6.552044611
-6.946179673
-7.320660075
-7.673591117
-8.005694678
-8.316088201
-8.607393721
-8.882687243
-9.141475935
-9.382313006
-9.5995871
-9.788151701
-9.942739973
-10.06153216
-10.14455625
-10.19382792
-10.21124838
-10.1986306
-10.15759806
-10.08717966
-9.9907469
-9.869127513
-9.72443352
-9.556915805
-9.363329005
-9.14464321
-8.902282041
-8.640660903
-8.360031411
-8.06639597
-7.760012328
-7.439964372
-7.106365534
-6.764404609
-6.413682621
-6.056911936
-5.697713123
-5.34047947
-4.990554778
-4.655103171
-4.333395501
-4.018984846
-3.712103657
-3.417327726
-3.147246292
-2.903472887
-2.678918786
-2.477183833
-2.294310758
-2.147260863
-2.020647776
-1.924560025
-1.834577431
-1.758620505
-1.708699364
-1.673371106
-1.650264148
-1.635513139
-1.588622489
-1.478409853
-0.2692729538
0.9413134175
2.660999371
3.525024178
)


101
(
-3.355003545e-18
5.7037193e-10
3.783893178e-07
1.470263088e-06
-9.65697785e-06
-8.817177413e-05
-0.0003486876085
-0.001009616239
-0.002393054086
-0.004935233312
-0.009233959827
-0.01609378807
-0.02655689678
-0.04195654688
-0.06412123045
-0.09527909408
-0.1380159995
-0.1952267273
-0.2704390144
-0.3663408082
-0.4864151623
-0.6336183857
-0.8095157827
-1.015185931
-1.251432444
-1.518099059
-1.81357385
-2.135282408
-2.480564238
-2.846387496
-3.228404175
-3.62241503
-4.025230808
-4.429151125
-4.831948134
-5.230006272
-5.620095786
-5.999025448
-6.362610643
-6.706573857
-7.028503422
-7.328286458
-7.603860228
-7.857070932
-8.09113466
-8.306515495
-8.503336636
-8.67712167
-8.823090909
-8.935184408
-9.010190514
-9.046314867
-9.0445442
-9.006548486
-8.933659302
-8.827004862
-8.685798081
-8.513997341
-8.312355743
-8.084419822
-7.832566212
-7.552093985
-7.244276658
-6.910059796
-6.552696882
-6.176111412
-5.785851104
-5.384820055
-4.97381104
-4.552865438
-4.127227178
-3.696810249
-3.2670962
-2.841146942
-2.421547608
-2.015913003
-1.636269673
-1.286015484
-0.9595469231
-0.6519045223
-0.3642933922
-0.1120030193
0.09623677145
0.2651706858
0.3998718741
0.5066323943
0.5622487215
0.5841388609
0.5611459662
0.5256695978
0.4758017018
0.3869538227
0.2873790779
0.1693263613
0.04889512743
-0.03558108051
-0.05851284828
1.602251312
2.962358321
4.799644099
5.168106091
)


101
(
-3.299980739e-18
-7.947570072e-10
3.611600667e-07
1.528806901e-06
-7.917289804e-06
-7.719238572e-05
-0.0003081013824
-0.0008933703662
-0.002116561656
-0.004359231913
-0.008142890248
-0.01417079384
-0.02336367552
-0.03689092574
-0.05636682312
-0.08377185582
-0.1214069168
-0.1718729933
-0.2383642953
-0.3233396018
-0.4300261473
-0.5612188875
-0.7184122715
-0.9027759175
-1.115067844
-1.355490664
-1.622784705
-1.914472755
-2.228095429
-2.561000729
-2.909236452
-3.268872641
-3.636870935
-4.005910321
-4.373384265
-4.735553833
-5.089272589
-5.431199014
-5.756902023
-6.062028507
-6.343770571
-6.601254064
-6.831225911
-7.034455681
-7.213679092
-7.36973559
-7.504112282
-7.613560744
-7.694040573
-7.739149537
-7.744698555
-7.707271313
-7.626360743
-7.503922217
-7.340651621
-7.136865925
-6.891165807
-6.608210433
-6.288505668
-5.93713649
-5.557950752
-5.148860995
-4.71034465
-4.243576121
-3.747518203
-3.232963286
-2.704114215
-2.167359753
-1.626298168
-1.079475197
-0.5340456866
0.005275261601
0.53291998
1.047314715
1.546356155
2.022121103
2.458779653
2.845127462
3.182229226
3.481427753
3.751788543
3.968264834
4.119190328
4.203592772
4.233470996
4.226066204
4.151853987
4.023855393
3.833767905
3.620110013
3.395720014
3.12037711
2.838589375
2.532031882
2.232177391
1.970097049
1.763959392
3.739095937
4.964765908
6.610677763
6.14638202
)


101
(
-3.245037673e-18
-2.11081002e-09
3.426470372e-07
1.559609081e-06
-6.423369832e-06
-6.747209687e-05
-0.0002719332354
-0.0007896992436
-0.001870183513
-0.00384693479
-0.007174366071
-0.0124657934
-0.02053273435