/*--------------------------------*- C++ -*----------------------------------*\
| =========                 |                                                 |
| \\      /  F ield         | OpenFOAM: The Open Source CFD Toolbox           |
|  \\    /   O peration     | Version:  2.3.1                                 |
|   \\  /    A nd           | Web:      www.OpenFOAM.org                      |
|    \\/     M anipulation  |                                                 |
\*---------------------------------------------------------------------------*/
FoamFile
{
    version     2.0;
    format      ascii;
    class       dictionary;
    location    "constant";
    object      rC2H3;
}
// * * * * * * * * * * * * * * * * * * * * * * * * * * * * * * * * * * * * * //

rC2H3_table
101
(

101
(
-7.645249902e-22
-1.860585409e-12
-1.258401521e-09
-4.557465583e-08
-5.045826665e-07
-2.888682193e-06
-1.123190583e-05
-3.663671679e-05
-0.0001021828693
-0.0002527824371
-0.0005604877276
-0.001126235603
-0.00205948505
-0.003475549681
-0.005422731001
-0.00788079372
-0.01074071809
-0.01376482469
-0.01680892348
-0.01943707964
-0.02160865391
-0.02321006084
-0.02402775917
-0.0241744922
-0.02375217633
-0.02286573303
-0.02164082688
-0.0201895653
-0.01860105064
-0.01696266714
-0.01533591805
-0.01376283154
-0.01225506475
-0.01087449904
-0.009601809377
-0.008444548573
-0.008728510076
-0.01010974456
-0.008830053564
-0.007707845446
-0.006720164256
-0.005827262507
-0.005047835727
-0.004361989022
-0.003751157374
-0.00322116534
-0.002753418923
-0.00235028631
-0.00199794378
-0.001695263404
-0.001432271904
-0.001206026382
-0.001010300051
-0.0008419687471
-0.0006999720551
-0.0005782792657
-0.0004780421714
-0.0003910527424
-0.0003194504937
-0.000258857362
-0.0002091692234
-0.0001675739475
-0.0001325704108
-0.0001035910745
-8.119521845e-05
-6.3012393e-05
-4.840848326e-05
-3.685385323e-05
-2.781352473e-05
-2.070844629e-05
-1.525165844e-05
-1.1085433e-05
-8.010711417e-06
-5.689918339e-06
-6.135138259e-06
-5.790338242e-06
-3.871754982e-06
-2.557629369e-06
-1.651311432e-06
-1.027300781e-06
-6.168851286e-07
-3.713104785e-07
-2.127725588e-07
-2.073163665e-07
-1.694611523e-07
-8.771073241e-08
-4.360375427e-08
-2.068925883e-08
-9.366745472e-09
-9.626844663e-09
-4.30766022e-09
-1.454861647e-09
-4.607213733e-10
-2.646109844e-10
-1.050447458e-10
-2.418034987e-11
4.772537145e-17
-1.949430865e-35
-2.86720886e-27
2.197783926e-27
0
)


101
(
-7.549871719e-22
1.422104992e-11
-6.402551586e-10
-3.762150702e-08
-4.419181185e-07
-2.553621562e-06
-9.89930919e-06
-3.208368246e-05
-8.886381864e-05
-0.0002181793119
-0.0004801755864
-0.0009577448326
-0.001739829382
-0.002915215651
-0.004520818239
-0.006533324992
-0.008856932916
-0.01129636782
-0.01372985905
-0.01581846439
-0.01750689858
-0.01871510396
-0.01929834963
-0.01932466936
-0.01888530803
-0.01807052022
-0.016985126
-0.01572674819
-0.01437138409
-0.01298956167
-0.01163361054
-0.01033820285
-0.009111456439
-0.007977736833
-0.006930576534
-0.00593592895
-0.005494702878
-0.005726101496
-0.005301165077
-0.004591625065
-0.003923835405
-0.003333695375
-0.002826077354
-0.002390720543
-0.002014803178
-0.001693907836
-0.001419111799
-0.00118518401
-0.000986711504
-0.0008190000227
-0.0006775758819
-0.0005586278556
-0.0004586492455
-0.0003732149917
-0.0003021987519
-0.0002440712509
-0.0001969360264
-0.0001582066023
-0.0001265583051
-0.0001007623432
-7.982339772e-05
-6.292998884e-05
-4.921536387e-05
-3.802189303e-05
-2.911383518e-05
-2.231831266e-05
-1.697068535e-05
-1.279496726e-05
-9.521136818e-06
-7.038305613e-06
-5.153049562e-06
-3.727849197e-06
-2.674213092e-06
-1.852327879e-06
-1.33746139e-06
-1.007906333e-06
-7.008371594e-07
-4.644874492e-07
-3.013375337e-07
-1.903278512e-07
-1.172146866e-07
-6.951260517e-08
-4.021261476e-08
-2.317716806e-08
-1.34041841e-08
-7.380946071e-09
-3.92584449e-09
-1.914272819e-09
-8.793843042e-10
-4.052260502e-10
-1.713069315e-10
-6.938488931e-11
-2.992090145e-11
-1.058829949e-11
-4.283348065e-12
-1.727257989e-12
-2.41519382e-13
-5.359342243e-13
-1.115315491e-12
-3.13241492e-12
-1.405879859e-10
)


101
(
-7.453900737e-22
2.666837429e-11
-1.139712085e-10
-3.068261049e-08
-3.867920506e-07
-2.259988566e-06
-8.744182932e-06
-2.818590856e-05
-7.761549336e-05
-0.0001893860764
-0.0004143802317
-0.0008219565435
-0.001486584698
-0.002479674767
-0.003832946376
-0.005526728521
-0.007481296827
-0.009537990809
-0.01159419054
-0.01338404026
-0.01484136443
-0.0159014166
-0.01645907062
-0.01654879058
-0.01624134449
-0.01561039137
-0.01474034569
-0.0137139073
-0.01259746505
-0.01144912611
-0.01031572596
-0.009229847177
-0.00819781223
-0.00723832081
-0.0063307108
-0.005463460508
-0.004897101912
-0.00464287159
-0.004304519792
-0.003822613486
-0.003317330444
-0.002845635928
-0.002438986433
-0.002089857554
-0.001785995961
-0.001524966152
-0.001301387563
-0.00110801262
-0.0009426825962
-0.0008005477715
-0.0006789156453
-0.0005745991186
-0.0004859901456
-0.0004101109474
-0.0003448121358
-0.0002892238921
-0.000241607824
-0.0002017802688
-0.0001680644904
-0.0001395093964
-0.0001155324403
-9.527039916e-05
-7.801971953e-05
-6.364692402e-05
-5.175336776e-05
-4.194379577e-05
-3.368124092e-05
-2.682435734e-05
-2.125587558e-05
-1.664795285e-05
-1.295782581e-05
-9.897805981e-06
-7.564840126e-06
-5.698074287e-06
-4.222098185e-06
-3.082880231e-06
-2.214009506e-06
-1.572274667e-06
-1.108433234e-06
-7.651019532e-07
-5.201524299e-07
-3.434050797e-07
-2.239574658e-07
-1.402769439e-07
-8.512903139e-08
-4.952169018e-08
-2.89095945e-08
-1.68904894e-08
-9.318839076e-09
-4.851100748e-09
-2.467977341e-09
-1.184998908e-09
-6.082014622e-10
-2.857470817e-10
-1.333293278e-10
-5.875996003e-11
-1.224850166e-11
-3.338708971e-11
-7.887721275e-11
-2.312822501e-10
-1.075721532e-09
)


101
(
-7.357336273e-22
3.591759974e-11
3.30556641e-10
-2.464130578e-08
-3.382817437e-07
-2.002290895e-06
-7.740577721e-06
-2.483846482e-05
-6.807589391e-05
-0.0001653001536
-0.0003601320442
-0.0007117025572
-0.00128422602
-0.002137938393
-0.0033031371
-0.004767304158
-0.006467690277
-0.008277003878
-0.01010883396
-0.01175291544
-0.01313570631
-0.01419721462
-0.01485284862
-0.01511074529
-0.01501711727
-0.01462903837
-0.01401113203
-0.01323039862
-0.01234598397
-0.01140704434
-0.01045600243
-0.00952946941
-0.008632322114
-0.007789392397
-0.006967252321
-0.006089665363
-0.005550461646
-0.005101340445
-0.004670686882
-0.004239389722
-0.003787045975
-0.003345772898
-0.002949983487
-0.002597837912
-0.002283722984
-0.002008112833
-0.001765577322
-0.001551195279
-0.001360872069
-0.001192862301
-0.001043083
-0.0009102388361
-0.0007934927887
-0.0006906110625
-0.0005996130623
-0.0005205695805
-0.0004487232321
-0.0003863325536
-0.0003317188322
-0.0002834554366
-0.000241694704
-0.0002053881339
-0.0001735372823
-0.0001460442711
-0.000122436647
-0.0001020375634
-8.457243535e-05
-6.92515307e-05
-5.664360569e-05
-4.602113807e-05
-3.712348751e-05
-2.952431583e-05
-2.336855005e-05
-1.829837932e-05
-1.414738587e-05
-1.081594711e-05
-8.140734283e-06
-6.025700593e-06
-4.416815512e-06
-3.20821163e-06
-2.308982678e-06
-1.615652564e-06
-1.115289373e-06
-7.51256848e-07
-4.956862637e-07
-3.169623517e-07
-1.95996593e-07
-1.209759701e-07
-7.365419496e-08
-4.292353678e-08
-2.399784114e-08
-1.308314609e-08
-7.037950091e-09
-3.790990846e-09
-1.963879891e-09
-9.373809438e-10
-2.516097671e-10
-8.075266386e-10
-2.010328849e-09
-5.847064014e-09
-1.306349184e-07
)


101
(
-7.260177641e-22
4.236567557e-11
7.024111908e-10
-1.939435251e-08
-2.955820648e-07
-1.775809273e-06
-6.86660052e-06
-2.195442591e-05
-5.995074086e-05
-0.0001450418845
-0.0003151059513
-0.000621470518
-0.001121041807
-0.001867044789
-0.002890613049
-0.004188042477
-0.005713311451
-0.007366326016
-0.009075073646
-0.01067164152
-0.01207855772
-0.01323558338
-0.01406755859
-0.01455968106
-0.01473437991
-0.0146299519
-0.01429215031
-0.01377364837
-0.01312601913
-0.01239148855
-0.01160469695
-0.0108128634
-0.01001769533
-0.009259619862
-0.008507622065
-0.007730565562
-0.007082725061
-0.006526694421
-0.006008834382
-0.005517916215
-0.005037808617
-0.004568967899
-0.004134666061
-0.003733524582
-0.003362867121
-0.003027118943
-0.002722256503
-0.002445341841
-0.002192049166
-0.00196398262
-0.001755086093
-0.001563966503
-0.001390822555
-0.001235565693
-0.001095069581
-0.0009676623543
-0.0008531165673
-0.0007502552036
-0.0006583625163
-0.0005735796823
-0.0004984477228
-0.0004324284535
-0.0003731961065
-0.0003213103922
-0.0002758708871
-0.0002347918688
-0.0001989547869
-0.0001675276162
-0.0001404125505
-0.0001173648461
-9.687623302e-05
-7.943296045e-05
-6.466765263e-05
-5.236816639e-05
-4.196835649e-05
-3.331803406e-05
-2.597354037e-05
-2.011933188e-05
-1.538646467e-05
-1.16300441e-05
-8.734909258e-06
-6.403984762e-06
-4.644492618e-06
-3.313974899e-06
-2.323181979e-06
-1.585408572e-06
-1.056304583e-06
-6.907892363e-07
-4.485788771e-07
-2.842717204e-07
-1.728949318e-07
-1.030055957e-07
-5.979785885e-08
-3.439927844e-08
-1.977519117e-08
-1.024481776e-08
-3.500121776e-09
-1.109654551e-08
-2.74520849e-08
-8.20193115e-08
-1.821371762e-07
)


101
(
-7.16242414e-22
4.637383706e-11
1.009760029e-09
-1.485032232e-08
-2.579897282e-07
-1.576482244e-06
-6.103744183e-06
-1.946165976e-05
-5.300042393e-05
-0.0001279085676
-0.0002774793127
-0.0005470237873
-0.0009881914689
-0.001650000124
-0.002565717906
-0.003741031508
-0.005146005464
-0.006704416861
-0.008357554031
-0.00997061922
-0.01146515043
-0.01277881281
-0.01383993514
-0.01461307469
-0.01509818698
-0.01531466243
-0.01528886792
-0.01505930089
-0.01466968487
-0.0141564882
-0.01355171558
-0.012891826
-0.01219267017
-0.01150867145
-0.01080784605
-0.01008370456
-0.00939877615
-0.008763760762
-0.00816206831
-0.007590662216
-0.007040069567
-0.006506225276
-0.006002461863
-0.0055263321
-0.00507195603
-0.004644687359
-0.004245690431
-0.003878270483
-0.003537456449
-0.003222977102
-0.002928420491
-0.002651279332
-0.002393482349
-0.002158567511
-0.001944594576
-0.001745333659
-0.001562102781
-0.001395767341
-0.001247347539
-0.001106849499
-0.0009763694721
-0.0008622987614
-0.0007566882956
-0.000662946994
-0.0005804167639
-0.0005047308685
-0.0004368412382
-0.000376086074
-0.000321068019
-0.000275347484
-0.0002331122974
-0.0001960797124
-0.0001635089799
-0.0001358772886
-0.0001119890819
-9.155744482e-05
-7.416380132e-05
-5.959537252e-05
-4.706877625e-05
-3.687647889e-05
-2.862232759e-05
-2.210277504e-05
-1.671522341e-05
-1.252503041e-05
-9.218298316e-06
-6.687578954e-06
-4.713062868e-06
-3.286897283e-06
-2.244268146e-06
-1.515768867e-06
-1.000410177e-06
-6.375273131e-07
-4.029307469e-07
-2.487481092e-07
-1.525895582e-07
-8.467766878e-08
-3.469870968e-08
-1.101330725e-07
-2.668968492e-07
-8.033509732e-07
-2.761731206e-06
)


101
(
-7.06407514e-22
4.827066437e-11
1.259950993e-09
-1.092819742e-08
-2.248898077e-07
-1.400809103e-06
-5.436332634e-06
-1.730010622e-05
-4.702898984e-05
-0.0001133354203
-0.000245811803
-0.0004850693127
-0.0008789131345
-0.001474007755
-0.002306423112
-0.003391159168
-0.004713561963
-0.006218662095
-0.007860505195
-0.009531165128
-0.0111537833
-0.01266388637
-0.01399124786
-0.01508170254
-0.01591367284
-0.01648909218
-0.01681488065
-0.01691326908
-0.01681894922
-0.01656303384
-0.01617463237
-0.01568223981
-0.01510365629
-0.01450852483
-0.01387216563
-0.01319656535
-0.01250917191
-0.01182964665
-0.01116385425
-0.0105178484
-0.009888338861
-0.009270405181
-0.008678276137
-0.008111250295
-0.00755770649
-0.007019458981
-0.00650162691
-0.006019828103
-0.005570223519
-0.00514604847
-0.004745521622
-0.004357663171
-0.003987653475
-0.003643011226
-0.003329536752
-0.003031441737
-0.002749122482
-0.002490476192
-0.002254356151
-0.00203110842
-0.001822951375
-0.001636245595
-0.001461245397
-0.00129926848
-0.001154660062
-0.001022330292
-0.000900917605
-0.0007907792324
-0.0006890495587
-0.0005995265893
-0.0005188884366
-0.0004469824975
-0.0003823063998
-0.0003254030655
-0.0002749647584
-0.0002305620628
-0.0001925122361
-0.0001592266739
-0.0001300314405
-0.0001052985392
-8.440528374e-05
-6.755286299e-05
-5.320693411e-05
-4.146303347e-05
-3.197089056e-05
-2.428178194e-05
-1.809644445e-05
-1.324585691e-05
-9.576998968e-06
-6.849356828e-06
-4.787584324e-06
-3.26724338e-06
-2.19692442e-06
-1.452310661e-06
-9.495690515e-07
-5.696871375e-07
-2.676957394e-07
-8.715324834e-07
-2.066640567e-06
-5.653730288e-06
-5.607581322e-06
)


101
(
-6.965129882e-22
4.835487151e-11
1.459598305e-09
-7.556133306e-09
-1.957442767e-07
-1.245772626e-06
-4.851104837e-06
-1.54198601e-05
-4.18761254e-05
-0.000100868051
-0.0002189648816
-0.000433045051
-0.0007880349744
-0.00132942227
-0.002096358821
-0.003112669603
-0.004378030861
-0.005856742639
-0.0075154611
-0.009269012792
-0.01104453274
-0.01277625053
-0.01439510904
-0.01583114369
-0.01704154189
-0.01801310896
-0.01873527712
-0.01921201076
-0.01946594495
-0.01952178706
-0.01940568327
-0.01914016479
-0.01873698461
-0.01827384902
-0.01774210102
-0.0171487107
-0.01650176812
-0.01582156063
-0.01513118151
-0.01443699263
-0.01374233022
-0.01304030961
-0.01235671274
-0.01169370442
-0.01103732966
-0.01038520133
-0.009737400005
-0.009118794257
-0.008537480552
-0.00798181148
-0.007453380088
-0.006929049988
-0.006423029945
-0.005943175607
-0.005497606212
-0.005070647229
-0.004662658849
-0.004277888593
-0.003920085512
-0.003576582517
-0.003251639165
-0.002956748305
-0.002678858437
-0.002419671549
-0.002180383982
-0.001959463837
-0.001752187997
-0.001565163698
-0.001390032173
-0.001231312566
-0.001087334054
-0.0009541724883
-0.0008326860678
-0.0007230420733
-0.0006251693212
-0.0005362030127
-0.0004583737559
-0.0003891224782
-0.0003280825884
-0.0002742775333
-0.0002265611566
-0.0001858208694
-0.0001517887077
-0.0001222165797
-9.787263914e-05
-7.751516476e-05
-6.026161379e-05
-4.619822898e-05
-3.50432196e-05
-2.625210487e-05
-1.934372477e-05
-1.394244397e-05
-9.980788654e-06
-7.016408446e-06
-4.883041492e-06
-3.191739395e-06
-1.700592912e-06
-5.144275533e-06
-1.162877523e-05
-2.949809557e-05
-3.007088844e-05
)


101
(
-6.865587756e-22
4.689786113e-11
1.614657688e-09
-4.670391025e-09
-1.700817761e-07
-1.108765106e-06
-4.336806655e-06
-1.377936127e-05
-3.741038119e-05
-9.014013505e-05
-0.0001960359595
-0.0003889560798
-0.0007115950338
-0.001208973695
-0.001923335111
-0.002886626816
-0.004111792592
-0.005580810545
-0.007273051181
-0.009123551114
-0.01106576723
-0.01303383029
-0.01496011674
-0.01676376597
-0.01838064844
-0.01978416222
-0.02095034598
-0.0218646474
-0.02253355978
-0.02297231436
-0.02320355546
-0.02324690415
-0.02310407689
-0.02284724926
-0.0224878988
-0.02203587647
-0.021485842
-0.0208606115
-0.02020347523
-0.01950928488
-0.01879086026
-0.01804477274
-0.01728825472
-0.01653306672
-0.01577523596
-0.01501456482
-0.01424325188
-0.0134863973
-0.01276940099
-0.01207014993
-0.01138499179
-0.01070214936
-0.01003880518
-0.009386299901
-0.008778514337
-0.008199478803
-0.007628953995
-0.007079828304
-0.006563848825
-0.006063507035
-0.005582903272
-0.005139661582
-0.004709878292
-0.004310046682
-0.003935599341
-0.003588837996
-0.003261941021
-0.002956815493
-0.002668572911
-0.00239444895
-0.002146038109
-0.001911768506
-0.001702623572
-0.001509708281
-0.001330148156
-0.001165347793
-0.001016763885
-0.0008813418667
-0.0007601865733
-0.0006506552312
-0.0005538850145
-0.0004657438418
-0.0003915751682
-0.000324581597
-0.0002684395963
-0.0002187733935
-0.000177062149
-0.0001411878243
-0.0001114850425
-8.704155997e-05
-6.700175703e-05
-5.088927558e-05
-3.825919615e-05
-2.834623658e-05
-2.080067283e-05
-1.455327945e-05
-8.719945963e-06
-2.384029826e-05
-5.085035281e-05
-0.0001179267624
-0.0002424766024
)


101
(
-6.765447966e-22
4.414598921e-11
1.73049462e-09
-2.214383785e-09
-1.474890058e-07
-9.875261377e-07
-3.883826923e-06
-1.234373381e-05
-3.352346116e-05
-8.085477863e-05
-0.0001763052507
-0.0003512366965
-0.0006465323556
-0.001107130807
-0.001778197044
-0.002698986061
-0.003894580341
-0.005363287005
-0.007097389326
-0.009050675917
-0.01116533332
-0.01337697022
-0.01561884959
-0.01780675816
-0.01985597082
-0.02172736297
-0.02338647119
-0.02480126147
-0.02595902889
-0.02686134233
-0.02752475081
-0.02796981317
-0.02819225351
-0.02824442375
-0.02814604532
-0.02791977403
-0.02755596404
-0.02707647381
-0.02654396852
-0.02593085304
-0.02525170073
-0.0245081651
-0.02372322901
-0.02290882383
-0.02207560325
-0.02123144574
-0.02036205628
-0.01949453884
-0.01864919119
-0.01780200444
-0.01695841769
-0.01611767939
-0.01528529113
-0.01445137071
-0.0136568886
-0.01288040029
-0.01212277385
-0.01136020329
-0.01064464867
-0.009950362376
-0.009264435571
-0.008629236224
-0.008002720254
-0.007412240761
-0.006851292144
-0.006320062005
-0.00581886667
-0.005336856816
-0.004878506724
-0.004443543574
-0.004041435157
-0.003660233136
-0.003301546038
-0.002969799659
-0.00266161709
-0.002377613789
-0.002110631751
-0.001862790705
-0.001641313154
-0.001433894001
-0.001244141493
-0.001074549474
-0.0009221319129
-0.0007877251997
-0.0006665496052
-0.0005588099446
-0.0004672439558
-0.0003849897843
-0.0003146366688
-0.0002536259813
-0.0002025352492
-0.0001602465201
-0.0001254783713
-9.739494321e-05
-7.493809276e-05
-5.534691209e-05
-3.655889947e-05
-9.046175189e-05
-0.0001812307345
-0.0003817176102
-0.001105940281
)


101
(
-6.664709976e-22
4.032262433e-11
1.811944754e-09
-1.37847722e-10
-1.276036767e-07
-8.800974558e-07
-3.483946124e-06
-1.108358395e-05
-3.012618581e-05
-7.277230439e-05
-0.0001592000013
-0.0003186573161
-0.0005904760106
-0.001019670508
-0.001654037216
-0.002539270324
-0.003711395815
-0.005183836445
-0.00696191291
-0.009017338137
-0.01130356419
-0.01376025371
-0.01632175236
-0.01890537611
-0.02141074782
-0.02378600448
-0.02598705171
-0.02796590824
-0.02968941332
-0.03114304542
-0.03233171263
-0.03327452351
-0.03396930471
-0.03445394237
-0.03473593609
-0.03485055833
-0.03479589118
-0.0345893222
-0.03429230153
-0.03386332507
-0.03332183781
-0.03266789623
-0.03194056356
-0.03114286518
-0.03030133959
-0.02943758153
-0.02852358902
-0.02758418251
-0.02663354308
-0.02566236538
-0.02468100445
-0.02369963497
-0.02271390052
-0.02170851003
-0.02068996325
-0.0197013721
-0.01874068597
-0.01775117601
-0.01680193708
-0.01587767849
-0.01494157088
-0.01405018331
-0.01318095786
-0.01234101487
-0.01152449922
-0.01072937818
-0.009994805072
-0.009273011688
-0.008586887284
-0.007919798583
-0.007289452782
-0.006683865596
-0.00611435514
-0.005577197757
-0.005071652018
-0.004591308668
-0.004138081294
-0.003715823863
-0.003325438682
-0.002957458622
-0.002612526526
-0.00230355498
-0.002014306293
-0.001757342658
-0.001521858201
-0.001304934748
-0.001116942911
-0.0009434468665
-0.000791720656
-0.0006606935499
-0.0005421563729
-0.0004439445915
-0.0003603005104
-0.0002898844673
-0.000231825422
-0.000179934062
-0.0001279683758
-0.000287486818
-0.0005438662486
-0.001053606736
-0.001544421826
)


101
(
-6.563436718e-22
3.562998164e-11
1.863367038e-09
1.603901852e-09
-1.101075528e-07
-7.847781085e-07
-3.130122135e-06
-9.974109946e-06
-2.714466086e-05
-6.569784909e-05
-0.0001442619555
-0.0002902508045
-0.000541590293
-0.0009433765313
-0.001545671648
-0.002399729621
-0.003551253072
-0.00502761025
-0.00684723197
-0.008999307033
-0.01145083579
-0.01414890013
-0.01703058109
-0.02001590474
-0.02299839632
-0.02591200967
-0.0287003482
-0.03130294846
-0.0336685585
-0.03576508814
-0.03758039916
-0.03912615443
-0.04040556793
-0.04146016935
-0.04227007091
-0.04287231865
-0.04327492954
-0.04349171167
-0.04357352284
-0.04346797737
-0.04320525337
-0.04277985172
-0.04224282056
-0.04159722655
-0.04087472018
-0.04010355076
-0.0392351609
-0.03829391751
-0.0373056176
-0.03627462383
-0.03520619016
-0.03411900431
-0.03301746733
-0.03186234952
-0.03063795234
-0.02948502392
-0.0283005851
-0.02708170649
-0.02585619576
-0.02468214907
-0.02347277255
-0.02228260622
-0.02110644355
-0.01994358277
-0.01881729047
-0.01769950162
-0.01662453982
-0.0155909549
-0.01459173855
-0.01360928163
-0.01266813363
-0.01175098688
-0.01087596185
-0.01003632718
-0.009232423718
-0.008455007127
-0.007722595895
-0.007040773916
-0.006376798491
-0.005754590572
-0.005169424621
-0.004626927355
-0.004119210622
-0.003654515006
-0.003218485456
-0.002811853194
-0.002453305781
-0.00212229281
-0.001820840673
-0.001555431862
-0.001308998953
-0.001102045762
-0.0009183263836
-0.0007632608208
-0.0006290848733
-0.0005066801329
-0.0003827120247
-0.0007862623775
-0.001409817477
-0.002558475387
-0.003811949478
)


101
(
-6.461723969e-22
3.025081311e-11
1.888692367e-09
3.050605323e-09
-9.47210281e-08
-7.00089452e-07
-2.816307193e-06
-8.994322438e-06
-2.451759932e-05
-5.947242287e-05
-0.0001311230689
-0.000265255232
-0.000498455216
-0.0008758056475
-0.001449224348
-0.002274659609
-0.003406230646
-0.004883991544
-0.006739513581
-0.008979127453
-0.01158474724
-0.01451464317
-0.01771076695
-0.02109536553
-0.02456304808
-0.02803737264
-0.03145193003
-0.0347353874
-0.03782085687
-0.04065679306
-0.04321018183
-0.04548177462
-0.04747945024
-0.04925480954
-0.05076079926
-0.05202651726
-0.05306237398
-0.05387575604
-0.05450625872
-0.05491410904
-0.05512087347
-0.05511698419
-0.05495425391
-0.05464261382
-0.05420980322
-0.05369184525
-0.05303233671
-0.05224308365
-0.05134786364
-0.05038031392
-0.04932856458
-0.04822608583
-0.04709093927
-0.04586419032
-0.04452998624
-0.04322952285
-0.04187029036
-0.04042316292
-0.03893917212
-0.03749810978
-0.03600885507
-0.03449708639
-0.03298247868
-0.03144387021
-0.02991049473
-0.02842696257
-0.02694504674
-0.02549707115
-0.0240969057
-0.02268453653
-0.02132624954
-0.01999668907
-0.01868554475
-0.01741523876
-0.01618374165
-0.01499211651
-0.01384473664
-0.01275221298
-0.01170604634
-0.01069330673
-0.009720339159
-0.00881017233
-0.007958074509
-0.007146232878
-0.006391741342
-0.005681102066
-0.005025556848
-0.004424601226
-0.003858874218
-0.003354084657
-0.002892222394
-0.002486650187
-0.002117215367
-0.001795387012
-0.001521244331
-0.001262742016
-0.001000770764
-0.001907844298
-0.003259977
-0.00562347076
-0.006597753382
)


101
(
-6.35941081e-22
2.434991717e-11
1.891465455e-09
4.237624624e-09
-8.119831291e-08
-6.24745774e-07
-2.537296586e-06
-8.126373684e-06
-2.219416746e-05
-5.396680161e-05
-0.000119486565
-0.0002430685009
-0.0004599696164
-0.0008150885749
-0.001361769579
-0.002159829279
-0.003270665058
-0.004745735525
-0.006629442477
-0.008944927815
-0.01168875484
-0.01483383769
-0.01833001141
-0.02210384353
-0.02605578432
-0.03010211971
-0.03417164754
-0.03818595561
-0.04206653038
-0.04573955579
-0.04914734974
-0.05227987521
-0.05515098765
-0.05781674252
-0.06020097607
-0.06232282125
-0.06418999675
-0.06580486747
-0.06719855208
-0.06835845777
-0.069282698
-0.06994981923
-0.07040704053
-0.0706728681
-0.07076277079
-0.0707202871
-0.07049849595
-0.07009211656
-0.06952019558
-0.06884735846
-0.06798505073
-0.06701101097
-0.06601454119
-0.06487056177
-0.06355401316
-0.0621806439
-0.06078387863
-0.05919675218
-0.05754895513
-0.0558782506
-0.05416620972
-0.05233908308
-0.05045805567
-0.04852084508
-0.04658102843
-0.04464572882
-0.0426736031
-0.04073795092
-0.03878388533
-0.03685405333
-0.03495271325
-0.03309633673
-0.03120505
-0.02934166125
-0.02750774267
-0.02570450295
-0.02396397034
-0.02230848422
-0.02066447466
-0.01908417114
-0.01752914217
-0.01606375124
-0.01465974272
-0.01330339352
-0.0120411845
-0.01084665339
-0.009705467058
-0.008656112105
-0.007657411382
-0.006750878401
-0.005919353634
-0.005169928532
-0.00447971904
-0.00386806125
-0.003334834703
-0.002834616905
-0.002325450062
-0.004197597727
-0.006936587658
-0.01158655202
-0.01502828103
)


101
(
-6.25649648e-22
1.807548451e-11
1.874882276e-09
5.196443403e-09
-6.932318079e-08
-5.57628887e-07
-2.288618788e-06
-7.355082755e-06
-2.01317691e-05
-4.907513347e-05
-0.0001091133173
-0.0002232153021
-0.00042528517
-0.0007598210034
-0.001281160137
-0.002052189219
-0.003140563785
-0.004607905228
-0.006510737267
-0.008889116526
-0.01175215784
-0.01509025017
-0.01886398159
-0.02300878549
-0.02743588035
-0.03205651497
-0.03679840298
-0.04157851182
-0.0463125213
-0.05091002372
-0.05528969793
-0.05942337284
-0.06332487966
-0.06705753374
-0.0705144571
-0.07370592817
-0.07663492732
-0.07930081952
-0.08173037147
-0.08392434431
-0.08586849798
-0.0875318107
-0.08894288599
-0.09010746412
-0.09102971434
-0.09176967427
-0.09229644744
-0.09258301581
-0.09265578218
-0.0925790018
-0.09219773413
-0.09163008444
-0.09104999946
-0.09024646881
-0.08920946354
-0.08803277528
-0.08679421063
-0.08530783795
-0.08361655963
-0.08185466101
-0.0800497938
-0.07803276326
-0.07580679141
-0.07351204741
-0.07120327217
-0.06876549823
-0.06630652837
-0.06374733167
-0.06121581559
-0.05864965119
-0.05605010044
-0.05351114759
-0.0508913552
-0.04826649643
-0.04562805516
-0.04296917609
-0.04042670101
-0.03791871122
-0.03543303106
-0.03303569183
-0.03060211957
-0.02827445268
-0.02605009544
-0.02387141691
-0.02175947562
-0.01978261231
-0.01792329402
-0.01611777901
-0.01443870689
-0.012887162
-0.01142096473
-0.01010938149
-0.0088600287
-0.007749416705
-0.00677769488
-0.005862949426
-0.004922533288
-0.008542010542
-0.01378801898
-0.02286119417
-0.03851107742
)


101
(
-6.152980368e-22
1.156036426e-11
1.841823932e-09
5.955106124e-09
-5.890531631e-08
-4.97765111e-07
-2.066429741e-06
-6.667509728e-06
-1.829458828e-05
-4.471038501e-05
-9.981237243e-05
-0.0002053171141
-0.0003937464411
-0.0007089604203
-0.00120586698
-0.001949648246
-0.003013177296
-0.004467011232
-0.006378645902
-0.008804229106
-0.01176473564
-0.01526988357
-0.0192947161
-0.02378532344
-0.02867003628
-0.03385944178
-0.03928023341
-0.04484520077
-0.05047043872
-0.0560608681
-0.06152437517
-0.06680692867
-0.07189722578
-0.07687711307
-0.08160757017
-0.08609665327
-0.09034238157
-0.09434318831
-0.0981278597
-0.1016923552
-0.1050346346
-0.1080788067
-0.110841986
-0.1133264296
-0.1155232494
-0.1174742883
-0.119154127
-0.1205705793
-0.1217132721
-0.1226410668
-0.1232112541
-0.1235045458
-0.123728916
-0.1236890355
-0.1233592906
-0.1227855328
-0.1220761343
-0.1210711463
-0.1196765938
-0.1181104435
-0.116378795
-0.1144293055
-0.1120832004
-0.109651075
-0.1070919438
-0.1042397657
-0.1012785231
-0.09815421571
-0.09504346615
-0.09175205761
-0.08833633439
-0.08497916123
-0.08143732966
-0.07789834579
-0.07426885153
-0.07045695233
-0.06675638475
-0.06302620213
-0.05942225052
-0.05579044483
-0.0521114579
-0.04855170454
-0.0450179088
-0.04161747582
-0.03830419558
-0.03502942623
-0.03198630652
-0.02902369981
-0.02620151674
-0.02360347078
-0.02107444663
-0.01880735877
-0.01667028305
-0.01472156302
-0.01301960783
-0.01139447042
-0.009724136767
-0.01662003174
-0.02665717926
-0.04447471387
-0.05523350501
)


101
(
-6.048861946e-22
4.923184908e-12
1.794887036e-09
6.538606862e-09
-4.977712012e-08
-4.443070152e-07
-1.867424525e-06
-6.052605564e-06
-1.665236556e-05
-4.080063976e-05
-9.143034301e-05
-0.0001890726443
-0.0003648453352
-0.0006617363966
-0.001134816372
-0.001850833473
-0.002886762208
-0.004320780074
-0.006229972584
-0.008684544545
-0.01171891204
-0.01536224434
-0.0196089938
-0.0244141507
-0.02973014566
-0.03547443726
-0.04156892302
-0.04792249017
-0.05445961661
-0.06109166858
-0.06772562792
-0.0742865194
-0.0807247574
-0.08713282506
-0.09334531063
-0.09937970762
-0.1052278802
-0.1108808339
-0.1163775109
-0.1217130295
-0.1268608056
-0.1317340343
-0.1363554888
-0.140678528
-0.1446745146
-0.1483878711
-0.1518096067
-0.154972169
-0.1577464988
-0.1602639911
-0.1624389884
-0.1642653271
-0.1658886597
-0.1672645272
-0.1682466616
-0.1688068017
-0.1692484213
-0.1693518312
-0.1688275807
-0.1679401501
-0.1668024969
-0.1653728433
-0.1634349446
-0.1613219515
-0.1587125713
-0.1559079186
-0.1526979443
-0.1491229893
-0.1454653491
-0.1414626292
-0.1373024023
-0.1330239431
-0.12848566
-0.123870378
-0.1190630883
-0.1139010141
-0.1085346136
-0.1033036217
-0.098023907
-0.09268318878
-0.08735842189
-0.08201757952
-0.07646412085
-0.07121177116
-0.06604717138
-0.0608861975
-0.05589943136
-0.0511434078
-0.04644921256
-0.04211396045
-0.03791163234
-0.0340009615
-0.03041994283
-0.02705854382
-0.02413007007
-0.02134218374
-0.01848859543
-0.03159393254
-0.05085776139
-0.08690213227
-0.1222132171
)


101
(
-5.944140219e-22
-1.730811926e-12
1.73644597e-09
6.969234607e-09
-4.179080346e-08
-3.965162411e-07
-1.688760786e-06
-5.500928695e-06
-1.517922206e-05
-3.728560532e-05
-8.384343524e-05
-0.0001742436224
-0.0003381892192
-0.0006175765255
-0.00106724851
-0.001754856866
-0.002760333762
-0.004168194589
-0.006063746651
-0.008527613093
-0.01161138701
-0.01536202957
-0.01979768094
-0.02488011378
-0.03058894753
-0.03685942194
-0.04360986779
-0.05074484221
-0.05820355903
-0.06591116897
-0.07377434437
-0.08170919825
-0.08964122313
-0.09765527753
-0.1055612191
-0.1134043476
-0.1211695653
-0.1288222251
-0.1363995974
-0.1439112097
-0.151329543
-0.1585667
-0.1656059267
-0.1723748099
-0.1788285143
-0.18501153
-0.1909194459
-0.196587927
-0.2018159055
-0.206757802
-0.2113763368
-0.2156425393
-0.2195903869
-0.2232819196
-0.2265394498
-0.2291422239
-0.2316278571
-0.2336823076
-0.2350040129
-0.2357092505
-0.2360006865
-0.2358673632
-0.2352426962
-0.2342294803
-0.2323590527
-0.2302761391
-0.2273003211
-0.2237886492
-0.2199380395
-0.2157610587
-0.2111133424
-0.20599974
-0.2005319764
-0.194773247
-0.1885704683
-0.1819230352
-0.1749647737
-0.1676002476
-0.1601077418
-0.1525287406
-0.1450133464
-0.137031634
-0.1288032012
-0.1206984024
-0.1127355991
-0.1047329253
-0.09661754565
-0.08900241914
-0.08134162061
-0.07416325564
-0.06738339844
-0.06068910985
-0.05464978178
-0.04901450833
-0.04392369029
-0.03916285318
-0.03432112017
-0.05966574326
-0.09741769152
-0.1719322901
-0.2619653527
)


101
(
-5.838814654e-22
-8.308634672e-12
1.668569011e-09
7.266876348e-09
-3.481599708e-08
-3.537491832e-07
-1.527994802e-06
-5.004430856e-06
-1.385288305e-05
-3.411330772e-05
-7.695123426e-05
-0.0001606433381
-0.0003134806483
-0.0005760561781
-0.001002587478
-0.001660992143
-0.002633075525
-0.004008454125
-0.005879664858
-0.008335368688
-0.01144467385
-0.01527108441
-0.01985650499
-0.02517375922
-0.03122720217
-0.0379811516