/*--------------------------------*- C++ -*----------------------------------*\
| =========                 |                                                 |
| \\      /  F ield         | OpenFOAM: The Open Source CFD Toolbox           |
|  \\    /   O peration     | Version:  2.3.1                                 |
|   \\  /    A nd           | Web:      www.OpenFOAM.org                      |
|    \\/     M anipulation  |                                                 |
\*---------------------------------------------------------------------------*/
FoamFile
{
    version     2.0;
    format      ascii;
    class       dictionary;
    location    "constant";
    object      rC2H6;
}
// * * * * * * * * * * * * * * * * * * * * * * * * * * * * * * * * * * * * * //

rC2H6_table
101
(

101
(
-3.598190357e-19
-5.460292372e-10
-3.010832804e-07
-9.768006045e-06
-9.865326785e-05
-0.0005080997612
-0.00172482678
-0.004633837768
-0.01026267914
-0.01960320457
-0.03322402181
-0.05096073082
-0.07171437176
-0.09344667296
-0.1136237604
-0.1297094212
-0.1394994502
-0.1414215584
-0.1363297726
-0.1236491692
-0.1059260813
-0.08484947652
-0.06220270707
-0.0398961283
-0.0193169368
-0.00143167051
0.01333722663
0.02494026739
0.03321612967
0.03869125556
0.04176805595
0.04316352107
0.04404808484
0.04230609308
0.04057841687
0.03897418582
0.04604151498
0.05770301242
0.05097866666
0.04443526561
0.03836499299
0.03320452655
0.02850450638
0.02438367183
0.02091206221
0.01786073798
0.01527980646
0.01303299951
0.01113777232
0.009516248716
0.008155335154
0.007001040496
0.006022774713
0.005185787952
0.004471189902
0.003861928099
0.003312433748
0.002844466116
0.002422521168
0.002053794555
0.00172652585
0.001436608346
0.001185016133
0.0009617904384
0.0007634115071
0.0005997630326
0.0004601171952
0.000341659585
0.0002453832796
0.0001682998855
0.0001075758939
6.212539266e-05
3.029419475e-05
8.047132734e-06
-1.143332223e-05
-2.432161295e-05
-2.817131077e-05
-2.857503859e-05
-2.667345436e-05
-2.327838916e-05
-1.931376725e-05
-1.525668529e-05
-1.153413904e-05
-9.210147518e-06
-6.798584648e-06
-4.543706183e-06
-2.883010817e-06
-1.730289064e-06
-9.833862531e-07
-6.41068106e-07
-3.242614516e-07
-1.451892453e-07
-6.456722005e-08
-2.557813041e-08
-9.03881243e-09
-1.435028049e-09
-1.867620923e-22
5.884830971e-39
2.165043572e-31
-3.570645423e-31
0
)


101
(
-3.54488115e-19
1.428558183e-09
-1.870223007e-07
-8.422010581e-06
-9.087210747e-05
-0.0004798213411
-0.001653031862
-0.004493895647
-0.01007041247
-0.019474259
-0.03345388322
-0.05210527927
-0.07462228076
-0.099278657
-0.1236949353
-0.1453358839
-0.1618450328
-0.1713477555
-0.1738550639
-0.1689741995
-0.158074749
-0.1427937187
-0.124927679
-0.106024503
-0.08752567366
-0.07054882285
-0.05569948372
-0.04318888048
-0.0332758166
-0.02568896258
-0.02013151599
-0.01608308734
-0.01264661567
-0.0112138678
-0.01042888666
-0.00976535128
-0.005106047825
0.002848004566
0.004001344998
0.001827215678
-0.0007213720361
-0.002736630808
-0.004332712314
-0.005562147025
-0.006382122605
-0.006926716335
-0.007203064389
-0.007297813793
-0.007218335131
-0.007017403515
-0.006708412362
-0.006326581842
-0.005895410287
-0.005433300276
-0.004955780219
-0.004477089621
-0.004031365376
-0.003603309619
-0.003210576882
-0.002846889671
-0.002514815812
-0.002213303667
-0.001938238429
-0.001690173913
-0.001470433508
-0.001275575987
-0.001100620162
-0.0009452053038
-0.0008069932848
-0.0006849547303
-0.0005781840517
-0.0004845875506
-0.000402223444
-0.0003289269926
-0.0002700537704
-0.0002230844006
-0.0001810262233
-0.0001442691944
-0.0001132499262
-8.729914463e-05
-6.592148963e-05
-4.865753202e-05
-3.503055664e-05
-2.501355852e-05
-1.774634605e-05
-1.227064731e-05
-8.172197906e-06
-5.192677646e-06
-3.165789002e-06
-1.889630938e-06
-1.090150425e-06
-6.006801028e-07
-3.068542241e-07
-1.460772179e-07
-6.758657375e-08
-2.597141219e-08
-4.081787127e-09
-5.400290649e-09
-7.564144234e-09
-1.474483766e-08
-2.568212354e-08
)


101
(
-3.491890002e-19
2.992285876e-09
-8.625898393e-08
-7.177732284e-06
-8.344416851e-05
-0.0004520409743
-0.001580046948
-0.004344004487
-0.009840843919
-0.01924264256
-0.03345108418
-0.05278995905
-0.07672012331
-0.1037972041
-0.1318110111
-0.1582457241
-0.1806217238
-0.1968011578
-0.2061063679
-0.2081052443
-0.2033548675
-0.1932423954
-0.1795220737
-0.1635599112
-0.1467948089
-0.1304733486
-0.1153980451
-0.1019640074
-0.09054334979
-0.0810819046
-0.07340787337
-0.06714131811
-0.06160289525
-0.05772460722
-0.05486481022
-0.05240683439
-0.04763202875
-0.04092470011
-0.03688090185
-0.0357397878
-0.03570407438
-0.03558524632
-0.03513634974
-0.03439405687
-0.0333838872
-0.03220070166
-0.0308443276
-0.02938566493
-0.0278224781
-0.02620336757
-0.02453711383
-0.02285672364
-0.02118228976
-0.01952877136
-0.01790656058
-0.01632919503
-0.01482744256
-0.01339552881
-0.0120546284
-0.01079715169
-0.009628782294
-0.008545105615
-0.007542404292
-0.006622554954
-0.005785213588
-0.005027496705
-0.004341306099
-0.00372399951
-0.003173052762
-0.002681937311
-0.002249847005
-0.001871125328
-0.001544575161
-0.00126064779
-0.00101810665
-0.0008158919296
-0.0006481210249
-0.0005097739961
-0.0003968186993
-0.0003049219707
-0.000230945497
-0.0001718478258
-0.0001255239475
-8.988126276e-05
-6.321685454e-05
-4.374690879e-05
-3.012358704e-05
-2.033455173e-05
-1.326911696e-05
-8.464612534e-06
-5.233048633e-06
-3.132584589e-06
-1.877749298e-06
-1.059314358e-06
-5.913923824e-07
-3.001834039e-07
-8.777745023e-08
-1.481777345e-07
-2.432324579e-07
-4.731382379e-07
-8.025012714e-07
)


101
(
-3.439217001e-19
4.188003243e-09
2.080330418e-09
-6.031820142e-06
-7.637609711e-05
-0.0004248746922
-0.001506483889
-0.004186408054
-0.009580361096
-0.01892375315
-0.03324787089
-0.05307574718
-0.0781122249
-0.1071708743
-0.138222111
-0.1687915432
-0.1963059974
-0.2184036944
-0.2338439303
-0.2420151724
-0.2428850071
-0.2375043475
-0.2275186518
-0.2141982758
-0.198975366
-0.1831891181
-0.1678376098
-0.1535217667
-0.1407403435
-0.1296321663
-0.120167828
-0.1120627675
-0.104820897
-0.09907539784
-0.0945651399
-0.09124003916
-0.08565526358
-0.07915966425
-0.07390462104
-0.07066745217
-0.06885438083
-0.06734777512
-0.06567131433
-0.06373337303
-0.0615609668
-0.05926116521
-0.05683437923
-0.05433710382
-0.05175225316
-0.04911509707
-0.0464289392
-0.04372624019
-0.04102672774
-0.03834628266
-0.03569484793
-0.03308608873
-0.03054760633
-0.02807401533
-0.02570373139
-0.0234303379
-0.02127016207
-0.01922228059
-0.0172866851
-0.01546844935
-0.0137691888
-0.01218854661
-0.01072541452
-0.009375801832
-0.008147025223
-0.007028485512
-0.00601713711
-0.00510820704
-0.004304117933
-0.00359361619
-0.002969466769
-0.002428242953
-0.001964890448
-0.001573481757
-0.001247707538
-0.0009796139073
-0.0007607193087
-0.0005820386913
-0.0004384283814
-0.0003244336996
-0.0002355009341
-0.0001676193937
-0.0001174181355
-8.195497793e-05
-5.605832946e-05
-3.716804016e-05
-2.406297683e-05
-1.530053971e-05
-9.759792366e-06
-5.997270771e-06
-3.637214051e-06
-2.034812636e-06
-6.858442263e-07
-1.424046501e-06
-2.587470088e-06
-5.382143503e-06
-9.42498124e-06
)


101
(
-3.386862235e-19
5.056087572e-09
7.884744545e-08
-4.980713519e-06
-6.967163143e-05
-0.0003984207532
-0.001432880187
-0.0040230992
-0.009294663734
-0.0185313169
-0.03287290525
-0.0530165659
-0.07889015451
-0.1095461371
-0.1431437208
-0.1772728624
-0.2092978874
-0.2366698727
-0.2576844475
-0.2714724706
-0.277543799
-0.2765793599
-0.2700495138
-0.2591656744
-0.2453480183
-0.2300138699
-0.2143412359
-0.1991364335
-0.1850475477
-0.1723947963
-0.1613286668
-0.1516174084
-0.1429404372
-0.1356984474
-0.1297495277
-0.1250847334
-0.1196078665
-0.1131583768
-0.1072153326
-0.1027986413
-0.09982990618
-0.09750202454
-0.0952360324
-0.09276958717
-0.09006692754
-0.08723645963
-0.08429373527
-0.08129555355
-0.07820951557
-0.07504485635
-0.07179788391
-0.06849568312
-0.06515309543
-0.06178579906
-0.05840730009
-0.05502595131
-0.05167309968
-0.04832793873
-0.04504445315
-0.04181832888
-0.03867617882
-0.03562618317
-0.03267572956
-0.02983776878
-0.02711750345
-0.02451294207
-0.02203480297
-0.01969155789
-0.01749745015
-0.01545185371
-0.0135445121
-0.01178204524
-0.01017207416
-0.008713696904
-0.007398145926
-0.006220495093
-0.00517404581
-0.004261022671
-0.003472764517
-0.002801965731
-0.002239113516
-0.001766956297
-0.001375763225
-0.001055182087
-0.0007952127145
-0.000588284405
-0.0004265941042
-0.0003055960098
-0.0002174598339
-0.0001511196019
-0.0001019836056
-6.721630084e-05
-4.368968144e-05
-2.831197769e-05
-1.808606765e-05
-1.076039019e-05
-4.4074923e-06
-1.011706901e-05
-1.880685035e-05
-3.900319076e-05
-6.542854177e-05
)


101
(
-3.334825783e-19
5.634500546e-09
1.448706848e-07
-4.020679003e-06
-6.333189167e-05
-0.0003727611688
-0.001359705302
-0.003855839862
-0.008988816947
-0.01807751397
-0.03235153715
-0.05265969363
-0.07913365878
-0.1110486578
-0.1467583756
-0.1839396437
-0.2199241281
-0.2520118191
-0.2781160752
-0.2970682294
-0.3079981478
-0.3112090208
-0.3079386671
-0.2993388943
-0.2868129698
-0.2718343079
-0.2557463987
-0.2395576004
-0.2240799638
-0.2098090052
-0.1970545872
-0.1857800284
-0.1757213933
-0.167129851
-0.1599308025
-0.1541585286
-0.1484818541
-0.1421360463
-0.1358533944
-0.1306462864
-0.1268360839
-0.1239596359
-0.1214683696
-0.118934785
-0.1162132731
-0.1133683866
-0.1104100546
-0.1073932249
-0.1042963136
-0.1011184042
-0.09784414826
-0.09448816286
-0.0910451968
-0.08751453875
-0.08391532598
-0.08026725119
-0.07658675465
-0.07282923032
-0.06904804296
-0.0652535729
-0.06146630924
-0.0576904039
-0.05394726951
-0.05025244693
-0.04661995557
-0.04305258681
-0.03955689021
-0.03615044921
-0.03285849579
-0.02970943981
-0.02669086936
-0.02381249833
-0.02108909647
-0.01854047863
-0.01617186231
-0.01398691443
-0.01198563267
-0.01017092615
-0.008538072198
-0.007096666168
-0.005842085965
-0.004763174089
-0.003832637331
-0.00304547527
-0.002382902739
-0.001835071041
-0.001384516332
-0.001028118224
-0.0007547410333
-0.0005479913849
-0.0003863877868
-0.00026694144
-0.0001812968597
-0.0001206248612
-8.043856233e-05
-5.027737603e-05
-2.359829178e-05
-5.223058562e-05
-9.875115732e-05
-0.000238783809
-0.0004210692828
)


101
(
-3.283107762e-19
5.958830627e-09
2.009533283e-07
-3.147845606e-06
-5.735566377e-05
-0.0003479632129
-0.001287366818
-0.003686185299
-0.008667325763
-0.01757319683
-0.03170635417
-0.05204713826
-0.07891335485
-0.1117889458
-0.1492256772
-0.1890085924
-0.2284650892
-0.2647790822
-0.2955495322
-0.3192901761
-0.3347959668
-0.3419954889
-0.3418427153
-0.3354076749
-0.324068228
-0.3093222966
-0.2926549178
-0.2752783188
-0.2581808129
-0.2420309221
-0.2273015251
-0.2141506775
-0.20244512
-0.1923211453
-0.1837092607
-0.1767070881
-0.1704638024
-0.1640099035
-0.1574361394
-0.151517015
-0.1468211718
-0.1432859435
-0.1405119877
-0.1379845211
-0.13543828
-0.1328461411
-0.1301755248
-0.1274310887
-0.1246186548
-0.1217726824
-0.1188625757
-0.1159290297
-0.1129285984
-0.1098140259
-0.106574737
-0.1032917479
-0.09997499382
-0.09652232399
-0.09296943018
-0.08933576393
-0.08562870452
-0.08182465515
-0.07796426114
-0.07405321587
-0.07009055766
-0.06609701227
-0.06207202551
-0.05802265152
-0.05397754874
-0.04996155555
-0.04600256128
-0.04210950002
-0.03829736045
-0.03458941389
-0.0310152287
-0.027601541
-0.02437178088
-0.02132977835
-0.01848210231
-0.01585768713
-0.01347478433
-0.01135107202
-0.009450933106
-0.007776826561
-0.006319334686
-0.005060606807
-0.003981246925
-0.003077688073
-0.002348433903
-0.001775692775
-0.001310366901
-0.0009441063075
-0.0006734609329
-0.0004696979288
-0.000326936719
-0.0002101237326
-0.0001079920364
-0.0002720550825
-0.0005238139203
-0.00120243782
-0.002021052364
)


101
(
-3.231708224e-19
6.062343465e-09
2.478725097e-07
-2.358234825e-06
-5.173963032e-05
-0.0003240804834
-0.001216213832
-0.003515494169
-0.008334176745
-0.01702800383
-0.03095741537
-0.05121615255
-0.07829159276
-0.1118640477
-0.150684795
-0.1926669684
-0.2351614745
-0.2752689347
-0.310331772
-0.3385440058
-0.3583915439
-0.3694358901
-0.3723074786
-0.3679527148
-0.3577111215
-0.3430659512
-0.3255998847
-0.3067212234
-0.2876108767
-0.2691152807
-0.2518686757
-0.2362190305
-0.2222251684
-0.2099784861
-0.1993692818
-0.1905421491
-0.1830153848
-0.1758218554
-0.168537911
-0.161584125
-0.1555705541
-0.150807679
-0.147116727
-0.1440526431
-0.1412781451
-0.1386424662
-0.1360694949
-0.1334679855
-0.1308134241
-0.1281977659
-0.1256073555
-0.1231726158
-0.1207911883
-0.1183718684
-0.1158614393
-0.1133814655
-0.1109603279
-0.1085083576
-0.1059866387
-0.103429363
-0.1008004131
-0.09800718455
-0.09510874871
-0.09209169348
-0.08893325827
-0.08564727531
-0.08224958588
-0.07869285275
-0.07501135361
-0.07118272982
-0.06724161078
-0.06321717244
-0.05911760379
-0.05495181243
-0.05074948992
-0.04655489568
-0.04240922039
-0.03834266009
-0.0343724123
-0.03053290617
-0.02686667211
-0.02343198994
-0.02023797498
-0.01728193623
-0.0145962925
-0.01217322133
-0.01000038183
-0.008076223771
-0.00643768542
-0.005071664639
-0.003933651086
-0.002969488564
-0.002219666008
-0.001631193073
-0.001182361949
-0.0008105198074
-0.0004613512855
-0.00116638476
-0.002178951809
-0.004467005553
-0.0067746222
)


101
(
-3.180627293e-19
5.976040535e-09
2.863779556e-07
-1.647792524e-06
-4.647864336e-05
-0.0003011544643
-0.001146543393
-0.003344948984
-0.007992889743
-0.01645048279
-0.0301225443
-0.05019973613
-0.07732347215
-0.1113591362
-0.1512573929
-0.1950770816
-0.2402197968
-0.2837343663
-0.3227567527
-0.3551698033
-0.3791642023
-0.3939433606
-0.3997889558
-0.3974612797
-0.3882429745
-0.3735651466
-0.3550439988
-0.3342544469
-0.3125842722
-0.2910724943
-0.2705123055
-0.2514207379
-0.2340859553
-0.2186616792
-0.2049838655
-0.1932339933
-0.1832363405
-0.1741313714
-0.1651020426
-0.1562139147
-0.1478895089
-0.140658283
-0.1346950313
-0.1297580322
-0.125513883
-0.1216764941
-0.1181260477
-0.114668429
-0.1111686038
-0.1078138944
-0.1046973581
-0.1019572866
-0.09949373331
-0.09730051234
-0.09511990996
-0.09309814377
-0.09143529042
-0.09005633078
-0.08882590011
-0.08783387297
-0.08699539954
-0.0861172631
-0.08532598026
-0.08446113595
-0.0834900646
-0.08237460082
-0.08118953432
-0.07989349066
-0.07848620325
-0.07691027294
-0.07502987474
-0.07292363772
-0.07050399081
-0.06783767124
-0.06494459205
-0.06181611703
-0.0584512867
-0.05489788979
-0.05117873514
-0.04734198989
-0.043415247
-0.03947046693
-0.03554392553
-0.03169022865
-0.0279551501
-0.02437485944
-0.02099884542
-0.01780792895
-0.01490703905
-0.01232031858
-0.01003606823
-0.007991186458
-0.006301187573
-0.004897267691
-0.003740620736
-0.002757030997
-0.001730376328
-0.00397048262
-0.006622696395
-0.009066749999
-0.006695667629
)


101
(
-3.129865002e-19
5.728715378e-09
3.171911878e-07
-1.012412123e-06
-4.156592666e-05
-0.0002792158073
-0.001078607027
-0.003175580682
-0.007646571466
-0.01584822622
-0.02921763063
-0.0490273343
-0.07605813598
-0.1103498885
-0.151051145
-0.1963816155
-0.2438197042
-0.2903929717
-0.3330756314
-0.3694546467
-0.3974331814
-0.4158632479
-0.4246697716
-0.4243451635
-0.4160834638
-0.4012295794
-0.3813741574
-0.3582102293
-0.333327599
-0.3079738385
-0.2831085303
-0.2593827541
-0.2372917371
-0.2171621365
-0.1988629105
-0.18253374
-0.1682218256
-0.1552702663
-0.1426155252
-0.1300691246
-0.1177456589
-0.1061861186
-0.09575229367
-0.08655317425
-0.07840695763
-0.07095781208
-0.06406582388
-0.05739098444
-0.05076849943
-0.04439533531
-0.03840793287
-0.03296961037
-0.02814340317
-0.02400779614
-0.02020544127
-0.01692807379
-0.01426762259
-0.01259882031
-0.01143668188
-0.01104043131
-0.01144236533
-0.01218827991
-0.01360237388
-0.01534450545
-0.01734208257
-0.01948820957
-0.02181266719
-0.02446135605
-0.02737561075
-0.03043921198
-0.03333451942
-0.03609638986
-0.0386045567
-0.04078990029
-0.04270313117
-0.04428965848
-0.04549994853
-0.04620534569
-0.04633377114
-0.04611100159
-0.04546560695
-0.04428560718
-0.04258466185
-0.04047473381
-0.03805031478
-0.03535078007
-0.03237661311
-0.02929142077
-0.0261089044
-0.02295292587
-0.01988591825
-0.0169286751
-0.01420275893
-0.01175021815
-0.009553990107
-0.007540317983
-0.00536038827
-0.009353074876
-0.01025660504
0.0125266904
0.07676776613
)


101
(
-3.079421515e-19
5.347014172e-09
3.410046737e-07
-4.479618955e-07
-3.699328407e-05
-0.0002582853598
-0.001012615098
-0.003008285659
-0.00729794728
-0.01522792236
-0.02825676651
-0.0477251931
-0.07453950597
-0.1089038693
-0.1501620315
-0.1967072215
-0.246119587
-0.2954349987
-0.3415072634
-0.3816482038
-0.4134774611
-0.4354942194
-0.4472610706
-0.4489453123
-0.4415828782
-0.4264028514
-0.4049240347
-0.3788978993
-0.3500859143
-0.3199392062
-0.2896066836
-0.2598708596
-0.2313698878
-0.2045844851
-0.1795663754
-0.1563938037
-0.1352193835
-0.1156485109
-0.0966255039
-0.07776529747
-0.05879093051
-0.04008882453
-0.02195340211
-0.004860272037
0.011100816
0.02623512766
0.04055148593
0.05451227656
0.06830214247
0.08188606219
0.09511086105
0.107824865
0.1197306637
0.1305200667
0.1402394885
0.149174732
0.1572953923
0.1635929168
0.1687586915
0.1724141809
0.1741943726
0.1747148166
0.1737518598
0.1714578906
0.1679018515
0.1632866247
0.1581628465
0.1517839595
0.1442991305
0.1354786552
0.1258888952
0.1156277714
0.1051524312
0.09452657502
0.08365762913
0.07239446554
0.06105079737
0.05018425819
0.03998869557
0.03010067447
0.0204994686
0.0118709293
0.004293059933
-0.002056447947
-0.007644182913
-0.01249889019
-0.0158520366
-0.01848887697
-0.02015514324
-0.02078467526
-0.02086764163
-0.02027483437
-0.0190653064
-0.01746179551
-0.01572826035
-0.01377551684
-0.01136671118
-0.005200354097
0.02734419567
0.190229968
0.4779676542
)


101
(
-3.029300975e-19
4.855496966e-09
3.584812428e-07
4.969282095e-08
-3.275130186e-05
-0.0002383752229
-0.0009487402535
-0.002843834985
-0.006949406402
-0.01459547782
-0.02725247648
-0.04631670112
-0.07280681279
-0.1070813587
-0.1486754721
-0.1961660365
-0.2472585948
-0.299026116
-0.3482399614
-0.3919619615
-0.4275337801
-0.453093606
-0.4678293408
-0.47155943
-0.4650562542
-0.4494078755
-0.4260376057
-0.396678204
-0.3631958442
-0.3272212675
-0.2901089898
-0.2527920198
-0.2160047356
-0.1802613349
-0.1459125844
-0.1130298278
-0.0817965294
-0.0520650642
-0.02295343828
0.005997365123
0.03545689009
0.06531156837
0.09557851013
0.1256239495
0.1550317026
0.1838822105
0.2118015711
0.2393133091
0.266740159
0.2942704912
0.3217315204
0.3490297679
0.3757923011
0.4012659263
0.4250497489
0.4482554737
0.4700691247
0.489549788
0.5069777348
0.5224420086
0.5348254791
0.5445397607
0.5514431861
0.5554915693
0.5569781399
0.5557085324
0.5525205648
0.5472233615
0.5393653073
0.5282039948
0.5142775701
0.4975660345
0.4790164115
0.4588609025
0.4369871829
0.4127104341
0.3865747488
0.3597869484
0.3321586581
0.3041247801
0.2752133041
0.2462896765
0.2183011433
0.1920127582
0.1661072944
0.1401916689
0.1172998487
0.09631896905
0.07705698059
0.06015634328
0.04483317943
0.03200148044
0.02162496946
0.01368126013
0.007188802523
0.001655279489
-0.003734162645
0.07740310422
0.2706942371
0.9220364999
1.969355461
)


101
(
-2.979509579e-19
4.27670429e-09
3.702536277e-07
4.846676137e-07
-2.882953847e-05
-0.000219489763
-0.0008871215032
-0.002682887027
-0.006603030636
-0.01395610355
-0.02621589355
-0.04482270699
-0.07089509239
-0.1049361814
-0.1466676446
-0.1948577036
-0.2473587462
-0.3013095249
-0.3534342158
-0.4005728081
-0.4398040562
-0.4688936606
-0.4866401919
-0.4925062209
-0.4869120633
-0.4707376312
-0.4452522426
-0.4121056296
-0.3731924176
-0.3302878983
-0.2849477489
-0.2382553626
-0.1910161716
-0.1437067555
-0.09698328684
-0.05096547956
-0.005852395687
0.03829540785
0.08212810207
0.1261821293
0.1713129544
0.2177276477
0.2659206859
0.3153822698
0.3654722387
0.4160645258
0.4663012286
0.5165206311
0.5670188955
0.6183862217
0.6704082944
0.7231869476
0.7764031963
0.8289183305
0.8799483595
0.9305749202
0.9799931085
1.026679832
1.071016626
1.113110846
1.151460021
1.185758844
1.215871474
1.241224413
1.262017914
1.278760847
1.291123408
1.299707535
1.304335724
1.302793773
1.295871507
1.282791123
1.264050427
1.240828452
1.213270782
1.180291707
1.141253526
1.0977414
1.050560207
0.9995952163
0.9442004015
0.8855709423
0.8254820668
0.7653577402
0.7043844575
0.6392892908
0.5755534006
0.515217328
0.4565666612
0.3998806006
0.3448135217
0.2950882659
0.249980917
0.2098805266
0.1743023666
0.1396064867
0.1019445913
0.4759149228
1.192299005
3.094259775
5.825000427
)


101
(
-2.930037072e-19
3.631223918e-09
3.769240734e-07
8.610397899e-07
-2.521668339e-05
-0.0002016264236
-0.0008278676005
-0.002525999177
-0.006260617903
-0.01331435583
-0.02515690268
-0.04326180276
-0.06883570223
-0.102516745
-0.144207212
-0.1928718143
-0.2465276466
-0.3024068793
-0.3572223646
-0.407623869
-0.4504567813
-0.4831056711
-0.5039601677
-0.5121021934
-0.5075334957
-0.4908611781
-0.4631191056
-0.4257940383
-0.3807162645
-0.3297647659
-0.2746783973
-0.2166592157
-0.1565418187
-0.09476175667
-0.03228035442
0.03072821566
0.09407091195
0.1575701354
0.2216806963
0.2870435829
0.3544670827
0.4243616932
0.4978105946
0.5747170403
0.6544108142
0.7367358345
0.8204454184
0.9054965504
0.9920194129
1.081006257
1.171765777
1.264937345
1.360894354
1.457858586
1.554597761
1.651772018
1.749716531
1.84512355
1.939182357
2.031189704
2.120197595
2.204176053
2.283053868
2.356036668
2.423277584
2.484459153
2.538736099
2.58757169
2.62990694
2.664667033
2.690881128
2.707312264
2.712135853
2.707401875
2.693958647
2.670687008
2.636187482
2.591371671
2.535061945
2.469593621
2.392318137
2.305537035
2.209775703
2.108098505
2.002561168
1.884446094
1.757726951
1.633251931
1.508364657
1.382104142
1.251160206
1.128321356
1.009641502
0.8991035791
0.7947964318
0.6892186939
0.5716328409
1.761627825
3.766748952
8.219484764
14.24373151
)


101
(
-2.880883506e-19
2.937757131e-09
3.790640714e-07
1.182831283e-06
-2.190071081e-05
-0.0001847764905
-0.0007710592963
-0.002373635151
-0.005923721475
-0.0126742252
-0.02408423501
-0.04165052271
-0.06665662028
-0.09986627625
-0.1413555188
-0.1902884357
-0.2448611883
-0.3024247916
-0.3597176831
-0.4132297339
-0.4596202049
-0.4958911236
-0.5200043246
-0.5306204563
-0.5272579001
-0.5101927101
-0.4801526286
-0.4383896727
-0.3865596912
-0.3265368606
-0.2601806604
-0.188816588
-0.1133060048
-0.03398380991
0.0479015372
0.1321400299
0.2185750024
0.3070240796
0.3978609245
0.4917477819
0.5894077682
0.6913547129
0.7991829023
0.9132849007
1.033247101
1.159247026
1.289914069
1.424752818
1.563630261
1.707706141
1.855838293
2.009238439
2.16932261
2.333742575
2.501160793
2.671789587
2.846542441
3.021311752
3.196527633
3.372004558
3.547351502
3.718663135
3.88461256
4.045746711
4.201927608
4.350261035
4.49122128
4.623737925
4.749926321
4.86698535
4.972968527
5.066712506
5.143284652
5.203835411
5.248999479
5.277912046
5.291459269
5.285792436
5.258777276
5.213607034
5.143317821
5.053283795
4.943404342
4.814414749
4.670905343
4.504616961
4.312125952
4.107410734
3.897865832
3.680238787
3.436439876
3.205255224
2.961271158
2.732978888
2.508165384
2.275245875
2.003195916
4.965203157
9.506657406
18.28311846
29.89024695
)


101
(
-2.832049006e-19
2.213192258e-09
3.772142538e-07
1.453992372e-06
-1.886902855e-05
-0.0001689259275
-0.000716752383
-0.0022261743
-0.005593672209
-0.01203919397
-0.02300552448
-0.0400036056
-0.06438285383
-0.09702329847
-0.1381670579
-0.1871784596
-0.242445349
-0.3014605117
-0.3610256738
-0.4175121485
-0.4674257641
-0.5073974282
-0.5349383426
-0.5482743591
-0.5463690504
-0.5290902151
-0.496816629
-0.4505112869
-0.391539554
-0.3216088531
-0.2425444261
-0.1557923365
-0.06235569446
0.03765020064
0.1427269555
0.2526931129
0.3674598719
0.4869459591
0.6116163257
0.7421226396
0.879227348
1.023199159
1.176115897
1.339015994
1.512014861
1.695734525
1.888920048
2.091248864
2.301992526
2.522289143
2.751151502
2.989901622
3.240701248
3.50166807
3.771525183
4.049902269
4.338222453
4.632211538
4.931000932
5.23482425
5.543314395
5.853309678
6.160659218
6.467735221
6.773049142
7.071416082
7.363808599
7.648373627
7.928514275
8.199196265
8.458724184
8.706308093
8.932967791
9.140057493
9.324496024
9.48246953
9.620255757
9.731020442
9.813743081
9.862613957
9.87032544
9.843919199
9.778836033
9.678782888
9.546998538
9.371391181
9.145962895
8.880675398
8.592566112
8.288499964
7.9158232
7.559982111
7.155971426
6.767983131
6.381523914
5.962673319
5.451356107
11.63316792
20.3964716
35.4380622
53.46435741
)


101
(
-2.783533734e-19
1.472676444e-09
3.71884429e-07
1.678387544e-06
-1.610859622e-05
-0.0001540559601
-0.0006649802325
-0.002083919629
-0.005271599446
-0.01141228555
-0.02192745109
-0.03833413424
-0.06203677516
-0.09402223575
-0.134690528
-0.1836050203
-0.2393568011
-0.2996022374
-0.3612419017
-0.420583158
-0.4739882419
-0.517747527
-0.5488925715
-0.5652327693
-0.5651092278
-0.5478792421
-0.5135556146
-0.4627647713
-0.3964549967
-0.3160046659
-0.2230569821
-0.1190769326
-0.005241144611
0.1185541157
0.2506593219
0.391036421
0.5396851154
0.6966567824
0.862702542
1.038623217
1.225054829
1.422172743
1.632542215
1.857546403
2.09796578
2.35534781
2.629038466
2.919211842
3.224123124
3.545395842
3.882623531
4.236934745
4.610585741
5.003472114
5.413829491
5.840904474
6.288146012
6.750750696
7.226164686
7.714725043
8.217481709
8.731535409
9.251856239
9.780789926
10.31331933
10.84895457
11.38256176
11.91204015
12.44235884
12.96728126
13.48756176
13.99830912
14.49056152
14.96366212
15.4108028
15.82233795
16.20138184
16.55536755
16.87140279
17.14241943
17.35763134
17.51590198
17.60735055
17.64820118
17.63033039
17.54452565
17.3734797
17.12458184
16.81140807
16.47068589
16.00701687
15.54402478
14.99393352
14.43401087
13.87801974
13.2530142
12.46388974
23.63088954
38.43819121
61.57243883
88.37271457
)


101
(
-2.735337632e-19
7.296763483e-10
3.635567574e-07
1.859783464e-06
-1.360603696e-05
-0.0001401436456
-0.0006157560006
-0.001947104428
-0.00495845608
-0.01079612302
-0.02085584335
-0.03665363395
-0.05963834208
-0.09089403584
-0.1309699907
-0.1796253632
-0.2356642786
-0.2969264918
-0.3604434488
-0.4225273865
-0.4793871106
-0.52702077
-0.5619627033
-0.5816280703
-0.5837073472
-0.5669230793
-0.5308640238
-0.4757823673
-0.402101864
-0.3107353231
-0.2030544379
-0.08038053364
0.05609630172
0.2066331177
0.3695144112
0.5450254492
0.733285145
0.9343979491
1.149441487
1.379642753
1.625789947
1.888081399
2.169201248
2.470939786
2.79484278
3.143655204
3.517657086
3.917847122
4.342169833
4.792491442
5.269017347
5.773366811
6.307587214
6.873275885
7.469188709
8.093474888
8.752513928
9.441051049
10.1568601
10.89877517
11.66946951
12.46670156
13.28756539
14.13165609
14.9919084
15.8718317
16.75922606
17.65428435
18.56047442
19.47560654
20.39658798
21.31523629
22.2258824
23.12383779
23.99824993
24.83709885
25.63833078
26.40369969
27.12894061
27.8064887
28.41858841
28.9406844
29.37244238
29.72644021
29.99000688
30.15245262
30.18375518
30.09557853
29.87544968
29.6061444
29.16200916
28.65978143
28.03279117
27.35319239
26.66077315
25.8676222
24.81407392
42.77582945
65.26054967
97.94721079
134.4995097
)


101
(
-2.687460862e-19
-3.932440284e-12
3.526766326e-07
2.001836524e-06
-1.134776545e-05
-0.0001271625958
-0.0005690753582
-0.001815900093
-0.004655040442
-0.01019300636
-0.01979578053
-0.03497219217
-0.05720522653
-0.08766661024
-0.127046254
-0.1752944291
-0.2314349973
-0.293508326
-0.3587025288
-0.4233869693
-0.4836459886
-0.5352280315
-0.5741992372
-0.597541954
-0.6023244975
-0.5865165123
-0.5491844735
-0.4901726514
-0.4092946086
-0.3068964643
-0.1840019177
-0.0416095511
0.1193570104
0.2992664402
0.4963784381
0.7114645473
0.9448926113
1.196769379
1.468496023
1.761960976
2.078279736
2.417831483
2.783609695
3.177726876
3.60239413
4.061662378
4.557028337
5.090932355
5.662194302
6.272384223
6.922148957
7.613982943
8.350342535
9.134410148
9.96626443
10.8444646
11.775887
12.75555674
13.78471382
14.86063188
15.98289347
17.15679862
18.37858748
19.64631785
20.95283319
22.3023274
23.68065706
25.08659268
26.52315154
27.99079598
29.47982874
30.9888966
32.50906755
34.02956783
35.53920356
37.02397478
38.46529426
39.86513788
41.22780025
42.54371361
43.78655011
44.91481011
45.92613631
46.83039233
47.59015092
48.22989764
48.67388399
48.94659064
49.00060674
48.9676374
48.70317445
48.29999695
47.70864525
47.01420075
46.28297743
45.43122818
44.20022271
70.50104218
101.8588719
145.1610545
191.7047888
)


101
(
-2.639903583e-19
-7.177862426e-10
3.396624211e-07
2.108083721e-06
-9.320075145e-06
-0.0001150834555
-0.0005249182536
-0.00169042184
-0.004361992798
-0.009604886618
-0.01875167541
-0.03329868708
-0.0547531552
-0.08436491215
-0.1229558075
-0.170661273
-0.2267287993
-0.2894144523
-0.3560853321
-0.4232003441
-0.4867753376
-0.5423444068
-0.5856019702
-0.6129975978
-0.6210513657
-0.606901159
-0.5689401175
-0.5065460271
-0.4189011254
-0.3056929742
-0.1674796903
-0.004819375963
0.1818640656
0.3932747721
0.6277060794
0.886415075
1.17019051
1.479181631
1.815004877
2.180281389
2.576849416
3.005589718
3.469994464
3.972549885
4.515997607
5.10560433
5.744364475
6.436767062
7.183395481
7.985662391
8.844476587
9.763889187
10.74689212
11.79765111
12.91883848
14.11149119
15.38210282
16.72637671
18.14813243
19.64493633
21.21473741
22.86846509
24.60205855
26.41408039
28.30064224
30.26092809
32.28488096
34.36744067
36.50878416
38.71018167
40.96411719
43.27024875
45.61280212
47.98060753
50.36554854
52.7465885
55.09119926
57.39277058
59.65164811
61.86813555
64.01516075
66.03652932
67.90608445
69.62625102
71.16225446
72.5285095
73.64130752
74.5183773
75.07419457
75.48365901
75.59488919
75.45715355
75.08202193
74.51789778
73.90047367
73.12716697
71.85105755
107.6580745
148.6716181
203.4015174
260.9539553
)


101
(
-2.592665742e-19
-1.402967958e-09
3.249026843e-07
2.181934531e-06
-7.509223248e-06
-0.0001038743557
-0.0004832508303
-0.001570736059
-0.00407981584
-0.009033399848
-0.01772747511
-0.0316407975
-0.05229629757
-0.08101178785
-0.118732212
-0.1657709243
-0.2216000876
-0.2847054847
-0.3526539501
-0.422018859
-0.48880451
-0.5483776094
-0.5961372119
-0.6279770896
-0.6399085693
-0.628230774
-0.5904809886
-0.5254311778