/*--------------------------------*- C++ -*----------------------------------*\
| =========                 |                                                 |
| \\      /  F ield         | OpenFOAM: The Open Source CFD Toolbox           |
|  \\    /   O peration     | Version:  2.3.1                                 |
|   \\  /    A nd           | Web:      www.OpenFOAM.org                      |
|    \\/     M anipulation  |                                                 |
\*---------------------------------------------------------------------------*/
FoamFile
{
    version     2.0;
    format      ascii;
    class       dictionary;
    location    "constant";
    object      rCH2;
}
// * * * * * * * * * * * * * * * * * * * * * * * * * * * * * * * * * * * * * //

rCH2_table
101
(

101
(
-2.823920242e-15
-7.612211436e-08
-7.112493348e-06
-7.294330784e-05
-0.0003157575278
-0.0008784582788
-0.001893727389
-0.00343190241
-0.005520569805
-0.008118140785
-0.01114617834
-0.01446618749
-0.0179442058
-0.02134112874
-0.0244938403
-0.02722985526
-0.02937107665
-0.03077634962
-0.03147791294
-0.0313626852
-0.03056217829
-0.02915027325
-0.02728795363
-0.02510735833
-0.02273042779
-0.02028544998
-0.01787859126
-0.01557400888
-0.01344696356
-0.01150967119
-0.009780076168
-0.008240320889
-0.006835260972
-0.005737404594
-0.004766886512
-0.003940129334
-0.003064383816
-0.002230657309
-0.001820125921
-0.001493845105
-0.001227792135
-0.0009922247673
-0.0008029415664
-0.0006468068232
-0.0005140489754
-0.0004080898575
-0.0003201473707
-0.000250810309
-0.0001944514137
-0.0001503751682
-0.0001150209564
-8.731409311e-05
-6.573487612e-05
-4.902716737e-05
-3.606208872e-05
-2.608709468e-05
-1.897688744e-05
-1.340480716e-05
-9.454637855e-06
-6.52523159e-06
-4.502930138e-06
-3.018495549e-06
-1.980258135e-06
-1.278960376e-06
-8.168483357e-07
-5.035669293e-07
-3.016436533e-07
-1.768247242e-07
-1.019386957e-07
-5.607592538e-08
-3.021545582e-08
-1.555432971e-08
-7.887589131e-09
-3.850827606e-09
-1.885251959e-09
-8.684029431e-10
-3.512761082e-10
-1.377212668e-10
-5.083279108e-11
-1.760506873e-11
-5.094826797e-12
-1.539804036e-12
-3.805391123e-13
-4.049370175e-14
3.149348577e-14
1.346317737e-14
5.078719229e-15
1.649117824e-15
4.484568551e-16
6.726483793e-16
1.922430886e-16
3.68814675e-17
7.221779361e-18
3.165158951e-18
9.891839247e-19
5.683865612e-20
-2.142699668e-25
1.858882174e-42
1.31804834e-35
1.384117607e-35
0
)


101
(
-2.788880946e-15
-7.913795522e-09
-6.63532074e-06
-7.206904355e-05
-0.0003197951709
-0.0009000683811
-0.001947243787
-0.003569850399
-0.005809477227
-0.008648887064
-0.01202362769
-0.01580910395
-0.01987017299
-0.02396631137
-0.02790148365
-0.03147902465
-0.03447727915
-0.03664826198
-0.03809756547
-0.03849235808
-0.03804194518
-0.03686189879
-0.0349683924
-0.03254853406
-0.02979405297
-0.02686535759
-0.02390028868
-0.02100154864
-0.01826490705
-0.01573823367
-0.01345450404
-0.01141105864
-0.009553200809
-0.008008121554
-0.006684397093
-0.005558862304
-0.004621943694
-0.003923889155
-0.003295440431
-0.00271621733
-0.002221155102
-0.001796058721
-0.00144552951
-0.001160562011
-0.0009250332031
-0.0007339961759
-0.0005783422961
-0.0004532193863
-0.0003527094356
-0.0002729749878
-0.0002098049748
-0.0001600979948
-0.0001212983444
-9.106261244e-05
-6.759922641e-05
-4.953762078e-05
-3.608464523e-05
-2.599344746e-05
-1.852679063e-05
-1.304628062e-05
-9.094073487e-06
-6.251632593e-06
-4.221311084e-06
-2.80049337e-06
-1.823398611e-06
-1.166197944e-06
-7.293346513e-07
-4.458400358e-07
-2.659407018e-07
-1.530261936e-07
-8.500273777e-08
-4.574891185e-08
-2.405625031e-08
-1.189283824e-08
-5.436129434e-09
-2.338011755e-09
-9.0038167e-10
-3.112407856e-10
-9.153059465e-11
-1.435848716e-11
7.378242984e-12
9.773336733e-12
5.767142631e-12
3.033312144e-12
1.377800723e-12
4.558176467e-13
9.775992328e-14
6.642687365e-15
8.701433355e-15
3.234119746e-15
4.694211159e-16
6.866871045e-17
1.882018868e-18
1.877056557e-18
-1.932329192e-18
-7.621376381e-19
-1.169145926e-19
-3.687060474e-19
-1.087625893e-18
-6.50830344e-18
-7.606729595e-18
)


101
(
-2.753904401e-15
6.028576399e-08
-6.024495274e-06
-6.920082403e-05
-0.0003110895075
-0.0008790754054
-0.00190300991
-0.003496233584
-0.005702401727
-0.008510247487
-0.01186189005
-0.01564343084
-0.01972770022
-0.02389249061
-0.02794568581
-0.03169513242
-0.03492526705
-0.0373897611
-0.03913678329
-0.03989628117
-0.03977066329
-0.0388759289
-0.03724563375
-0.03501760881
-0.03237405754
-0.02948137477
-0.02648359972
-0.02349682387
-0.02062628992
-0.01793761607
-0.01547591245
-0.01325472848
-0.0112381174
-0.009498229636
-0.007993399495
-0.006703283717
-0.005622737049
-0.004750539921
-0.00403200776
-0.003391441616
-0.002817577856
-0.002312587514
-0.001885133748
-0.001531273743
-0.001239036421
-0.0009997528114
-0.0008035244392
-0.0006429414831
-0.000511731685
-0.000405235695
-0.0003191919814
-0.0002501804999
-0.0001952187558
-0.0001514932543
-0.0001166754717
-8.910173724e-05
-6.751210392e-05
-5.080229073e-05
-3.794740613e-05
-2.810024156e-05
-2.066694854e-05
-1.50617339e-05
-1.084824028e-05
-7.729485081e-06
-5.435244754e-06
-3.76669203e-06
-2.570113315e-06
-1.725782971e-06
-1.144582726e-06
-7.404830134e-07
-4.659725434e-07
-2.853433189e-07
-1.724229237e-07
-1.010766953e-07
-5.673179103e-08
-3.043226912e-08
-1.552406525e-08
-7.589990056e-09
-3.614907759e-09
-1.665739619e-09
-7.170311181e-10
-2.636647752e-10
-8.916332781e-11
-2.351284986e-11
-1.020126791e-12
2.897867581e-12
1.890979083e-12
2.177999062e-13
5.823135165e-14
7.612930393e-14
2.535204521e-14
-3.21436406e-16
-2.179815121e-15
-1.100586561e-15
-5.001838571e-16
-1.603775765e-16
-2.197986108e-17
-1.535916699e-16
-6.57911224e-16
-5.615184099e-15
4.762781273e-13
)


101
(
-2.718990616e-15
1.25653683e-07
-5.38113602e-06
-6.569635573e-05
-0.0002984899867
-0.0008463367657
-0.001835055152
-0.003376899062
-0.00551852408
-0.008254446342
-0.01153500146
-0.01525820757
-0.01930751322
-0.02348079188
-0.02759422211
-0.03146266722
-0.0348795551
-0.03760826667
-0.03964097251
-0.04076385976
-0.04099784195
-0.0404357921
-0.03912662897
-0.03717187312
-0.03473137976
-0.03196870183
-0.02902968905
-0.02603822431
-0.02310784437
-0.02031783352
-0.01772537382
-0.01535935675
-0.0132022083
-0.01130282847
-0.009631946579
-0.008167143207
-0.006937045423
-0.005891979707
-0.005027156325
-0.00429197561
-0.003637649471
-0.003050225292
-0.002538559666
-0.002102627113
-0.001736069212
-0.001431917458
-0.001179210892
-0.0009691296276
-0.0007935676382
-0.000647438942
-0.0005258314849
-0.0004254749839
-0.0003433254273
-0.0002761806606
-0.0002210875172
-0.0001760473052
-0.0001392589881
-0.0001095252185
-8.564990642e-05
-6.645342443e-05
-5.130129405e-05
-3.936199187e-05
-2.994355452e-05
-2.26114647e-05
-1.690450734e-05
-1.246425893e-05
-9.081810064e-06
-6.52260936e-06
-4.648210993e-06
-3.267681583e-06
-2.245646663e-06
-1.510848743e-06
-1.001670493e-06
-6.52523122e-07
-4.141555033e-07
-2.553898571e-07
-1.517360454e-07
-8.752665872e-08
-4.897704518e-08
-2.695083884e-08
-1.449368369e-08
-7.310754243e-09
-3.531261861e-09
-1.64807526e-09
-7.057961428e-10
-2.736035429e-10
-9.349366018e-11
-3.850159274e-11
-1.733049977e-11
-6.104479142e-12
-1.566877554e-12
-6.534118756e-13
-2.687277191e-13
-1.147511552e-13
-4.933031364e-14
-1.489775061e-14
-2.213642442e-15
-3.085871514e-14
-1.456383767e-13
-1.225074037e-12
-2.908611724e-12
)


101
(
-2.684139604e-15
1.87015422e-07
-4.745614446e-06
-6.205299783e-05
-0.0002849288242
-0.0008109529342
-0.001762538121
-0.003249747729
-0.005322585155
-0.007981285778
-0.01118433342
-0.01484102349
-0.01884517141
-0.02301341874
-0.02717130221
-0.03114137357
-0.03472649612
-0.03770106176
-0.04001444167
-0.04148996585
-0.04209615928
-0.0418942505
-0.04093765352
-0.03930322023
-0.03712597716
-0.03455971088
-0.03174733503
-0.02881566513
-0.02588402247
-0.02304213948
-0.02035764805
-0.0178730459
-0.01558723739
-0.01354694599
-0.01172347604
-0.01011094676
-0.008703219913
-0.007481383582
-0.006445356136
-0.005568815489
-0.004803939449
-0.004117461925
-0.003508098685
-0.002974031961
-0.002512338916
-0.002120506753
-0.001788872742
-0.001508530091
-0.001269386361
-0.001065583819
-0.0008910807959
-0.0007424874408
-0.0006171490062
-0.0005120873788
-0.0004235603328
-0.0003485724581
-0.0002856649886
-0.0002329719109
-0.0001891704847
-0.0001523779537
-0.0001221415048
-9.750831988e-05
-7.728613196e-05
-6.096320953e-05
-4.777998166e-05
-3.698356305e-05
-2.832504797e-05
-2.146267884e-05
-1.612747028e-05
-1.204680852e-05
-8.824920925e-06
-6.364973243e-06
-4.52131374e-06
-3.174436048e-06
-2.191029724e-06
-1.48461521e-06
-9.778834473e-07
-6.294577171e-07
-3.941751176e-07
-2.424838244e-07
-1.471067054e-07
-8.642867791e-08
-4.863989433e-08
-2.68619193e-08
-1.423988399e-08
-7.132784461e-09
-3.328881485e-09
-1.543471613e-09
-7.334056252e-10
-3.386547694e-10
-1.335715826e-10
-5.409266365e-11
-2.252544851e-11
-8.75556976e-12
-3.719247063e-12
-1.18903563e-12
-2.206952601e-13
-2.847494991e-12
-1.285848936e-11
-1.098560061e-10
-2.576737525e-10
)


101
(
-2.64935137e-15
2.439279342e-07
-4.133783158e-06
-5.84515019e-05
-0.0002713707365
-0.0007755934069
-0.001690408358
-0.003123458688
-0.00512785056
-0.007709197901
-0.01083366121
-0.01442099292
-0.0183749072
-0.02252949224
-0.02672050265
-0.03077892511
-0.03451757235
-0.03772258953
-0.04031249942
-0.04213368488
-0.04312209083
-0.0433063402
-0.04273514866
-0.04146640443
-0.03961068549
-0.03730743014
-0.03469182517
-0.03188862383
-0.02901952434
-0.02618159659
-0.02345243161
-0.02088278203
-0.01848737998
-0.01632283409
-0.01435824374
-0.01259752785
-0.01102478103
-0.009624302398
-0.008402854555
-0.00735381938
-0.00644156976
-0.0056276049
-0.004899894619
-0.004249252115
-0.003671118217
-0.003166553553
-0.00272947505
-0.002353905641
-0.002028434133
-0.001745212282
-0.001496765962
-0.001278922802
-0.001089701139
-0.0009271596158
-0.0007875421916
-0.0006661110664
-0.0005611851722
-0.00047092811
-0.0003941259502
-0.0003275940593
-0.0002707317333
-0.0002232359341
-0.0001828442074
-0.0001491694914
-0.0001212772011
-9.774907508e-05
-7.807344878e-05
-6.17878332e-05
-4.839292013e-05
-3.786035038e-05
-2.922733323e-05
-2.228989826e-05
-1.675511192e-05
-1.246256216e-05
-9.149284417e-06
-6.629666547e-06
-4.732386946e-06
-3.312215568e-06
-2.256174809e-06
-1.511216377e-06
-9.967038571e-07
-6.519434206e-07
-4.106464768e-07
-2.536541824e-07
-1.529268817e-07
-8.894499472e-08
-4.905440283e-08
-2.636007255e-08
-1.40437347e-08
-7.394747247e-09
-3.619308691e-09
-1.672652043e-09
-8.037421664e-10
-3.601928922e-10
-1.634710086e-10
-5.914848434e-11
-1.367894879e-11
-1.622179161e-10
-6.735665227e-10
-4.714875563e-09
-8.645556278e-09
)


101
(
-2.614625944e-15
2.962762653e-07
-3.551571131e-06
-5.495620977e-05
-0.0002581278773
-0.00074102984
-0.001619931741
-0.003000016511
-0.004937101559
-0.007441809427
-0.01048753449
-0.01400379506
-0.01790381906
-0.02203803555
-0.02625313705
-0.03038929591
-0.03426982515
-0.03769317275
-0.04055674092
-0.04272069321
-0.04410107369
-0.04469664004
-0.04454512332
-0.04368751367
-0.04221076873
-0.0402375102
-0.03789141922
-0.03529021872
-0.03255379399
-0.02978314566
-0.02706407924
-0.02445484024
-0.02198046938
-0.01971316714
-0.01762447168
-0.01572322346
-0.01399446296
-0.01242138808
-0.01101207467
-0.009773038021
-0.008683683606
-0.007709620456
-0.006836520067
-0.006047357664
-0.005331380153
-0.004689767301
-0.004119498678
-0.003620640226
-0.003182485953
-0.002794699553
-0.002448891847
-0.002138158717
-0.001861138994
-0.001617143694
-0.001404251615
-0.001215354407
-0.001047946807
-0.000900608408
-0.0007719789489
-0.0006582421499
-0.0005589212233
-0.0004736299212
-0.000399278294
-0.0003350704127
-0.0002804438661
-0.000233512989
-0.0001930193552
-0.0001584235357
-0.0001288354507
-0.0001042969232
-8.386761852e-05
-6.688913746e-05
-5.27945038e-05
-4.124006854e-05
-3.185240394e-05
-2.432343749e-05
-1.842725865e-05
-1.375037206e-05
-1.005833015e-05
-7.232082387e-06
-5.11451234e-06
-3.598682288e-06
-2.478583324e-06
-1.667133208e-06
-1.106656068e-06
-7.144797352e-07
-4.461549388e-07
-2.685541075e-07
-1.60527656e-07
-9.426499299e-08
-5.317290232e-08
-2.82600968e-08
-1.525645476e-08
-7.895277556e-09
-4.002626528e-09
-1.745860956e-09
-5.063640049e-10
-4.934211591e-09
-1.843512124e-08
-1.042764134e-07
-2.009125095e-07
)


101
(
-2.579963313e-15
3.440940708e-07
-3.000882847e-06
-5.158873354e-05
-0.0002452966843
-0.0007074750676
-0.001551417984
-0.002879863967
-0.004750953818
-0.007179977625
-0.01014719888
-0.01359132752
-0.01743479103
-0.02154340611
-0.02577535871
-0.02998068342
-0.03399371755
-0.03762562408
-0.04076049953
-0.04326658997
-0.04504806589
-0.04607805051
-0.04637959394
-0.04597739781
-0.04493514377
-0.04335743369
-0.04135429085
-0.03903233691
-0.03650491403
-0.03387283317
-0.03122787854
-0.02863555395
-0.02612687224
-0.02378906339
-0.02160153267
-0.01957828946
-0.0177073853
-0.01597315268
-0.01438423959
-0.01295101974
-0.01166732036
-0.01050588202
-0.009459410523
-0.008507417605
-0.007632367678
-0.006832508978
-0.006104011327
-0.005452673894
-0.004872626616
-0.004352356748
-0.003882543927
-0.003452498653
-0.003061936421
-0.00271033379
-0.002397432374
-0.002115696867
-0.001861931365
-0.001633505898
-0.001429922763
-0.001245833958
-0.001081325093
-0.0009370973361
-0.0008088067143
-0.0006959510912
-0.000597117162
-0.000510643215
-0.0004341060647
-0.000367390386
-0.0003086108005
-0.0002578985047
-0.0002146087494
-0.0001772577732
-0.0001454153018
-0.0001182513291
-9.532959065e-05
-7.60411699e-05
-6.027582776e-05
-4.731466995e-05
-3.669945229e-05
-2.803144703e-05
-2.106606715e-05
-1.565919879e-05
-1.156346003e-05
-8.339438614e-06
-5.955693297e-06
-4.170051243e-06
-2.855412129e-06
-1.890152147e-06
-1.241275869e-06
-7.989742645e-07
-5.001018067e-07
-2.99331288e-07
-1.806645832e-07
-1.056483645e-07
-6.014165614e-08
-3.113956703e-08
-1.12851235e-08
-8.330932634e-08
-2.774820319e-07
-1.298387708e-06
-2.765714829e-06
)


101
(
-2.545363514e-15
3.874825339e-07
-2.481989346e-06
-4.835504855e-05
-0.0002329026724
-0.0006749780493
-0.001484928114
-0.002763084889
-0.004569558101
-0.006923994861
-0.009813225
-0.01318466454
-0.01696966313
-0.02104857878
-0.02529148549
-0.02955884369
-0.03369646926
-0.03752854528
-0.04093209197
-0.04378030727
-0.04597063704
-0.0474551185
-0.04824026111
-0.04833518036
-0.04778019949
-0.04666099577
-0.04507318234
-0.04310977771
-0.04087298901
-0.03845853982
-0.03596103131
-0.03345321625
-0.03097027407
-0.02860944537
-0.02636024747
-0.02424445667
-0.02225394983
-0.02037714662
-0.01862644527
-0.01700840806
-0.01552791772
-0.01416753284
-0.01292639392
-0.01178754061
-0.01073197118
-0.009754844483
-0.008848115439
-0.008020459701
-0.007272435191
-0.006591959988
-0.005968143744
-0.005391415024
-0.004860522726
-0.004370827744
-0.00392879151
-0.00352718533
-0.003158262283
-0.002819912546
-0.002514256386
-0.00223337484
-0.001977033664
-0.00174787239
-0.001538551627
-0.001351696766
-0.001184769677
-0.001036688741
-0.0009040359456
-0.0007848937639
-0.0006776120784
-0.0005810104943
-0.0004967644351
-0.000422003551
-0.0003576779664
-0.0003013592548
-0.0002517162694
-0.0002085143214
-0.0001715787509
-0.0001401296889
-0.0001135567558
-9.082954043e-05
-7.192570624e-05
-5.620449967e-05
-4.377417342e-05
-3.348981556e-05
-2.536834206e-05
-1.885043697e-05
-1.39070065e-05
-9.96060967e-06
-7.054818247e-06
-4.917816262e-06
-3.345145294e-06
-2.220452023e-06
-1.463437553e-06
-9.457776842e-07
-5.935568389e-07
-3.466868077e-07
-1.567286818e-07
-8.803900195e-07
-2.596170664e-06
-9.865568656e-06
-2.125229178e-05
)


101
(
-2.510826519e-15
4.265739157e-07
-1.994497424e-06
-4.525543935e-05
-0.0002209480952
-0.0006435394654
-0.001420456716
-0.002649673969
-0.00439294973
-0.006673999544
-0.009485959437
-0.01278453322
-0.0165097283
-0.02055568586
-0.02480459087
-0.0291277755
-0.03338288503
-0.03740733781
-0.04107599951
-0.0442656576
-0.04687048953
-0.04882590262
-0.05012106307
-0.05075093758
-0.05073285306
-0.05013249236
-0.04903029847
-0.04750450135
-0.04564286922
-0.04353105693
-0.04126176594
-0.03891421796
-0.03652897097
-0.03420871627
-0.03194864384
-0.02978289922
-0.02771042233
-0.0257242492
-0.02384301236
-0.02206530512
-0.02040011924
-0.01884041786
-0.01739603612
-0.01605517862
-0.01480343614
-0.01363561534
-0.01253719011
-0.01151842741
-0.01058048418
-0.009713500898
-0.00891007181
-0.00816341445
-0.007467272572
-0.006814605548
-0.006214139078
-0.00565903903
-0.005146262507
-0.004664249445
-0.004225173173
-0.003818229727
-0.003438080038
-0.003093684969
-0.002773432155
-0.002481945882
-0.002216377882
-0.001975481123
-0.00175802257
-0.001558179927
-0.001375447869
-0.001208378083
-0.001058598092
-0.0009231362887
-0.0008015498254
-0.0006933158405
-0.0005965418232
-0.0005103598537
-0.0004332944809
-0.0003655603632
-0.0003072405033
-0.0002553808404
-0.0002100756124
-0.0001717435806
-0.0001392681934
-0.0001122050643
-8.900299349e-05
-6.960240736e-05
-5.435058952e-05
-4.150262217e-05
-3.130066918e-05
-2.324674388e-05
-1.693021523e-05
-1.215486728e-05
-8.631724666e-06
-6.063082527e-06
-4.159012199e-06
-2.670993406e-06
-1.424969667e-06
-6.353217537e-06
-1.661650521e-05
-5.101643661e-05
-0.0001227473952
)


101
(
-2.476352392e-15
4.615145495e-07
-1.537752045e-06
-4.228815718e-05
-0.0002094277271
-0.0006131458752
-0.001357979782
-0.002539599789
-0.00422112585
-0.006430067447
-0.00916562794
-0.01239143099
-0.0160558813
-0.02006620265
-0.02431676517
-0.02869008391
-0.03305585008
-0.03726485171
-0.04119365984
-0.04472243612
-0.04774458018
-0.05018323307
-0.05201062131
-0.05320833669
-0.05377281055
-0.05374845551
-0.05319915375
-0.05218791708
-0.0507863989
-0.04906647928
-0.0471130722
-0.0450080468
-0.04279952778
-0.04059715297
-0.03839449573
-0.03623777534
-0.03413769337
-0.03209286049
-0.03012428739
-0.02822524393
-0.02640604521
-0.02466534928
-0.02302920298
-0.02148889016
-0.02003872996
-0.01867865093
-0.01738449859
-0.01616487214
-0.01502087292
-0.01394987548
-0.01294715473
-0.0120100602
-0.01112947753
-0.01029402603
-0.009502707187
-0.00876720906
-0.008082601736
-0.007429673991
-0.006825398271
-0.006261764844
-0.005725210765
-0.005228281508
-0.004764161347
-0.004332728214
-0.003931402566
-0.003557822212
-0.003220804537
-0.002906533627
-0.002617113429
-0.002346224864
-0.002097218897
-0.001866767749
-0.001657376285
-0.00146685676
-0.001293374081
-0.001133816382
-0.0009883664507
-0.0008579477011
-0.0007412151052
-0.0006356949915
-0.0005404543594
-0.0004576936706
-0.0003842165179
-0.0003214007356
-0.0002657749987
-0.0002166066614
-0.0001763117669
-0.000141359502
-0.0001120915635
-8.809561469e-05
-6.77226805e-05
-5.179074344e-05
-3.91751975e-05
-2.933359383e-05
-2.164211806e-05
-1.516588765e-05
-9.268481352e-06
-3.285938703e-05
-7.683988372e-05
-0.0001978225419
-0.0003769532232
)


101
(
-2.441944812e-15
4.924567101e-07
-1.110981711e-06
-3.945068642e-05
-0.0001983338571
-0.000583779434
-0.001297466942
-0.002432819893
-0.004054061503
-0.006192230762
-0.008852362762
-0.01200567721
-0.01560870126
-0.01958108654
-0.02382933182
-0.02824730387
-0.03271680468
-0.03710203288
-0.04128428788
-0.04514762547
-0.04858642644
-0.0515158198
-0.05389269994
-0.05568507164
-0.05687228776
-0.05747653442
-0.05754286365
-0.0571191414
-0.05626113654
-0.05502462516
-0.05348136191
-0.0517099253
-0.04976528618
-0.04776950611
-0.04570980013
-0.04363999241
-0.04158281366
-0.03954389168
-0.03754597115
-0.03558017999
-0.03365870263
-0.0317805561
-0.02998661979
-0.02827373089
-0.02664371222
-0.0251045868
-0.02362382991
-0.02220599527
-0.02085454964
-0.01957437705
-0.01836145644
-0.01721863624
-0.01613909299
-0.01510307776
-0.01410241657
-0.01317571533
-0.01229085654
-0.01144142182
-0.01063665304
-0.009887653882
-0.009166410829
-0.008484040679
-0.007838043306
-0.007225872384
-0.00665297254
-0.006110787363
-0.005605728562
-0.005137272164
-0.004700261189
-0.004286041248
-0.003899476883
-0.003534639403
-0.003195828376
-0.002881401677
-0.002589937493
-0.002316936805
-0.002065122863
-0.001836075108
-0.00162131133
-0.0014253346
-0.001246036763
-0.001083994552
-0.0009375345656
-0.0008076566814
-0.0006894037466
-0.00058152655
-0.0004892549975
-0.0004084566658
-0.0003374880489
-0.000276394187
-0.0002223530694
-0.0001788153703
-0.0001420264422
-0.0001122512794
-8.757335652e-05
-6.563405731e-05
-4.470795603e-05
-0.0001300058009
-0.0002737542295
-0.0006068366158
-0.001093676977
)


101
(
-2.407609366e-15
5.195553512e-07
-7.133773321e-07
-3.674025143e-05
-0.0001876579981
-0.0005554209018
-0.001238884995
-0.002329285181
-0.003891717234
-0.00596048895
-0.008546220726
-0.01162744914
-0.01516852097
-0.01910088735
-0.02334301273
-0.02780014665
-0.0323661526
-0.0369185258
-0.04134564652
-0.04553640177
-0.04938709946
-0.0528089066
-0.05574575315
-0.05815190169
-0.05999294274
-0.06126976496
-0.06200819313
-0.06224049891
-0.06200738323
-0.06134705157
-0.06031399618
-0.05897850187
-0.05739904587
-0.05571042436
-0.05389359781
-0.05200613834
-0.05007924998
-0.0481254472
-0.04617126247
-0.04421567681
-0.04226611849
-0.04031871541
-0.03842360324
-0.03658786442
-0.03481656683
-0.03312728364
-0.03148905892
-0.02990124568
-0.02836323533
-0.02688967057
-0.02547177611
-0.02412222328
-0.02284135154
-0.02160107672
-0.02039232582
-0.0192542883
-0.0181588888
-0.01708842607
-0.0160625522
-0.01509840461
-0.01416741653
-0.0132703606
-0.01241204008
-0.01158406564
-0.01079262719
-0.01004866334
-0.009336955089
-0.008665977689
-0.008037090537
-0.007430577491
-0.006860431714
-0.006317829912
-0.005798055998
-0.005308153682
-0.004847027609
-0.004413435572
-0.004005286682
-0.003623852763
-0.003266551829
-0.002929968029
-0.002613941838
-0.002323975074
-0.002058021772
-0.001811780412
-0.001587876855
-0.001379665581
-0.00119069787
-0.001023705776
-0.0008717009526
-0.000737526489
-0.0006171614739
-0.0005152993043
-0.0004253404151
-0.00034923658
-0.0002853619548
-0.0002256218627
-0.0001670513219
-0.0004112387087
-0.0007855977633
-0.001530847018
-0.002476230231
)


101
(
-2.373336764e-15
5.429665398e-07
-3.441092488e-07
-3.41539781e-05
-0.0001773914266
-0.0005280505326
-0.001182198915
-0.00222894104
-0.003734043265
-0.005734820136
-0.008247198148
-0.01125681074
-0.01473547978
-0.0186258265
-0.02285804488
-0.02734867423
-0.03200355813
-0.03671323588
-0.04137477631
-0.04588307507
-0.05013633565
-0.05404540543
-0.05754426307
-0.06057490874
-0.06309198861
-0.0650761745
-0.06653484403
-0.06748473487
-0.06795314529
-0.06796017748
-0.0675401211
-0.06675092673
-0.06565132175
-0.06438423434
-0.06292299732
-0.06132760576
-0.05963486296
-0.05786416126
-0.05604822252
-0.05419956533
-0.0523197143
-0.0503979189
-0.04848719097
-0.04660362388
-0.04475419912
-0.04296640372
-0.04121921038
-0.03951107626
-0.03783622302
-0.03621728401
-0.03462217558
-0.03308089809
-0.03161937737
-0.03019049207
-0.02878199805
-0.02742464612
-0.02612957872
-0.02483663832
-0.02358768867
-0.02239125466
-0.02124032636
-0.02010489866
-0.01900152161
-0.01792881063
-0.01689866274
-0.01590858587
-0.0149468249
-0.01403267159
-0.01315020285
-0.01230806378
-0.01150220914
-0.010734887
-0.009980218486
-0.009255921765
-0.008561921409
-0.007898342952
-0.007271972866
-0.006684962416
-0.00611470792
-0.005576342878
-0.005057698325
-0.00457666307
-0.004123591941
-0.003694791924
-0.003301786944
-0.002933867133
-0.002585753241
-0.002271878067
-0.001981201117
-0.001719857908
-0.001480428083
-0.001271318978
-0.001080332269
-0.0009159083454
-0.0007723386618
-0.0006362506463
-0.0004986429663
-0.001069710711
-0.001883388129
-0.003317483015
-0.005190161832
)


101
(
-2.339126993e-15
5.628455317e-07
-2.332983544e-09
-3.168895811e-05
-0.0001675253457
-0.0005016483732
-0.001127372605
-0.002131728672
-0.003580978774
-0.005515183346
-0.00795524932
-0.01089373758
-0.01430957602
-0.01815590207
-0.02237434591
-0.02689251869
-0.03162811116
-0.03648439984
-0.04136799938
-0.04618117646
-0.05082332483
-0.05520799622
-0.0592624496
-0.0629190353
-0.06612520228
-0.06884280102
-0.07106078366
-0.0727797106
-0.07401555467
-0.07477358094
-0.07506865842
-0.07494070333
-0.07444107654
-0.07371843354
-0.072736705
-0.07155799275
-0.07022217978
-0.06875496069
-0.06719813215
-0.06557553036
-0.06388657452
-0.06211386496
-0.06030647919
-0.0584814865
-0.05664883379
-0.05484627974
-0.05306316615
-0.05130360995
-0.04956522752
-0.04786779035
-0.04615586089
-0.04447477742
-0.04288205951
-0.0413040617
-0.03973652356
-0.03820302891
-0.03672900016
-0.03524836605
-0.03377568276
-0.0323508737
-0.03098201391
-0.02961246733
-0.02823904278
-0.02690486455
-0.02562054525
-0.02434556196
-0.02311344489
-0.0218959014
-0.02073339928
-0.01960272092
-0.01849955039
-0.01744751373
-0.01640250332
-0.0153857602
-0.01439182578
-0.0134180477
-0.01250506949
-0.01162330525
-0.01076644334
-0.0099506229
-0.009139794276
-0.008375597235
-0.007655196587
-0.006960988168
-0.006297239803
-0.00568160325
-0.005105007799
-0.004551997781
-0.004045989281
-0.003582745831
-0.003143815394
-0.002760077312
-0.002393116882
-0.002074158004
-0.001793146165
-0.001520780915
-0.001236875014
-0.002367201454
-0.003885088844
-0.006388171169
-0.01033586004
)


101
(
-2.30498009e-15
5.793472233e-07
3.128107656e-07
-2.934227846e-05
-0.0001580509641
-0.0004761944098
-0.001074369423
-0.002037586239
-0.003432453835
-0.005301522024
-0.007670309547
-0.01053813465
-0.01389070298
-0.01769097608
-0.02189166688
-0.02643111844
-0.03123853863
-0.03622961377
-0.04132076149
-0.04642227153
-0.05143543309
-0.0562784575
-0.06087558197
-0.06515066756
-0.06904886453
-0.07251664717
-0.07552325446
-0.07805142288
-0.08010759311
-0.08168773075
-0.08279343358
-0.08344312337
-0.08366730282
-0.08361827087
-0.08324779187
-0.08262271655
-0.08178407582
-0.08076207145
-0.07960921221
-0.07835614171
-0.07700685004
-0.07553036715
-0.07397266125
-0.07234946003
-0.07067166848
-0.06897993554
-0.06727018721
-0.06556428881
-0.06385672866
-0.06217045222
-0.06045191042
-0.05873036527
-0.05707757073
-0.05543088682
-0.05377969834
-0.05213849196
-0.05054347202
-0.04893596107
-0.04728841295
-0.04566801598
-0.0440762242
-0.04249719639
-0.04087276524
-0.03929786325
-0.03775112274
-0.03618113523
-0.0346389661
-0.03310603788
-0.0316353837
-0.03016456182
-0.02870767514
-0.0273119685
-0.02590291117
-0.02453673935
-0.02318137504
-0.02180678554
-0.02049878423
-0.01921347826
-0.01799299164
-0.01678305062
-0.01557959911
-0.01443390637
-0.01331407838
-0.01224875523
-0.01122243429
-0.01022153702
-0.00929596309
-0.008399336201
-0.007554781352
-0.006781526257
-0.006029594209
-0.005365038378
-0.00473508719
-0.004167204873
-0.003667932611
-0.003170945195
-0.002647641482
-0.004659768518
-0.007277808755
-0.01142295046
-0.01599864595
)


101
(
-2.270896116e-15
5.926260433e-07
6.022107813e-07
-2.711102123e-05
-0.0001489595268
-0.0004516686756
-0.001023152451
-0.001946449537
-0.003288389449
-0.005093764781
-0.007392302197
-0.01018985931
-0.01347867599
-0.0172308179
-0.02140964676
-0.02596381428
-0.03083342628
-0.03594616274
-0.04122821275
-0.04659733319
-0.05195969087
-0.05723865553
-0.06235968573
-0.06723748838
-0.07181964037
-0.076043597
-0.07985733549
-0.08322380571
-0.08614196168
-0.088602676
-0.09059890846
-0.09213114833
-0.09320245283
-0.0939596074
-0.09434019365
-0.09441935368
-0.09423727537
-0.09382209726
-0.09323685907
-0.09252156965
-0.0916771259
-0.09066777924
-0.08954070035
-0.08829699722
-0.08694387056
-0.0855291
-0.08405843426
-0.08256725111
-0.08101976489
-0.07947441558
-0.07789747972
-0.07628858581
-0.07469605897
-0.07311033555
-0.07148624406
-0.06981371139
-0.06820232311
-0.06657357875
-0.06484101032
-0.06308586632
-0.06134412972
-0.05960498877
-0.05780456464
-0.05604554065
-0.05421701964
-0.05242000825
-0.05057955298
-0.04870734659
-0.04688388347
-0.04502886999
-0.04319814737
-0.04139008903
-0.03956405814
-0.03777308836
-0.03598044092
-0.03413967427
-0.03228327693
-0.03051811493
-0.02877342833
-0.02704278021
-0.02534880561
-0.02368475072
-0.02198864191
-0.02040350113
-0.01885690929
-0.01733560828
-0.01588587367
-0.0145042885
-0.01315363866
-0.01190797229
-0.01070540951
-0.009599042198
-0.008582470339
-0.007631978506
-0.006798152838
-0.005966171413
-0.005087273701
-0.008420620814
-0.01271965053
-0.01961353041
-0.02819464213
)


101
(
-2.236874982e-15
6.028371915e-07
8.664702559e-07
-2.49922558e-05
-0.0001402422668
-0.0004280511854
-0.0009736845186
-0.001858252471
-0.003148694982
-0.00489181903
-0.007121141775
-0.00984874739
-0.01307326364
-0.01677511805
-0.02092779031
-0.02548977778
-0.03041123816
-0.03563133639
-0.04108603092
-0.04669878575
-0.05238500887
-0.05807280783
-0.0636923341
-0.06914909414
-0.07439499796
-0.07936707059
-0.08399403628
-0.0882171896
-0.09202911434
-0.09541755962
-0.09836664795
-0.1008658775
-0.1028985689
-0.1045930766
-0.1058678158
-0.1068110042
-0.1074610462
-0.1078333834
-0.1079933932
-0.1079941033
-0.1078408149
-0.1074984732
-0.1070030867
-0.1063458014
-0.1055278544
-0.1046026643
-0.1035838822
-0.1025119953
-0.1013275867
-0.1001137207
-0.09886290284
-0.09756409931
-0.09622772822
-0.09488045191
-0.09346918446
-0.09192851465
-0.09044226823
-0.08890862427
-0.08725058449
-0.08550277276
-0.08372349639
-0.0819158599
-0.08006600971
-0.07820859838
-0.076196174
-0.07423652383
-0.07211231653
-0.06993622615
-0.06775509454
-0.06557699721
-0.0633548105
-0.06107602336
-0.05877840872
-0.05647607583
-0.05412236035
-0.05172990869
-0.04933519184
-0.046890708
-0.04446495866
-0.04206747902
-0.03974278518
-0.03734062608
-0.03493460322
-0.0326052511
-0.03033978685
-0.02808446515
-0.02585769929
-0.02378248245
-0.02171440143
-0.01977356305
-0.01795249413
-0.01617663122
-0.01457425451
-0.01308737405
-0.01172644225
-0.01039178017
-0.008983060411
-0.01437400645
-0.02141899768
-0.0331292389
-0.04915169799
)


101
(
-2.202916751e-15
6.101360388e-07
1.106701002e-06
-2.298306568e-05
-0.0001318905001
-0.0004053221805
-0.0009259288321
-0.001772928964
-0.003013270267
-0.004695565661
-0.006856737457
-0.009514638574
-0.01267423146
-0.01632352868
-0.02044546704
-0.02500789028
-0.02997009174
-0.0352821029
-0.04088991148
-0.04672169091
-0.05270392727
-0.05876963672
-0.06485406271
-0.0708582648