/*--------------------------------*- C++ -*----------------------------------*\
| =========                 |                                                 |
| \\      /  F ield         | OpenFOAM: The Open Source CFD Toolbox           |
|  \\    /   O peration     | Version:  2.3.1                                 |
|   \\  /    A nd           | Web:      www.OpenFOAM.org                      |
|    \\/     M anipulation  |                                                 |
\*---------------------------------------------------------------------------*/
FoamFile
{
    version     2.0;
    format      ascii;
    class       dictionary;
    location    "constant";
    object      rCH3;
}
// * * * * * * * * * * * * * * * * * * * * * * * * * * * * * * * * * * * * * //

rCH3_table
101
(

101
(
-4.748972271e-11
-3.788122647e-05
-0.00191878966
-0.01591845352
-0.06406502591
-0.1753737069
-0.3802906013
-0.7171045016
-1.218211208
-1.920267536
-2.855310998
-4.059608487
-5.5623633
-7.405464412
-9.613374252
-12.20940924
-15.21068155
-18.62045626
-22.40807162
-26.53782572
-30.93737507
-35.51191274
-40.12063268
-44.6456564
-48.96376507
-52.9496624
-56.50300272
-59.55160404
-62.01840699
-63.88080938
-65.12599477
-65.77277412
-65.87149776
-65.34159164
-64.33366619
-62.87927707
-65.1082999
-70.30098669
-67.4518077
-64.28744511
-60.90324421
-57.32649485
-53.63742681
-49.87583625
-46.07539883
-42.30647962
-38.57424332
-34.95535832
-31.43989062
-28.09296585
-24.90999332
-21.92086073
-19.13333732
-16.56075985
-14.21210909
-12.07256649
-10.19007737
-8.489719163
-7.015694315
-5.723183673
-4.629728643
-3.686454304
-2.887726387
-2.226952328
-1.706698011
-1.276568586
-0.936545441
-0.6759957684
-0.4795169686
-0.3305321268
-0.223959087
-0.1468192378
-0.09383124303
-0.05874962748
-0.04450850173
-0.03175607219
-0.0176750583
-0.009618273003
-0.005081653182
-0.00260112144
-0.001264200248
-0.0006341095538
-0.0003083405676
-0.0002370536856
-0.0001710361197
-8.752035215e-05
-4.479432797e-05
-2.263346561e-05
-1.111872893e-05
-1.186528652e-05
-6.006098002e-06
-2.384965356e-06
-9.172411558e-07
-6.727229136e-07
-3.877355189e-07
-8.154612951e-08
2.538542531e-13
2.247522351e-28
-1.334563172e-23
3.060391174e-23
2.289709955e-21
)


101
(
-4.700878787e-11
-3.116538935e-05
-0.001791922357
-0.01502595365
-0.06054757724
-0.1655847305
-0.3583972482
-0.673847434
-1.141348407
-1.793112417
-2.657090522
-3.76386145
-5.138269072
-6.813568247
-8.811371279
-11.14904266
-13.83817892
-16.87907937
-20.25066177
-23.90641425
-27.79988032
-31.84274366
-35.90942672
-39.90387125
-43.71768465
-47.24007435
-50.38119221
-53.07653518
-55.26332553
-56.91846532
-58.03225084
-58.61478722
-58.69087355
-58.20085419
-57.22430954
-55.79290259
-55.91261522
-58.19373328
-57.72911829
-55.42546797
-52.54932008
-49.45941612
-46.28979147
-43.08992232
-39.88341133
-36.71011639
-33.58720732
-30.54670065
-27.60909563
-24.8001122
-22.13584407
-19.6281994
-17.28373216
-15.09381445
-13.07669731
-11.24125374
-9.599297494
-8.130432359
-6.830720815
-5.687642224
-4.694664841
-3.83648002
-3.09779197
-2.468594425
-1.944517599
-1.514981096
-1.16286374
-0.8793629011
-0.653708897
-0.4771147114
-0.3418945189
-0.2402299501
-0.1655326907
-0.1105313837
-0.07282476666
-0.04733715076
-0.02915349793
-0.017204919
-0.009834853544
-0.005412009179
-0.00284457767
-0.001389245421
-0.0006436179338
-0.0002727258791
-0.0001064077839
-4.552738986e-05
-2.622380587e-05
-1.504922983e-05
-6.163955832e-06
-3.204691611e-06
-1.747010639e-06
-8.535591716e-07
-4.318187142e-07
-1.765227112e-07
-8.245776448e-08
-3.470242268e-08
-8.850327599e-09
-2.241209905e-08
-5.542666967e-08
-3.453865593e-07
-6.364961898e-08
)


101
(
-4.652859309e-11
-2.489249641e-05
-0.001671530245
-0.01417606004
-0.05720413986
-0.1563175551
-0.3377835386
-0.6334005218
-1.069977225
-1.675977357
-2.475989582
-3.496049131
-4.757643672
-6.287595412
-8.105442858
-10.22504408
-12.65485223
-15.39428908
-18.43041546
-21.71480169
-25.21759445
-28.86288944
-32.5408739
-36.17198417
-39.66340787
-42.91799568
-45.85471121
-48.41446911
-50.54342728
-52.21762412
-53.42809521
-54.1813045
-54.48540312
-54.29395821
-53.62179263
-52.51063041
-52.07555113
-52.89173634
-53.00840165
-51.77331688
-49.69086819
-47.20571679
-44.58945206
-41.93082321
-39.24874571
-36.57857421
-33.93870598
-31.33669444
-28.79866631
-26.33742655
-23.97201703
-21.71280897
-19.57362425
-17.55065798
-15.64266747
-13.85860787
-12.20578973
-10.69264273
-9.313768746
-8.062348747
-6.937352848
-5.928693485
-5.025611361
-4.226205072
-3.525364942
-2.916157758
-2.386783951
-1.932510728
-1.548307361
-1.222559143
-0.9517838634
-0.7283667376
-0.5513329336
-0.4093317088
-0.2972016458
-0.2110321965
-0.1459960302
-0.09856688867
-0.06513265545
-0.04188426644
-0.02618667937
-0.015677051
-0.009088886879
-0.004963761283
-0.002528779497
-0.001209725737
-0.0005771280664
-0.0003069777816
-0.00014483678
-6.00320486e-05
-2.762572567e-05
-1.368499342e-05
-7.612265185e-06
-3.702240802e-06
-1.870336138e-06
-8.905849004e-07
-3.403913675e-07
-1.311788469e-06
-3.499383097e-06
-1.983868304e-05
-1.253363228e-05
)


101
(
-4.604913809e-11
-1.904570993e-05
-0.001557370538
-0.01336714417
-0.05402748513
-0.1475469899
-0.3183756473
-0.5955730837
-1.003671014
-1.567971299
-2.310298559
-3.253059614
-4.415157382
-5.818651046
-7.481567812
-9.415893925
-11.62859914
-14.11950075
-16.88248419
-19.87228732
-23.07031591
-26.4146054
-29.81104427
-33.19344104
-36.48314532
-39.59625437
-42.45937391
-45.01686402
-47.22054496
-49.04478752
-50.47855425
-51.52842753
-52.19276364
-52.43713314
-52.23295602
-51.49875763
-51.194337
-51.471892
-51.6870779
-51.22117879
-49.97475714
-48.2066304
-46.1955491
-44.07403972
-41.89394272
-39.69705117
-37.49389065
-35.29108688
-33.0952368
-30.92407229
-28.78442226
-26.69449659
-24.67096321
-22.71549517
-20.8269145
-19.01739802
-17.27344559
-15.62070999
-14.06369938
-12.59679338
-11.23142455
-9.963813589
-8.78718047
-7.703415033
-6.7091627
-5.799128155
-4.972959472
-4.224270263
-3.563383439
-2.976469892
-2.457270851
-2.001588389
-1.613911183
-1.284635561
-1.00626416
-0.7745986691
-0.5844144094
-0.4323439582
-0.3141208855
-0.2241851093
-0.1569186284
-0.1064091877
-0.07039300179
-0.04509120749
-0.02768269332
-0.01621649719
-0.009019685323
-0.005086814787
-0.002823906261
-0.001431687374
-0.0006642818736
-0.000318827119
-0.0001555180152
-7.595463144e-05
-3.858958727e-05
-1.756064179e-05
-4.678408936e-06
-4.640245733e-05
-0.0001496309818
-0.0007995772319
-0.001591859534
)


101
(
-4.557042263e-11
-1.360840967e-05
-0.001449198823
-0.0125975021
-0.05100979207
-0.1392458976
-0.3000963663
-0.5601703786
-0.9420039004
-1.468228122
-2.158396847
-3.03201419
-4.10599818
-5.398892062
-6.927628129
-8.703399218
-10.73277921
-13.01678048
-15.55504415
-18.30796793
-21.26516215
-24.37820779
-27.56827876
-30.78030534
-33.94855174
-37.00093878
-39.8711747
-42.50687101
-44.86321511
-46.91261071
-48.6377256
-50.04782532
-51.13357374
-51.87609193
-52.24069341
-52.16545682
-52.10071501
-52.34977227
-52.70461749
-52.74950005
-52.24408874
-51.22515639
-49.88070641
-48.34443361
-46.69095104
-44.9776845
-43.21718931
-41.41705937
-39.57387737
-37.70724733
-35.81255136
-33.90573242
-32.00718727
-30.12991704
-28.26825342
-26.42422141
-24.60981267
-22.82872425
-21.09776238
-19.4021039
-17.77149192
-16.21439271
-14.72420406
-13.31215716
-11.9747771
-10.69649122
-9.491742085
-8.364122147
-7.32537739
-6.374080833
-5.489021372
-4.680483471
-3.954123481
-3.311241998
-2.741831726
-2.241495995
-1.802100105
-1.429166721
-1.116260518
-0.8592732812
-0.652241731
-0.4839627068
-0.3517887159
-0.2507580315
-0.1738785613
-0.1164953754
-0.07489997195
-0.04729090001
-0.02963483913
-0.01796667685
-0.009986348846
-0.005449746848
-0.00289092857
-0.001483219206
-0.0007987750707
-0.0003792860775
-0.0001257946206
-0.001206555994
-0.003273782248
-0.01361187849
-0.0216333044
)


101
(
-4.509244635e-11
-8.564287028e-06
-0.001346775814
-0.01186545996
-0.04814337986
-0.1313879676
-0.2828722915
-0.5270107486
-0.8845853258
-1.37596814
-2.018850186
-2.830413852
-3.826050438
-5.021736764
-6.433606293
-8.072743073
-9.946059701
-12.05619004
-14.40761693
-16.96747466
-19.73172953
-22.66425829
-25.70071982
-28.79565958
-31.89485814
-34.93715676
-37.86283674
-40.62271701
-43.1744657
-45.48913789
-47.54592057
-49.34287949
-50.8742165
-52.13061327
-53.0752726
-53.65702608
-54.0761568
-54.5854915
-55.19252059
-55.68112087
-55.82166586
-55.53266694
-54.89320109
-54.0012809
-52.92793639
-51.73908578
-50.46125915
-49.11518982
-47.69203455
-46.19846055
-44.62174947
-42.97037181
-41.26678918
-39.5369314
-37.78127303
-35.98460222
-34.16295038
-32.32382107
-30.49543542
-28.64372144
-26.79378029
-24.98952855
-23.20835547
-21.47947872
-19.80809265
-18.16743027
-16.56775878
-15.01958898
-13.53485634
-12.15382352
-10.82705168
-9.569004268
-8.386235126
-7.297526499
-6.297457135
-5.385060176
-4.555310294
-3.808714826
-3.139272316
-2.55864525
-2.061853937
-1.642888071
-1.28328732
-0.9887461896
-0.7475520155
-0.5531869888
-0.3956189155
-0.2773668957
-0.1912936738
-0.1305753126
-0.08436590144
-0.05264486812
-0.03256328184
-0.01907728974
-0.01132800837
-0.006035576425
-0.00245975882
-0.01486521729
-0.03753800946
-0.143452633
-0.2343798443
)


101
(
-4.461520927e-11
-3.897416279e-06
-0.001249869456
-0.01116940275
-0.04542089435
-0.1239483287
-0.2666350651
-0.4959273074
-0.8310610624
-1.290493354
-1.890389983
-2.646076537
-3.571763596
-4.681582791
-5.991073257
-7.511615072
-9.250943582
-11.21348816
-13.40778932
-15.80796034
-18.41513105
-21.20392289
-24.12353335
-27.13699893
-30.20016301
-33.2622738
-36.27012568
-39.17741231
-41.94381582
-44.53984308
-46.94199541
-49.13964894
-51.12422949
-52.8925305
-54.41245368
-55.63787134
-56.64503174
-57.60119022
-58.58983695
-59.53485249
-60.27331047
-60.68248469
-60.76416008
-60.56659763
-60.13805324
-59.53909362
-58.80590721
-57.98033113
-57.05735918
-56.02892161
-54.88097924
-53.60038408
-52.20747231
-50.73645773
-49.20822386
-47.58838767
-45.88244549
-44.10706139
-42.28674864
-40.39750018
-38.46139272
-36.51878384
-34.55200349
-32.58024637
-30.63474893
-28.69357938
-26.74924916
-24.81434109
-22.89779115
-21.04852744
-19.25408958
-17.5125335
-15.82228266
-14.20358893
-12.66343616
-11.21094936
-9.85675915
-8.585715933
-7.395117125
-6.306234754
-5.325584637
-4.466354145
-3.693073072
-3.015531694
-2.434108373
-1.933054039
-1.501478958
-1.140548565
-0.8563487863
-0.6375479552
-0.4588626208
-0.3177383438
-0.2201784235
-0.1471110989
-0.09763741228
-0.05843327691
-0.02783821158
-0.1424791168
-0.3099031996
-0.9147466738
-1.39373941
)


101
(
-4.413871077e-11
4.07734432e-07
-0.001158255207
-0.0105077804
-0.04283535753
-0.1169037436
-0.2513218767
-0.4667687954
-0.7811119515
-1.211181589
-1.771899489
-2.477102551
-3.340086678
-4.373671781
-5.592957377
-7.009815176
-8.633078428
-10.46902029
-12.52956213
-14.79555623
-17.2724676
-19.9440497
-22.77181928
-25.72659579
-28.77278555
-31.86964791
-34.97104896
-38.03366041
-41.01875342
-43.89685504
-46.64308457
-49.24088204
-51.67625421
-53.94687224
-56.02856924
-57.88057472
-59.51571662
-61.02769963
-62.50936481
-63.95910976
-65.28448526
-66.36871882
-67.17726402
-67.71181748
-67.99143116
-68.06221721
-67.95489027
-67.72259727
-67.37778193
-66.90909094
-66.2997094
-65.51507071
-64.57429281
-63.50745795
-62.34111558
-61.0499947
-59.63281309
-58.08482546
-56.4352302
-54.65980457
-52.78210013
-50.84703816
-48.84110964
-46.78206473
-44.69405998
-42.57429442
-40.39985493
-38.19483938
-35.94843203
-33.71056625
-31.49818143
-29.29781552
-27.11562793
-24.96055515
-22.85140721
-20.79488492
-18.8292458
-16.93971095
-15.12145905
-13.38109676
-11.73331833
-10.22043459
-8.835468676
-7.547988939
-6.397551431
-5.36046417
-4.423523896
-3.580701649
-2.8729454
-2.28028719
-1.780969491
-1.340475991
-1.010841384
-0.7464367386
-0.5416409472
-0.3708596864
-0.2068895307
-0.7994582415
-1.562109018
-3.902664105
-5.715505553
)


101
(
-4.366295095e-11
4.366320013e-06
-0.001071716317
-0.009879109712
-0.04038016008
-0.1102324914
-0.236874971
-0.4393982742
-0.7344506175
-1.137478641
-1.66239448
-2.321841072
-3.128398314
-4.093969257
-5.233319924
-6.558881598
-8.0806971
-9.806838833
-11.75203634
-13.9033973
-16.27012687
-18.84355231
-21.59604486
-24.50598504
-27.5448961
-30.68138203
-33.87727537
-37.0929243
-40.29091134
-43.44193084
-46.52090231
-49.50840981
-52.38520715
-55.14453098
-57.77009094
-60.22577583
-62.49282269
-64.61371997
-66.66582544
-68.67450274
-70.60241125
-72.36216002
-73.9004281
-75.18867826
-76.2220882
-77.0308803
-77.63419381
-78.08271344
-78.40673759
-78.59361852
-78.61864532
-78.45349181
-78.10570382
-77.57931885
-76.92448043
-76.12786096
-75.16316897
-74.02260117
-72.73597153
-71.2739797
-69.65490826
-67.92192514
-66.05150207
-64.0863804
-62.04283952
-59.93559666
-57.73551258
-55.43831448
-53.03376849
-50.53951833
-48.025101
-45.47061784
-42.92256913
-40.34819727
-37.74017007
-35.12576883
-32.55338339
-30.02646736
-27.54328594
-25.08548205
-22.68940004
-20.38282077
-18.23228837
-16.15135914
-14.21910343
-12.38897388
-10.7158031
-9.11178122
-7.692473809
-6.434701717
-5.312719403
-4.277700042
-3.445260882
-2.741206389
-2.136313459
-1.621596539
-1.034530794
-3.105387423
-5.519358444
-11.95430636
-17.23547558
)


101
(
-4.318792903e-11
7.993121814e-06
-0.0009900433465
-0.009281971945
-0.03804903941
-0.1039141748
-0.2232406682
-0.4136902084
-0.6908167899
-1.068887695
-1.56100132
-2.17884295
-2.934422663
-3.839015569
-4.907124848
-6.151727248
-7.584072919
-9.213927691
-11.05833868
-13.11008453
-15.38167509
-17.87063734
-20.55843403
-23.43127788
-26.46664894
-29.64155479
-32.92611879
-36.28525569
-39.68303384
-43.09023
-46.48201871
-49.83885988
-53.13914007
-56.36852499
-59.51377203
-62.54587297
-65.43344152
-68.18549654
-70.85704134
-73.47185814
-76.02335281
-78.4562126
-80.72446943
-82.78184237
-84.60476391
-86.20688007
-87.59407879
-88.81038679
-89.8840373
-90.81056364
-91.57303335
-92.14985466
-92.52837003
-92.69999911
-92.70850447
-92.54418263
-92.20574115
-91.64250908
-90.91110391
-89.97347554
-88.82282439
-87.51617626
-86.01357253
-84.36299288
-82.57990895
-80.68435597
-78.66948494
-76.49812785
-74.16251179
-71.6695171
-69.07934339
-66.38902208
-63.6239034
-60.79194491
-57.8711076
-54.86987045
-51.8091144
-48.73874873
-45.6888216
-42.57984958
-39.43741492
-36.35002976
-33.36591611
-30.4552715
-27.59882475
-24.8107274
-22.22553486
-19.64980077
-17.25053503
-15.03703774
-12.96107586
-11.00810041
-9.309725203
-7.826807739
-6.447232947
-5.192971824
-3.741313815
-9.148031069
-14.88681445
-28.09521044
-39.63408911
)


101
(
-4.271364544e-11
1.130253399e-05
-0.0009130342341
-0.008715012852
-0.03583608803
-0.0979297308
-0.2103691221
-0.3895289973
-0.6499759489
-1.004968004
-1.466949279
-2.046836953
-2.756178428
-3.605829708
-4.610075284
-5.7823739
-7.135095415
-8.67956071
-10.43469876
-12.39833465
-14.58597841
-17.00033237
-19.63033799
-22.46966655
-25.50148836
-28.70999832
-32.07326867
-35.56156526
-39.14109253
-42.7830468
-46.46252036
-50.16053002
-53.85632633
-57.53075813
-61.16881552
-64.747514
-68.23410645
-71.61710326
-74.92569233
-78.17349856
-81.36830643
-84.47903823
-87.47780918
-90.31370227
-92.95201816
-95.39121563
-97.61967351
-99.66896193
-101.5602824
-103.3031315
-104.8896497
-106.3074828
-107.5321733
-108.540487
-109.3395515
-109.9588913
-110.4063808
-110.6083712
-110.6187646
-110.4065331
-109.9398772
-109.2680025
-108.3749435
-107.2757974
-105.9801426
-104.5100478
-102.9191751
-101.1324501
-99.14971498
-96.93325785
-94.53267344
-91.95565187
-89.2514808
-86.42295425
-83.44665164
-80.28738448
-76.97387628
-73.58046517
-70.13475879
-66.56879078
-62.85779446
-59.12218481
-55.39431938
-51.72171463
-47.99864683
-44.2056416
-40.6191976
-37.00711484
-33.48215211
-30.17124754
-26.88724222
-23.7441779
-20.87852733
-18.28584011
-15.79113523
-13.31504845
-10.32384081
-21.75614581
-32.74922974
-54.21257107
-68.74291861
)


101
(
-4.224011945e-11
1.43086134e-05
-0.0008404935923
-0.008176933926
-0.03373569584
-0.09226123944
-0.1982139595
-0.3668083118
-0.6117150391
-0.9453249287
-1.379553842
-1.924705613
-2.591939606
-3.391842989
-4.338508785
-5.445787257
-6.727013759
-8.194908304
-9.869926175
-11.75431309
-13.86629893
-16.21304675
-18.78969859
-21.59627936
-24.62215005
-27.85726384
-31.28650812
-34.88632822
-38.62628177
-42.4785537
-46.41787272
-50.42547989
-54.48309527
-58.57139544
-62.67185012
-66.76432366
-70.81884717
-74.81330695
-78.75526889
-82.64531642
-86.49508963
-90.28879647
-94.01598665
-97.63375896
-101.1030669
-104.4078883
-107.5167536
-110.4470637
-113.2169378
-115.8431359
-118.3231487
-120.6531446
-122.8128442
-124.7630948
-126.485518
-128.0443308
-129.4065999
-130.532018
-131.4382129
-132.134401
-132.5599617
-132.739133
-132.6675103
-132.3461358
-131.7963092
-131.0128937
-130.0511215
-128.9018072
-127.5315229
-125.8846816
-123.9848171
-121.8261361
-119.4679786
-116.9244876
-114.1799705
-111.1718083
-107.9226444
-104.5120968
-100.9189588
-97.1626835
-93.18336233
-89.03896177
-84.81156111
-80.57564923
-76.17562889
-71.52311184
-66.99819837
-62.472691
-57.91264515
-53.42219962
-48.88779982
-44.48323908
-40.28005234
-36.36607949
-32.55812085
-28.56330584
-23.65430064
-42.97082058
-60.1748922
-90.43848249
-109.6003377
)


101
(
-4.17673808e-11
1.702506525e-05
-0.0007722326899
-0.007666492013
-0.03174253997
-0.08689185101
-0.1867319407
-0.3454301748
-0.5758409254
-0.8896041605
-1.298205159
-1.811465023
-2.440202136
-3.194840638
-4.089298753
-5.137716608
-6.35421684
-7.75272496
-9.354952621
-11.16696306
-13.20929869
-15.49311511
-18.01868531
-20.79104019
-23.8057448
-27.05797329
-30.53887707
-34.23122359
-38.1089319
-42.1457581
-46.31616727
-50.60151531
-54.98624983
-59.45279642
-63.98076307
-68.55079266
-73.13581861
-77.70889281
-82.26246389
-86.78867996
-91.29381804
-95.77004758
-100.2182018
-104.6081443
-108.9032955
-113.0806662
-117.0958977
-120.9480556
-124.644881
-128.2091156
-131.6390414
-134.9398463
-138.0997683
-141.0756809
-143.8388247
-146.4353122
-148.8400917
-151.0096239
-152.9611821
-154.7088596
-156.1972363
-157.4195575
-158.3756632
-159.0487162
-159.452738
-159.6159436
-159.534755
-159.2402122
-158.7260683
-157.9012863
-156.7906155
-155.3608176
-153.6306766
-151.6511148
-149.4266
-146.9052386
-144.0481551
-140.911887
-137.5284463
-133.8789786
-129.9162912
-125.6807394
-121.2497124
-116.6904889
-111.9405426
-106.7601909
-101.4678528
-96.19277848
-90.81435853
-85.31163124
-79.65250509
-74.11788438
-68.68176318
-63.40844987
-58.27871866
-52.68331085
-45.77596286
-74.17791531
-97.11917843
-133.4614711
-151.5046289
)


101
(
-4.129537923e-11
1.946525146e-05
-0.0007080690842
-0.007182495446
-0.02985156684
-0.08180572068
-0.1758826349
-0.325303836
-0.5421791807
-0.8374902534
-1.222358224
-1.706245993
-2.299649698
-3.012894886
-3.859744991
-4.8545333
-6.012017948
-7.34711291
-8.882506408
-10.62752175
-12.60438325
-14.82791208
-17.30276597
-20.03811663
-23.03525095
-26.29392833
-29.81125645
-33.57639998
-37.56849442
-41.76330919
-46.13526622
-50.66617928
-55.34336186
-60.15043995
-65.06651218
-70.07285906
-75.14517313
-80.25568261
-85.38791019
-90.53001044
-95.67871708
-100.827066
-105.9817927
-111.1255996
-116.2275932
-121.2648015
-126.1894205
-130.9835598
-135.6436157
-140.1919224
-144.6125188
-148.9230627
-153.134203
-157.195
-161.0696625
-164.7795496
-168.3344822
-171.6574189
-174.7824707
-177.7030587
-180.3956629
-182.8107857
-184.9526518
-186.8055814
-188.3812103
-189.6804981
-190.6907749
-191.4632276
-191.9740902
-192.1989382
-192.1078209
-191.6699516
-190.8354908
-189.66685
-188.1910074
-186.3803829
-184.1960682
-181.6549925
-178.7244447
-175.4640329
-171.7886639
-167.7590373
-163.3812878
-158.7443504
-153.9086686
-148.541062
-142.7598658
-136.936239
-130.9759069
-124.7866473
-118.2318742
-111.7870346
-105.2969613
-98.94544952
-92.62083588
-85.60307024
-76.95571306
-113.2370576
-139.3306167
-177.238545
-191.5847512
)


101
(
-4.082411415e-11
2.164221895e-05
-0.0006478263105
-0.00672380121
-0.02805797173
-0.07698794747
-0.1656284188
-0.3063455096
-0.510570237
-0.788699625
-1.151527443
-1.608281386
-2.169133884
-2.844341643
-3.647537572
-4.593156914
-5.696475985
-6.97318817
-8.446648152
-10.12903889
-12.04335787
-14.20783945
-16.63095826
-19.32562635
-22.2983278
-25.5526121
-29.09089108
-32.90832454
-36.98997745
-41.31493206
-45.85834023
-50.60191004
-55.53494196
-60.64250818
-65.90413986
-71.30231183
-76.81565038
-82.41823016
-88.08951101
-93.81358824
-99.58044339
-105.3818328
-111.2239436
-117.0967915
-122.9767993
-128.846845
-134.6634484
-140.3958415
-146.0307525
-151.5819118
-157.0224898
-162.3752184
-167.669683
-172.8517743
-177.8892238
-182.7855341
-187.5550366
-192.1239802
-196.4978319
-200.6857835
-204.6812417
-208.4092945
-211.8481092
-215.0148348
-217.9126571
-220.4916669
-222.7719845
-224.7434342
-226.4559441
-227.8636641
-228.9272391
-229.631866
-229.8845596
-229.7172023
-229.1492987
-228.1748971
-226.8245436
-225.0206716
-222.7366501
-220.0340883
-216.7807421
-213.0890625
-208.9613539
-204.4163616
-199.5572263
-194.1840489
-188.2301291
-181.9787691
-175.6190027
-169.0165772
-161.7733271
-154.7376008
-147.276322
-140.1217021
-132.8867419
-124.7281538
-114.3473985
-154.7847973
-179.7495245
-214.660368
-226.1222519
)


101
(
-4.035358565e-11
2.356869292e-05
-0.0005913337651
-0.006289313602
-0.02635718716
-0.07242449169
-0.1559342775
-0.2884777987
-0.4808680482
-0.7429768217
-1.08528566
-1.516889426
-2.047648819
-2.687748745
-3.450715347
-4.350997924
-5.404260032
-6.626800932
-8.042306847
-9.665318549
-11.51913766
-13.62503254
-15.99494924
-18.64482878
-21.5860906
-24.82554072
-28.36971562
-32.21890795
-36.36448062
-40.79048211
-45.47468168
-50.39823524
-55.54977897
-60.91647961
-66.47899988
-72.22190157
-78.1270715
-84.17205862
-90.33590344
-96.59903209
-102.949192
-109.3717661
-115.8707763
-122.4422695
-129.0700045
-135.7393557
-142.4129437
-149.0617529
-155.659804
-162.209431
-168.6855678
-175.1017822
-181.4904695
-187.8123474
-194.0389159
-200.1577166
-206.180099
-212.0448128
-217.7257642
-223.2367898
-228.5691113
-233.6755487
-238.4913192
-243.0565534
-247.3489983
-251.2938172
-254.9136096
-258.1889261
-261.1766428
-263.8125498
-266.0703359
-267.9492244
-269.3240234
-270.2267325
-270.623281
-270.4759599
-269.8975044
-268.7957786
-267.1907797
-265.0087984
-262.1709319
-258.7985859
-254.8499873
-250.4042546
-245.541338
-240.0789025
-233.9801864
-227.373586
-220.567055
-213.5964497
-205.7520193
-198.2320609
-190.0269096
-182.1595057
-174.2945024
-165.0547628
-152.9134434
-192.9936339
-212.964416
-241.818574
-242.1994651
)


101
(
-3.988379417e-11
2.525708526e-05
-0.0005384264247
-0.005877981144
-0.02474487271
-0.06810215278
-0.1467676217
-0.2716291445
-0.4529385697
-0.7000910984
-1.023254803
-1.431465225
-1.934310088
-2.541879646
-3.267605152
-4.1258743
-5.132569868
-6.304433405
-7.665198483
-9.23110251
-11.02588615
-13.07320128
-15.38836018
-17.98921527
-20.89203586
-24.10675783
-27.64245084
-31.50348889
-35.68766153
-40.185119
-44.97770185
-50.04694013
-55.37964078
-60.9637465
-66.7818311
-72.82168111
-79.06850434
-85.50360669
-92.1082749
-98.86157094
-105.7469694
-112.7479396
-119.8666657
-127.0983147
-134.4321904
-141.8591985
-149.3509507
-156.8822134
-164.411093
-171.9377871
-179.4429304
-186.92531
-194.4049734
-201.8680259
-209.2776057
-216.6108841
-223.8934714
-231.0645297
-238.0670026
-244.9086952
-251.5922365
-258.0776331
-264.2949213
-270.2682439
-275.9281555
-281.2678011
-286.2248149
-290.7774217
-294.9839419
-298.7804619
-302.1695863
-305.1063918
-307.4954624
-309.3426474
-310.5857537
-311.1424287
-311.080817
-310.4904666
-309.2887844
-307.4228948
-304.8263058
-301.5314515
-297.4810738
-292.9017066
-287.777338
-282.0267632
-275.5772215
-268.5039286
-261.0526471
-253.5314632
-245.1096846
-236.9441472
-228.1455038
-219.5284368
-211.1121486
-200.9149538
-187.2959007
-222.6593332
-235.9184542
-260.0530692
-262.1117348
)


101
(
-3.941473806e-11
2.671951567e-05
-0.0004889444593
-0.005488792334
-0.02321689082
-0.06400849216
-0.138098074
-0.2557333194
-0.4266569727
-0.6598309643
-0.9650988068
-1.35147529
-1.828340094
-2.405656326
-3.096758518
-3.915917188
-4.879046179
-6.003190213
-7.311917079
-8.822261175
-10.55910231
-12.54758796
-14.80626132
-17.35382124
-20.21091952
-23.39098349
-26.90463489
-30.75905291
-34.95803583
-39.49815322
-44.36575979
-49.54439009
-55.02033939
-60.78039324
-66.80894733
-73.09821203
-79.63658221
-86.40790063
-93.3959091
-100.5813363
-107.947016
-115.4763744
-123.1650599
-131.0084828
-139.0007965
-147.1378888
-155.3989464
-163.7620592
-172.1808819
-180.6487084
-189.1486741
-197.6741679
-206.2280289
-214.808024
-223.3788075
-231.8978587
-240.405414
-248.8381584
-257.1342889
-265.2733328
-273.2603223
-281.0579454
-288.6182576
-295.9189028
-302.8688799
-309.4915638
-315.6554594
-321.3564184
-326.6173398
-331.4204935
-335.7222763
-339.4577644
-342.5793413
-345.0579647
-346.8139649
-347.7731456
-347.9664111
-347.4240556
-346.1919885
-344.2444794
-341.5101088
-337.8625552
-333.3790197
-328.2540402
-322.4985172
-316.0696446
-308.9122263
-301.1361954
-292.8069235
-284.4842261
-275.4635602
-266.4426498
-257.0220212
-247.721972
-238.660889
-227.6014455
-212.6531076
-241.8482318
-250.9470025
-276.3440172
-288.8916363
)


101
(
-3.894641775e-11
2.796780101e-05
-0.0004427332326
-0.005120777721
-0.02176931194
-0.06013181677
-0.1298973854
-0.240729297
-0.4019063452
-0.6219973026
-0.9105184155
-1.276453861
-1.729063333
-2.278135302
-2.936883501
-3.719422
-4.641541101
-5.720471317
-6.979528233
-8.435944255
-10.11576473
-12.04506072
-14.24500098
-16.7350609
-19.53915365
-22.67468352
-26.15347769
-29.98416756
-34.1756964
-38.73060135
-43.63977628
-48.89047687
-54.47105382
-60.36582026
-66.55987692
-73.05012941
-79.82871546
-86.88140918
-94.19436158
-101.7517608
-109.5368455
-117.5339502
-125.7350708
-134.1347605
-142.7297386
-151.5195766
-160.489968
-169.6240505
-178.8810798
-188.2405709
-197.6829529
-207.198392
-216.7795766
-226.4257145
-236.1043398
-245.7674893
-255.434921
-265.04428
-274.5526983
-283.9115017
-293.0761693
-302.065162
-310.8108546
-319.261645
-327.3204459
-334.9960972
-342.1460024
-348.7411865
-354.7830011
-360.270304
-365.1038923
-369.2824362
-372.7403756
-375.4123847
-377.2382276
-378.1585117
-378.1122234
-377.1406322
-375.3911409
-372.855915
-369.4669155
-365.062214
-359.7520472
-353.7412117
-346.9419102
-339.5954514
-331.4913174
-322.821551
-313.5214221
-304.3040936
-294.6554512
-284.8711944
-274.8302076
-264.9923678
-255.4687599
-243.936252
-228.277246
-253.933282
-265.8520018
-301.8952185
-335.8692654
)


101
(
-3.847883368e-11
2.901347131e-05
-0.0003996431233
-0.004773005874
-0.02039839528
-0.05646110849
-0.1221392286
-0.2265608321
-0.3785796971
-0.5864079601
-0.85924512
-1.205987711
-1.635886323
-2.15850045
-2.786877809
-3.534949895
-4.418254611
-5.454095239
-6.665516548
-8.06973804
-9.693475157
-11.5634524
-13.70205109
-16.13053455
-18.87442627
-21.95534357
-25.38680137
-29.17786513
-33.34105969
-37.88414457
-42.80259374
-48.08812362
-53.73322257
-59.72142942
-66.03765222
-72.68156536
-79.64938088
-86.92868699
-94.50704815
-102.3723233
-110.5112524
-118.9109023
-127.5608369
-136.4545866
-145.5895933
-154.9671283
-164.5788881
-174.4142102
-184.4407262
-194.6238325
-204.9366632
-215.369403
-225.9038911
-236.5300468
-247.2217581
-257.9367713
-268.6637371
-279.3376856
-289.9144272
-300.3321587
-310.5123909
-320.4904048
-330.1800871
-339.5158836
-348.4119619
-356.8193674
-364.6241135
-371.7574969
-378.1857499
-383.9071179
-388.8393448
-392.9918447
-396.2686149
-398.6205935
-400.0294722
-400.4255183
-399.715706
-397.9103938
-395.1812408
-391.6200398
-387.2231367
-381.8370024
-375.4975881
-368.4244697
-360.6278143
-352.2907254
-343.3622015
-333.9874629
-324.0160915
-314.2269946
-304.2843906
-294.1202847
-284.0289875
-274.1656052
-264.781718
-253.4757971
-238.313146
-267.3579474
-292.0966613
-348.6094484
-413.4940724
)


101
(
-3.801198422e-11
2.986777941e-05
-0.0003595290453
-0.004444580319
-0.01910057202
-0.05298596181
-0.1147990349
-0.2131755729
-0.3565779183
-0.5528952423
-0.8110217449
-1.139717937
-1.54827272
-2.046015898
-2.645762443
-3.36124724
-4.207651722
-5.202202664
-6.367681088
-7.72126397
-9.289809898
-11.10038499
-13.17556086
-15.53854346
-18.2154106
-21.2315819
-24.60339192
-28.34030631
-32.45618388
-36.96260898
-41.8599178
-47.14460549
-52.81363686
-58.85330292
-65.24881256
-71.99942568
-79.1052393
-86.55629802
-94.34039981
-102.4497169
-110.8756276
-119.609171
-128.639196
-137.9593138
-147.5654575
-157.4587282
-167.6371781
-178.0946571
-188.8009325
-199.7180565
-210.8130871
-222.0664501
-233.4606385
-244.9544844
-256.5285541
-268.144574
-279.7746246
-291.3381712
-302.7849617
-314.0387768
-325.0127037
-335.6987456
-346.0219501
-355.8983415
-365.2808631
-374.0297341
-382.0713761
-389.3064181
-395.670888
-401.1880211
-405.7723657
-409.396983
-412.0018466
-413.5807616
-414.1400855
-413.6372488
-411.9860022
-409.1362397
-405.2560713
-400.5608146
-395.1931807
-388.9334988
-381.8038758
-374.0246614
-365.6932766
-356.9506294
-347.8542562
-338.528735
-328.7594046
-319.2721579
-309.9345056
-300.4701194
-291.2793085
-282.428528
-274.1724312
-264.3472419
-251.3889194
-293.3693413
-340.6671819
-424.8790422
-523.5195014
)


101
(
-3.754587055e-11
3.054173017e-05
-0.0003222492904
-0.004134641374
-0.01787244917
-0.04969657775
-0.1078539443
-0.2005254319
-0.3358105375
-0.5213066291
-0.7656128502
-1.077327727
-1.465749481
-1.940022584
-2.512676151
-3.19723348
-4.008434583
-4.963234155
-6.084159621
-7.388394265
-8.902623639
-10.6537755
-12.66411457
-14.95813712
-17.56183008
-20.50357051
-23.8035181
-27.47216494
-31.52282112
-35.96989036
-40.81880852
-46.07079311
-51.72619274
-57.77470405
-64.20456645
-71.01432557
-78.2076653
-85.77694793
-93.70815226
-101.9983124
-110.6439366
-119.6407612
-128.9787349
-138.650926
-148.6526405
-158.9842644
-169.6455973
-180.6289194
-191.9109684
-203.4544676
-215.2181066
-227.1733343
-239.2978773
-251.5210474
-263.8193761
-276.1524589
-288.4788022
-300.7004336