/*--------------------------------*- C++ -*----------------------------------*\
| =========                 |                                                 |
| \\      /  F ield         | OpenFOAM: The Open Source CFD Toolbox           |
|  \\    /   O peration     | Version:  2.3.1                                 |
|   \\  /    A nd           | Web:      www.OpenFOAM.org                      |
|    \\/     M anipulation  |                                                 |
\*---------------------------------------------------------------------------*/
FoamFile
{
    version     2.0;
    format      ascii;
    class       dictionary;
    location    "constant";
    object      rCH4;
}
// * * * * * * * * * * * * * * * * * * * * * * * * * * * * * * * * * * * * * //

rCH4_table
101
(

101
(
-2.09672695e-12
-1.042218615e-06
-7.177904651e-06
0.0002246919989
0.001650466463
0.005837393218
0.0144407177
0.02948706841
0.05236304523
0.08474923436
0.1273072243
0.1809684484
0.2455146772
0.3215944682
0.4076440286
0.5019462777
0.6022682593
0.7057994207
0.8080686063
0.9056276877
0.9943054808
1.070092267
1.128203017
1.167127999
1.186344508
1.186216691
1.168730354
1.136811469
1.092711793
1.039865393
0.9809589977
0.918699827
0.8558274339
0.7905263071
0.7271297397
0.6659936585
0.6592455221
0.6880003342
0.6204257009
0.5563633445
0.4964080518
0.4406661314
0.3889772906
0.3413086006
0.2975922706
0.2577331437
0.2214640823
0.1888183191
0.1594418456
0.1333607809
0.1102715251
0.09003475135
0.07242108813
0.05725358627
0.04436703281
0.03347654572
0.02454729088
0.01715653791
0.01126918515
0.00660323882
0.003086573592
0.0004094950957
-0.001518268031
-0.002820888039
-0.003551321415
-0.003935405373
-0.004023162783
-0.003887730646
-0.003610146135
-0.003251178824
-0.002846465663
-0.002434022108
-0.002037616159
-0.001669239649
-0.001417511554
-0.001178564133
-0.0009175400437
-0.000702197466
-0.0005264468345
-0.0003849562507
-0.0002749848895
-0.0001942563871
-0.0001334998709
-0.0001017718496
-7.28730514e-05
-4.727194079e-05
-2.996215494e-05
-1.855005823e-05
-1.124091797e-05
-8.2144501e-06
-4.759158522e-06
-2.543798213e-06
-1.422764129e-06
-7.612660969e-07
-4.089696815e-07
-1.317512763e-07
2.787706676e-14
-2.235006228e-28
-1.813056313e-24
-1.907940862e-23
-2.289709955e-21
)


101
(
-2.074936505e-12
-1.061567748e-06
-1.085321176e-05
0.000166216749
0.001321357323
0.004716996268
0.01159900865
0.02342418896
0.04107174985
0.06561851437
0.09735985677
0.1368322272
0.1838646176
0.2389772867
0.301414905
0.3700829523
0.443556698
0.5200022647
0.5968136311
0.6701036301
0.7381704571
0.7972180829
0.8426098809
0.873483651
0.8890910176
0.889347952
0.8756078508
0.8501675939
0.8148523718
0.7724092366
0.7250962988
0.6751111876
0.6246789045
0.5719314826
0.5200184872
0.4695283024
0.4439635474
0.4445397944
0.4153193753
0.3709443588
0.3260110863
0.2842374324
0.2459808587
0.2112072648
0.1798122449
0.1515141473
0.1261709289
0.1035601989
0.08357331924
0.0660285294
0.05080234846
0.03769957031
0.02653519679
0.01707449088
0.00923897362
0.002905032897
-0.002100229079
-0.005930822143
-0.008772789892
-0.01075535518
-0.01200670069
-0.01266515516
-0.0128452769
-0.01264650334
-0.01213985838
-0.01140414972
-0.01051754157
-0.009534920326
-0.008510545284
-0.007485405834
-0.006491264546
-0.005549195425
-0.004675235323
-0.003875955947
-0.003209612463
-0.002656363295
-0.002154666725
-0.00170914753
-0.001329125498
-0.001013184966
-0.0007576400413
-0.0005562680005
-0.000399986407
-0.0002866714725
-0.0002053482659
-0.0001444332644
-9.904643251e-05
-6.569864102e-05
-4.259181206e-05
-2.761328169e-05
-1.765221592e-05
-1.113598528e-05
-6.76048256e-06
-3.975089262e-06
-2.413429956e-06
-1.337216657e-06
-3.672022376e-07
-5.516289742e-07
-8.560833505e-07
-1.818627754e-06
-3.389225353e-06
)


101
(
-2.053277678e-12
-1.071271682e-06
-1.404484176e-05
0.000113329585
0.001021405187
0.00369485081
0.009010050612
0.01791696221
0.03084370384
0.04834606737
0.07040224016
0.09722638876
0.1286892127
0.1652554997
0.206834182
0.2529600314
0.3029595003
0.3558919412
0.4106847773
0.4635412724
0.5143165406
0.5598067697
0.5955587386
0.6209206739
0.6350208327
0.6373645723
0.628675541
0.6106180081
0.5845677787
0.5526634499
0.5167601696
0.4786974215
0.4403059551
0.3998397127
0.3593037392
0.3195934288
0.293181525
0.2823906496
0.2651007725
0.2372345066
0.205549205
0.1747966985
0.1466137509
0.1212491561
0.09854816499
0.07824458913
0.06027440191
0.04432810573
0.03039530949
0.01826473312
0.007880118104
-0.000922371039
-0.008249480835
-0.01426815522
-0.01911003174
-0.02286336018
-0.02568217382
-0.0275853856
-0.02874914664
-0.02925276601
-0.0291941155
-0.02866601192
-0.02775745859
-0.02653810604
-0.02507841582
-0.02344420967
-0.02168926404
-0.01985714066
-0.0179928414
-0.01613939494
-0.01433449054
-0.01259959038
-0.01095866976
-0.009413909972
-0.00800134539
-0.006748351245
-0.005639550179
-0.004658127636
-0.003795827796
-0.003045457801
-0.002406195596
-0.001870484054
-0.001429594988
-0.001073507407
-0.0007935441952
-0.0005779374349
-0.0004199682804
-0.0003007783557
-0.0002097869226
-0.00014448202
-9.750849369e-05
-6.449907112e-05
-4.386508334e-05
-2.876461141e-05
-1.938151655e-05
-1.252066554e-05
-4.987494892e-06
-9.348896181e-06
-1.672963123e-05
-3.535028508e-05
-6.333444986e-05
)


101
(
-2.031750568e-12
-1.072341069e-06
-1.67898871e-05
6.565735576e-05
0.000748663658
0.002763993565
0.006654292414
0.01291759699
0.02157797341
0.03273541055
0.04608493818
0.06156410415
0.07906344215
0.09902339306
0.1218791003
0.147755959
0.1766643815
0.2084603875
0.2433425798
0.2779244101
0.3131008432
0.3463976315
0.3736133532
0.3941360565
0.4069782767
0.4113250792
0.4073101112
0.3959711076
0.3782374087
0.3557121489
0.3298435526
0.3022418573
0.2744482493
0.2448163165
0.2146947079
0.1834290921
0.16222264
0.1491713698
0.1361639739
0.118495711
0.09710117276
0.07539718957
0.0551484759
0.0369712821
0.02090506613
0.006658390154
-0.005821422179
-0.01679751124
-0.02629225969
-0.03444566141
-0.04131203363
-0.04699565706
-0.05156223062
-0.05511757278
-0.05775538396
-0.05952721901
-0.06062850021
-0.06097975281
-0.06074440383
-0.05996192039
-0.05869761994
-0.05700564089
-0.05495230149
-0.05259240295
-0.04998546907
-0.04718992323
-0.04424144162
-0.04118118888
-0.03805336288
-0.03489687681
-0.03176005231
-0.02867077477
-0.02567365501
-0.02277702695
-0.02000634615
-0.01740308059
-0.01499751131
-0.01280042757
-0.01081682213
-0.009043240089
-0.007474148682
-0.006092629545
-0.004895303608
-0.003870675363
-0.003008597983
-0.002297946155
-0.001730521462
-0.00130031974
-0.000960772984
-0.0006915043046
-0.0004889254407
-0.0003421891765
-0.0002431846698
-0.0001686785224
-0.0001180685898
-7.859287752e-05
-3.204120419e-05
-7.434485218e-05
-0.0001458089583
-0.0003271629549
-0.0006001417033
)


101
(
-2.010355272e-12
-1.065724053e-06
-1.912341924e-05
2.284743828e-05
0.0005013067149
0.001917964737
0.004513849041
0.008383053743
0.0131850534
0.01861530778
0.02410868521
0.02935153264
0.0342237554
0.03914162179
0.0449388461
0.0522667003
0.0617395344
0.07391986895
0.09007745096
0.1074015396
0.1275498384
0.1488186113
0.1673479623
0.1825074142
0.1932287208
0.1984176046
0.1976907102
0.191519652
0.1803766625
0.1653908884
0.1475472283
0.1283421612
0.1090649939
0.08814917425
0.0669521449
0.04496501611
0.02758042381
0.01590085902
0.005814063687
-0.006289183891
-0.02079904831
-0.03577999436
-0.04998854223
-0.06266093656
-0.07362070356
-0.08322286257
-0.09150506394
-0.09872845955
-0.1048494988
-0.1099509846
-0.1140503435
-0.1172454813
-0.119571914
-0.1210757388
-0.1218302539
-0.1218791965
-0.1213373225
-0.1201051854
-0.1183562672
-0.116101888
-0.1133869493
-0.1102260003
-0.1066712462
-0.1027587397
-0.09852997702
-0.09402812484
-0.08927614375
-0.08431685644
-0.07921097616
-0.07398785016
-0.0686822726
-0.06333584129
-0.05801765351
-0.05276597427
-0.04760757804
-0.0425859887
-0.03774791994
-0.03317288634
-0.02888859201
-0.02492813636
-0.02131871001
-0.01802863242
-0.01506425578
-0.0124188684
-0.01008140413
-0.008053465744
-0.006323659007
-0.004914469958
-0.003802473651
-0.002883462899
-0.002134330924
-0.001550550915
-0.001118320532
-0.0008111790196
-0.0005876133501
-0.0004026725057
-0.0001905229865
-0.000481002573
-0.0009433944291
-0.002034194692
-0.00350688089
)


101
(
-1.989091883e-12
-1.052308974e-06
-2.107858095e-05
-1.543336564e-05
0.0002776212928
0.001150773444
0.002572368759
0.004274684813
0.005585963597
0.005837659621
0.00421970824
0.0001796066644
-0.006450209122
-0.01529365017
-0.02523786126
-0.03518699578
-0.04400246363
-0.05050774335
-0.05252528893
-0.05220195979
-0.04726606332
-0.03865476646
-0.02979727424
-0.02132320766
-0.0143449474
-0.01016927483
-0.009636385771
-0.01278655265
-0.01959408359
-0.02934633111
-0.04143768564
-0.05478355408
-0.06805183432
-0.08292647461
-0.09788900226
-0.1133881631
-0.1267326381
-0.1364088381
-0.1444822548
-0.1535413022
-0.1641887592
-0.1751049638
-0.1855674895
-0.1947266068
-0.2023163163
-0.2088257843
-0.2142788519
-0.2189820589
-0.2228322659
-0.2259144829
-0.2281417149
-0.2296026662
-0.2303091457
-0.2302731852
-0.229537746
-0.2281471151
-0.2262055322
-0.2234789428
-0.2201850619
-0.2162906722
-0.2118727896
-0.206908414
-0.2014455571
-0.1955145135
-0.1891361909
-0.1823028679
-0.1750080358
-0.1672936039
-0.1592462275
-0.1509499365
-0.142374259
-0.1335477714
-0.1245435101
-0.1154579186
-0.1063499476
-0.09728293758
-0.08832276692
-0.07955991224
-0.07104251036
-0.06292407544
-0.05529414955
-0.04820430988
-0.04156470493
-0.03546018467
-0.02985679407
-0.0248062753
-0.02025761236
-0.01632614603
-0.01304366314
-0.01033774163
-0.007994895415
-0.006088185574
-0.004580751131
-0.00339982724
-0.002550696392
-0.001811566558
-0.0009674457929
-0.002247275832
-0.00438240544
-0.01078064979
-0.01939736467
)


101
(
-1.967960511e-12
-1.032926904e-06
-2.268667367e-05
-4.949988701e-05
7.599966937e-05
0.0004568596664
0.0008148837211
0.0005576488624
-0.001289379991
-0.005726727294
-0.01379965943
-0.02629609451
-0.04347135493
-0.06501553837
-0.08964744637
-0.1159178268
-0.1422418488
-0.1669217164
-0.1870105945
-0.2039527176
-0.2149395888
-0.2201644226
-0.2225347374
-0.2226238208
-0.2215506471
-0.2207442426
-0.2214308508
-0.2241382195
-0.2292796275
-0.2365133424
-0.2455869461
-0.2557820706
-0.2658527777
-0.2777144698
-0.289526448
-0.3017472019
-0.3129316712
-0.3217074121
-0.329237334
-0.3375119683
-0.3470955181
-0.3568825549
-0.3664780685
-0.3748588236
-0.3815639815
-0.3872106962
-0.3918414995
-0.3958920652
-0.399234194
-0.4019892736
-0.403898776
-0.4050411211
-0.4053850537
-0.4049307154
-0.4037016962
-0.4017525818
-0.3992168081
-0.395653961
-0.3913604763
-0.3861840699
-0.3802463595
-0.3735431654
-0.366099323
-0.3579614712
-0.349162849
-0.3396386963
-0.3292854763
-0.318099078
-0.3061745637
-0.2936714189
-0.2806236551
-0.2669894815
-0.252774649
-0.2380674568
-0.2229943576
-0.2076947658
-0.1923217101
-0.1768805051
-0.1614166796
-0.1462058775
-0.1314738071
-0.1174935112
-0.1040463152
-0.09129781245
-0.07931775376
-0.06811071954
-0.05764551711
-0.04810875855
-0.03976106274
-0.03267666231
-0.0263263444
-0.02081586466
-0.01636928733
-0.01266495592
-0.00984855908
-0.007119969609
-0.004125842035
-0.01056506857
-0.02071133243
-0.04825960685
-0.08341240362
)


101
(
-1.94696124e-12
-1.008354064e-06
-2.397724348e-05
-7.964964431e-05
-0.0001050655567
-0.0001689177596
-0.0007722115569
-0.002799201706
-0.007503028809
-0.0161904738
-0.03013571211
-0.05036523997
-0.07726221075
-0.1106170406
-0.1490791352
-0.190944662
-0.2342632339
-0.2769015972
-0.3152661557
-0.3500939842
-0.3780788751
-0.3987029756
-0.4142799229
-0.425233748
-0.4326560805
-0.4379928447
-0.442752869
-0.4479277019
-0.4543879202
-0.4621452354
-0.4712716695
-0.4813739226
-0.4913735821
-0.5035803063
-0.5157432437
-0.5283405182
-0.5405297984
-0.5510584714
-0.5606361243
-0.5710020316
-0.5827170873
-0.5947777276
-0.6070574381
-0.6183095296
-0.6276971602
-0.6358311774
-0.6427447164
-0.6491028216
-0.6547919015
-0.660016878
-0.6643420587
-0.6677767816
-0.6701884254
-0.6715673913
-0.6719640338
-0.6714355304
-0.6701901715
-0.6675604499
-0.6638870149
-0.6588504906
-0.6526095428
-0.6451742874
-0.6365664551
-0.6268690139
-0.6161453964
-0.6043304664
-0.5911712188
-0.5765687446
-0.5605141333
-0.5432109798
-0.524871591
-0.5053883496
-0.4847163603
-0.4627953943
-0.4397849767
-0.4158733931
-0.391458702
-0.3665129007
-0.3409767918
-0.3150518618
-0.2890962422
-0.2637789567
-0.2390911205
-0.2148839891
-0.1916557349
-0.1693484587
-0.1478963647
-0.1274497239
-0.108852221
-0.0922834446
-0.07737323598
-0.06346406778
-0.05179815615
-0.04181281492
-0.03351256764
-0.02553608272
-0.01622105378
-0.04133023554
-0.07953371974
-0.1786840689
-0.3020246661
)


101
(
-1.926094181e-12
-9.793141877e-07
-2.497815658e-05
-0.0001061637505
-0.0002669903055
-0.0007313308687
-0.002201330062
-0.005823757386
-0.01311002126
-0.02565189866
-0.04494840808
-0.07227116475
-0.1081707867
-0.1525758619
-0.2041566613
-0.2610546347
-0.3210389813
-0.3816235631
-0.4386777247
-0.4922497462
-0.5385537576
-0.5764023157
-0.6074731507
-0.6319043166
-0.6507327127
-0.665326153
-0.6773357219
-0.688169629
-0.6991944914
-0.7107971277
-0.7233581399
-0.7367574496
-0.7501287634
-0.766378737
-0.782816208
-0.7999841885
-0.8173457704
-0.8336238398
-0.8491718868
-0.8656222219
-0.8835206443
-0.9019631074
-0.9213092979
-0.9401182809
-0.9570359827
-0.9724655492
-0.9862489256
-0.9992990397
-1.011564694
-1.023463649
-1.034442155
-1.044352519
-1.052904055
-1.060024956
-1.065749646
-1.070197947
-1.073738074
-1.075420571
-1.075661696
-1.073895372
-1.070267373
-1.064759669
-1.057367665
-1.048279945
-1.037623534
-1.025432377
-1.011357295
-0.9950190226
-0.9761989626
-0.9548766176
-0.9316295369
-0.9063649655
-0.8792641309
-0.849867431
-0.8180077441
-0.7839657715
-0.7483965485
-0.7114571508
-0.6729463513
-0.6327268262
-0.5913465434
-0.5496424015
-0.5084355745
-0.4668492043
-0.4259647004
-0.3854234267
-0.3461277671
-0.3068806492
-0.2700222508
-0.2357919875
-0.2039614163
-0.1732411823
-0.1467053409
-0.1232041809
-0.1023425722
-0.08239464667
-0.05652352819
-0.1374876366
-0.2563934439
-0.5468604304
-0.9117722514
)


101
(
-1.90535941e-12
-9.464807239e-07
-2.571567762e-05
-0.0001293075472
-0.0004111053021
-0.001234831644
-0.003483929418
-0.008541354686
-0.01815956133
-0.03419760694
-0.05837649134
-0.09222115524
-0.1364877827
-0.1912824507
-0.2553782751
-0.3268603906
-0.4033060256
-0.4819574272
-0.5582489574
-0.631573401
-0.6976741803
-0.7547363417
-0.8038072664
-0.8445528261
-0.8779212974
-0.9051293419
-0.9278428401
-0.9478098063
-0.9669168297
-0.9859762436
-1.005696231
-1.026170453
-1.046714118
-1.071038889
-1.096124457
-1.122539564
-1.149914488
-1.176906141
-1.203524668
-1.231314507
-1.26071158
-1.290866341
-1.322701816
-1.354785287
-1.38529579
-1.414317739
-1.441249068
-1.467102351
-1.491921507
-1.516407672
-1.539947367
-1.562325832
-1.583069636
-1.60189068
-1.618741126
-1.633816376
-1.647709238
-1.659207843
-1.668881365
-1.675878062
-1.680215135
-1.681791061
-1.680522785
-1.676661454
-1.670423187
-1.661993988
-1.651182209
-1.637275956
-1.619751273
-1.598189952
-1.57320913
-1.544870807
-1.513407919
-1.47846963
-1.439473163
-1.396338564
-1.349572599
-1.299959612
-1.247518628
-1.191193481
-1.131208654
-1.069321533
-1.006599846
-0.9425443009
-0.8769676536
-0.8101971354
-0.7449459008
-0.6776311768
-0.6119351072
-0.5490709591
-0.488250338
-0.4288723728
-0.3748057877
-0.3257118699
-0.2795735062
-0.2340511298
-0.1753521276
-0.396574795
-0.7087854585
-1.404448268
-2.300579399
)


101
(
-1.884757055e-12
-9.104791633e-07
-2.621453361e-05
-0.0001493312836
-0.0005386576748
-0.001683560908
-0.004630593019
-0.01097515985
-0.02269548071
-0.04190311812
-0.07053961696
-0.1103918832
-0.1624570979
-0.2270578691
-0.3031444178
-0.3888406147
-0.4816236336
-0.5785442557
-0.6747010705
-0.7688774368
-0.8563489252
-0.9346981265
-1.004365052
-1.064421951
-1.115617159
-1.158975309
-1.196079135
-1.228915793
-1.259879955
-1.290251262
-1.321140353
-1.352861388
-1.38482596
-1.421584438
-1.460002491
-1.500715593
-1.543444818
-1.586833982
-1.630690529
-1.676330506
-1.723841896
-1.77228531
-1.82321288
-1.875409365
-1.926765691
-1.977094463
-2.025175684
-2.071881606
-2.117213353
-2.162169289
-2.206186847
-2.249097635
-2.290291678
-2.329213806
-2.365583353
-2.399537661
-2.431986334
-2.461510887
-2.488935155
-2.513152848
-2.533984621
-2.551053222
-2.564247286
-2.573697327
-2.579628724
-2.582342785
-2.582253289
-2.578470101
-2.570233497
-2.556239093
-2.536820175
-2.512011226
-2.482525841
-2.448062247
-2.407759637
-2.360616424
-2.306950654
-2.248099202
-2.184109378
-2.113715059
-2.036051355
-1.953439094
-1.867187826
-1.77800297
-1.683611465
-1.583466882
-1.484081694
-1.380472412
-1.275003207
-1.172181555
-1.067878302
-0.9646960847
-0.8672043095
-0.7762306826
-0.6880444537
-0.59542139
-0.4736144397
-1.003483182
-1.717138225
-3.125143411
-4.814958995
)


101
(
-1.864287047e-12
-8.718888871e-07
-2.64979966e-05
-0.0001664715483
-0.0006508224144
-0.002081390225
-0.005651117025
-0.01314634271
-0.02675723216
-0.04883511135
-0.08154201644
-0.1269345347
-0.1862836441
-0.2601657109
-0.347774699
-0.4473637498
-0.5564058446
-0.6718401119
-0.7885227411
-0.9046855143
-1.015146853
-1.116893458
-1.209774509
-1.292242978
-1.364648229
-1.427819295
-1.483215018
-1.532914884
-1.579744198
-1.62548297
-1.671745776
-1.719139308
-1.767119117
-1.820965735
-1.877636186
-1.937969885
-2.001790597
-2.067799284
-2.135747866
-2.206686729
-2.280110603
-2.354721622
-2.432632061
-2.512966217
-2.593582792
-2.674259498
-2.753183092
-2.830824539
-2.906789588
-2.982339472
-3.057059295
-3.130985691
-3.203422269
-3.273591897
-3.340881483
-3.405155846
-3.467669018
-3.526743142
-3.583627147
-3.637085124
-3.686795649
-3.731923192
-3.772169165
-3.807467891
-3.838071491
-3.864175343
-3.886498622
-3.904949913
-3.918576467
-3.925222399
-3.924519684
-3.915864478
-3.900198522
-3.877592852
-3.847302482
-3.807529019
-3.757952802
-3.699961307
-3.632730906
-3.556156315
-3.468406836
-3.37064227
-3.265120473
-3.153748166
-3.032121159
-2.896959133
-2.758641696
-2.614898876
-2.46387107
-2.309485881
-2.149241288
-1.988604439
-1.830586989
-1.678962503
-1.530395106
-1.367777272
-1.151913335
-2.236576195
-3.656327116
-6.221858696
-9.309918632
)


101
(
-1.843949252e-12
-8.312453156e-07
-2.658793451e-05
-0.0001809517627
-0.0007487063741
-0.002431944116
-0.006554601568
-0.01507431793
-0.03038031462
-0.0550527876
-0.09147506155
-0.1419790206
-0.208139753
-0.2908221712
-0.3895232012
-0.5027102841
-0.6279475951
-0.7621476414
-0.9000108292
-1.039284257
-1.174371104
-1.301649965
-1.420394447
-1.528469269
-1.625656571
-1.712498845
-1.790241052
-1.860945507
-1.927772085
-1.993028243
-2.058932039
-2.126469898
-2.19515396
-2.270933754
-2.350941001
-2.436361978
-2.527218613
-2.622381298
-2.72171775
-2.825968678
-2.933992121
-3.043815684
-3.157918832
-3.275772279
-3.395421453
-3.516845643
-3.6377814
-3.758289568
-3.877331194
-3.996123004
-4.114402636
-4.232517608
-4.34985542
-4.465509421
-4.578484729
-4.688275862
-4.796286235
-4.900479277
-5.002667775
-5.101580364
-5.197033113
-5.287635996
-5.372777295
-5.452037182
-5.525419188
-5.593256788
-5.656047056
-5.714510757
-5.768418357
-5.814854057
-5.852881663
-5.880694
-5.898301462
-5.906298163
-5.904505602
-5.891394899
-5.865281527
-5.826596375
-5.774494177
-5.708182818
-5.625678336
-5.527685676
-5.415926067
-5.292907193
-5.155608379
-4.994902843
-4.820044996
-4.637522361
-4.442504794
-4.233817286
-4.00991093
-3.784383415
-3.555429272
-3.326708053
-3.100912131
-2.846957428
-2.509207311
-4.516285634
-7.065296538
-11.27926289
-16.24818252
)


101
(
-1.823744146e-12
-7.89041838e-07
-2.650488031e-05
-0.0001929829849
-0.0008333524934
-0.002738616927
-0.00734952992
-0.0167770082
-0.03359659357
-0.06060828676
-0.100419362
-0.1556377233
-0.2281714767
-0.3192074006
-0.4285956039
-0.5550955984
-0.6964504003
-0.8496358894
-1.009291567
-1.172753434
-1.334100587
-1.489080869
-1.636384747
-1.773288846
-1.898901608
-2.013402
-2.117690279
-2.213677053
-2.304725157
-2.393695102
-2.483509636
-2.575606344
-2.669583416
-2.772118178
-2.880609392
-2.996660659
-3.120577065
-3.25149221
-3.389579164
-3.53533006
-3.687118252
-3.842133735
-4.002885247
-4.168976319
-4.33880816
-4.512806026
-4.688452763
-4.865588626
-5.042321807
-5.219535442
-5.397174034
-5.575780293
-5.754811059
-5.933579796
-6.110796403
-6.285451608
-6.458830619
-6.628502989
-6.796727022
-6.962357713
-7.125659569
-7.284745272
-7.438573624
-7.586400056
-7.727926647
-7.862898215
-7.991699113
-8.115686054
-8.235239911
-8.348281918
-8.452971664
-8.546500152
-8.626841607
-8.694133975
-8.748427175
-8.78919181
-8.815412318
-8.826382496
-8.817938955
-8.789953031
-8.739064647
-8.667027975
-8.573101885
-8.460031372
-8.328376395
-8.164311235
-7.968632967
-7.758362391
-7.529435055
-7.277628441
-6.99248502
-6.702859279
-6.398449183
-6.089343895
-5.77560409
-5.418855039
-4.94622856
-8.316014349
-12.49734496
-18.9111568
-26.47027131
)


101
(
-1.803671811e-12
-7.457315814e-07
-2.626809236e-05
-0.0002027645107
-0.0009057444049
-0.003004588345
-0.008043778747
-0.01827092261
-0.03643514039
-0.06554818296
-0.1084459315
-0.16800795
-0.246502073
-0.3454688993
-0.4651535994
-0.6046786339
-0.7620443358
-0.9343796313
-1.116370085
-1.305001936
-1.494191059
-1.679031853
-1.85761292
-2.026578303
-2.18426874
-2.330455099
-2.465594315
-2.591328225
-2.711031651
-2.828005517
-2.945922264
-3.066852006
-3.190611623
-3.324587667
-3.466574628
-3.618642288
-3.78145089
-3.954468366
-4.138346437
-4.333695853
-4.538518253
-4.749094694
-4.967769611
-5.194047957
-5.426626832
-5.666499365
-5.911081541
-6.160340492
-6.411577487
-6.665099252
-6.920802762
-7.179390246
-7.44038049
-7.703564062
-7.96754812
-8.230852683
-8.494500753
-8.755365813
-9.016084232
-9.275558732
-9.534806472
-9.791880217
-10.04512816
-10.29355521
-10.53646913
-10.77256677
-11.00223137
-11.22631366
-11.4469725
-11.66239507
-11.87089585
-12.06912443
-12.2531679
-12.42132313
-12.57209246
-12.70523505
-12.82320258
-12.92449249
-13.00267733
-13.05517192
-13.07514643
-13.06663513
-13.02898001
-12.96176601
-12.86621021
-12.73239703
-12.54976
-12.33440645
-12.0926764
-11.82153878
-11.48931869
-11.15138993
-10.77145134
-10.38752393
-9.987695041
-9.529922672
-8.907789764
-14.12135478
-20.49364803
-29.76379369
-40.88987747
)


101
(
-1.78373236e-12
-7.017293169e-07
-2.58956089e-05
-0.0002104844128
-0.0009668100104
-0.003232844692
-0.008644672553
-0.01957130377
-0.03892254843
-0.0699142906
-0.1156164268
-0.1791750961
-0.2632364051
-0.3697261637
-0.4993196975
-0.651567104
-0.824803876
-1.016395426
-1.221191087
-1.435920262
-1.65444428
-1.871219712
-2.083693295
-2.287904921
-2.481297371
-2.663155883
-2.833480736
-2.993572361
-3.146587768
-3.296010435
-3.446120011
-3.599840021
-3.757620332
-3.927448844
-4.107670601
-4.30083554
-4.508034491
-4.729135081
-4.965380611
-5.217937624
-5.484568087
-5.761124934
-6.049556039
-6.34883996
-6.65770194
-6.977975353
-7.307336853
-7.645819667
-7.990351243
-8.340663038
-8.696017958
-9.057282272
-9.424186406
-9.796975638
-10.1744043
-10.55489239
-10.9390787
-11.3228148
-11.70898752
-12.09622479
-12.48643131
-12.87824
-13.2697273
-13.65947307
-14.04614627
-14.42752144
-14.80322659
-15.17395301
-15.54273253
-15.90805816
-16.269355
-16.62330217
-16.9645388
-17.29001908
-17.59445439
-17.8744427
-18.13582031
-18.38067
-18.60348929
-18.79430883
-18.94260159
-19.05166392
-19.12082236
-19.1518104
-19.14147645
-19.08153538
-18.95718386
-18.77696667
-18.55131379
-18.29280561
-17.93899821
-17.57401362
-17.13701734
-16.68555252
-16.21204179
-15.65647709
-14.87839973
-22.50323559
-31.73644716
-44.69496107
-59.77959565
)


101
(
-1.763925922e-12
-6.574131487e-07
-2.540429925e-05
-0.0002163201568
-0.001017423842
-0.003426185295
-0.009159028428
-0.02069225766
-0.04108326569
-0.07374436742
-0.1219849873
-0.1892141612
-0.2784645067
-0.3920762078
-0.5311857644
-0.6958278493
-0.8847551358
-1.095651244
-1.323642779
-1.565343671
-1.81456984
-2.065226642
-2.314041959
-2.556583801
-2.789240047
-3.010659515
-3.22047183
-3.419597258
-3.610705088
-3.797153972
-3.983640115
-4.173975045
-4.369605328
-4.579261626
-4.801968442
-5.040718895
-5.297163991
-5.571727806
-5.86628139
-6.182809349
-6.519538124
-6.872004729
-7.241714564
-7.627233498
-8.026972561
-8.443279906
-8.874211572
-9.320253768
-9.778735042
-10.24850788
-10.72779601
-11.21764505
-11.71811841
-12.22960303
-12.75169102
-13.28290843
-13.82346974
-14.36817413
-14.92002351
-15.4768397
-16.0413075
-16.61305926
-17.19073173
-17.77248971
-18.35607669
-18.93902941
-19.51920629
-20.09662913
-20.67476253
-21.2526481
-21.83144922
-22.4073514
-22.97556992
-23.53165546
-24.06665126
-24.57115318
-25.04756211
-25.50841046
-25.94797445
-26.35536568
-26.71327215
-27.01521403
-27.25991513
-27.45866037
-27.59905639
-27.67536077
-27.66670499
-27.57837526
-27.40869857
-27.20075901
-26.86541554
-26.4923746
-26.02704045
-25.51683152
-24.97908551
-24.33948432
-23.42226673
-34.1361493
-47.06728792
-64.91215555
-85.8165635
)


101
(
-1.744252535e-12
-6.131260886e-07
-2.480972675e-05
-0.0002204391334
-0.00105841099
-0.003587236847
-0.00959319989
-0.02164686067
-0.04294016166
-0.07707319394
-0.1275995557
-0.1981906039
-0.292263883
-0.4125994559
-0.5608227076
-0.7375004997
-0.9418859968
-1.172058211
-1.423524782
-1.692995352
-1.974135237
-2.260458796
-2.547905169
-2.8317284
-3.10718524
-3.372027267
-3.625526206
-3.868252788
-4.102161534
-4.330202378
-4.557363638
-4.788190181
-5.025142179
-5.278037156
-5.54681734
-5.834806228
-6.144400794
-6.476964408
-6.835184419
-7.221869159
-7.635951024
-8.073084995
-8.535066225
-9.019902537
-9.525338815
-10.05387285
-10.60403448
-11.17718279
-11.7712566
-12.38481366
-13.01497086
-13.66234355
-14.32744652
-15.01083555
-15.71304975
-16.43369308
-17.17235906
-17.92311633
-18.68882282
-19.46621598
-20.25810317
-21.06530981
-21.88781211
-22.72400702
-23.57123161
-24.42614961
-25.28492179
-26.1466681
-27.0142951
-27.88810619
-28.76948889
-29.65467519
-30.54073259
-31.42254479
-32.28848597
-33.12341569
-33.9221059
-34.69641121
-35.45037094
-36.17712069
-36.85332417
-37.45256911
-37.97378851
-38.43245251
-38.81460564
-39.11079255
-39.2901243
-39.36767894
-39.31066054
-39.1995305
-38.93475492
-38.57450908
-38.10380365
-37.54958764
-36.94416388
-36.23027892
-35.17719103
-49.91153731
-67.67396008
-92.09937265
-120.7244544
)


101
(
-1.724712326e-12
-5.691778944e-07
-2.412676256e-05
-0.0002229989992
-0.001090548897
-0.003718464534
-0.009953111289
-0.02244722023
-0.04451483708
-0.07993400954
-0.1325028875
-0.2061608573
-0.3046998667
-0.4313633495
-0.5882922156
-0.7766245131
-0.9961875656
-1.245527714
-1.52061318
-1.81841598
-2.132482526
-2.456057902
-2.784340443
-3.112225974
-3.433935136
-3.746007911
-4.047257299
-4.337993267
-4.619293073
-4.89348346
-5.165722643
-5.441003673
-5.72249118
-6.021462144
-6.339200088
-6.679305845
-7.04499527
-7.438995055
-7.865077318
-8.326864628
-8.824374834
-9.353906032
-9.917822714
-10.51398279
-11.13951944
-11.79671462
-12.48436972
-13.20475509
-13.95652026
-14.73911792
-15.54896633
-16.38592868
-17.25038438
-18.14303269
-19.06548342
-20.01874261
-21.0033575
-22.01281887
-23.04928796
-24.10846656
-25.19322448
-26.30426858
-27.44382291
-28.61165718
-29.80558228
-31.02094245
-32.25302346
-33.49912412
-34.76123568
-36.04006222
-37.33637122
-38.64841449
-39.9737971
-41.30750753
-42.63837238
-43.94645561
-45.21175863
-46.44235166
-47.64970754
-48.83422486
-49.97068421
-51.01590464
-51.95454813
-52.80356775
-53.54593346
-54.18648705
-54.65677732
-54.99317208
-55.12840115
-55.17397507
-55.03413445
-54.72183256
-54.25939188
-53.66601757
-52.9890377
-52.20681264
-51.01836422
-71.08442454
-95.22809565
-128.6039859
-166.9594087
)


101
(
-1.705305423e-12
-5.258462408e-07
-2.336905455e-05
-0.0002241481961
-0.001114570321
-0.003822184638
-0.01024429671
-0.02310455906
-0.04582720739
-0.0823575421
-0.1367336456
-0.2131750966
-0.3158290269
-0.4484225937
-0.613638206
-0.8132161129
-1.047622722
-1.315941
-1.614663795
-1.941114108
-2.288872506
-2.650988436
-3.022199265
-3.396720913
-3.768010587
-4.131119942
-4.484096391
-4.827046946
-5.160202264
-5.485075566
-5.806775233
-6.130533346
-6.459856766
-6.807258182
-7.175841391
-7.569854279
-7.993369912
-8.450861913
-8.947705098
-9.488478527
-10.07420045
-10.7021646
-11.37581805
-12.09348696
-12.85214624
-13.65377589
-14.49707984
-15.38492325
-16.31681686
-17.29436118
-18.31413929
-19.37491913
-20.47691486
-21.62099998
-22.80926694
-24.04411509
-25.32865266
-26.65677797
-28.0308434
-29.4452628
-30.90229498
-32.40167659
-33.94802276
-35.54353072
-37.18804814
-38.87592326
-40.60211196
-42.36197208
-44.15562442
-45.98315048
-47.84620774
-49.74286353
-51.66978208
-53.62398696
-55.59828191
-57.56922422
-59.50255078
-61.39369391
-63.24976605
-65.08351118
-66.87679608
-68.57333712
-70.12795799
-71.54392366
-72.82161043
-73.96649526
-74.87884646
-75.60019349
-76.03752401
-76.32204841
-76.37223565
-76.14268753
-75.72180833
-75.08502383
-74.3335017
-73.47070794
-72.1403466
-99.40154512
-132.0854661
-177.7080039
-229.9573646
)


101
(
-1.686031865e-12
-4.833782511e-07
-2.254926013e-05
-0.0002240263331
-0.001131165954
-0.003900575516
-0.01047193209
-0.02362939071
-0.04689591041
-0.08437248556
-0.1403302893
-0.2192765088
-0.3257037656
-0.4638279207
-0.6368987768
-0.8472818789
-1.096138208
-1.383162646
-1.705428472
-2.060656659
-2.442630948
-2.844305235
-3.260186553
-3.683681019
-4.107660391
-4.52558318
-4.93421377
-5.333274498
-5.722453418
-6.102436369
-6.477883054
-6.854032975
-7.234672341
-7.632728379
-8.053282009
-8.502062992
-8.984036048
-9.505634673
-10.0745614
-10.69643856
-11.37334692
-12.10383614
-12.89282348
-13.73969137
-14.64220977
-15.60236124
-16.61835001
-17.69338433
-18.82859409
-20.02756229
-21.28793674
-22.60870336
-23.9888497
-25.43119031
-26.93712917
-28.51031489
-30.1567727
-31.87284472
-33.66215826
-35.51887753
-37.44404543
-39.43656228
-41.501995
-43.64559702
-45.87111349
-48.17385539
-50.54863127
-52.98911332
-55.4932747
-58.06099734
-60.69426908
-63.38747859
-66.13660911
-68.9408793
-71.79696877