/*--------------------------------*- C++ -*----------------------------------*\
| =========                 |                                                 |
| \\      /  F ield         | OpenFOAM: The Open Source CFD Toolbox           |
|  \\    /   O peration     | Version:  2.3.1                                 |
|   \\  /    A nd           | Web:      www.OpenFOAM.org                      |
|    \\/     M anipulation  |                                                 |
\*---------------------------------------------------------------------------*/
FoamFile
{
    version     2.0;
    format      ascii;
    class       dictionary;
    location    "constant";
    object      rETA1;
}
// * * * * * * * * * * * * * * * * * * * * * * * * * * * * * * * * * * * * * //

rETA1_table
101
(

101
(
-1.786169273e-14
8.368265824e-14
-6.283755545e-13
-2.941941835e-12
-4.857997131e-12
-2.397497236e-12
-9.734333269e-12
-7.328788103e-12
-8.504913665e-12
-6.847639132e-12
-5.792979033e-12
-1.417660057e-13
5.483801329e-14
6.236610095e-12
1.064223682e-11
1.434571604e-11
1.847975143e-11
1.635360276e-11
2.365778573e-11
1.901485986e-11
1.669202709e-11
2.024165494e-11
1.74506395e-11
1.439568029e-11
1.243572488e-11
1.060791004e-11
8.694041259e-12
7.471149321e-12
5.967373295e-12
4.752183097e-12
3.527525895e-12
2.107952397e-12
2.179178126e-12
1.104788465e-12
3.862394226e-13
-7.555597538e-13
-2.665647513e-12
-2.507264026e-12
-4.875997311e-12
-6.330266339e-12
-5.051376073e-12
-5.685704678e-12
-5.843506681e-12
-4.927478175e-12
-5.283802286e-12
-4.946685997e-12
-5.183312577e-12
-4.902724676e-12
-4.961770934e-12
-4.576169067e-12
-4.358933004e-12
-4.192997201e-12
-3.945980566e-12
-3.65483305e-12
-3.422460835e-12
-3.74697513e-12
-3.171253138e-12
-3.207280918e-12
-3.008294312e-12
-2.9275418e-12
-2.777877839e-12
-2.576568293e-12
-2.474737933e-12
-2.343802466e-12
-2.232767402e-12
-2.081129872e-12
-1.931038454e-12
-1.871280012e-12
-1.726910941e-12
-1.609291489e-12
-1.513834015e-12
-1.457008373e-12
-1.309430213e-12
-1.325989646e-12
-1.031938218e-12
-6.706244589e-13
-6.584849213e-13
-6.559399273e-13
-5.682020721e-13
-4.834843367e-13
-4.490930529e-13
-3.957421679e-13
-4.01013823e-13
-2.305942819e-13
-1.359284926e-13
-1.342787609e-13
-1.164400216e-13
-9.77359876e-14
-1.041061878e-13
-3.843983269e-14
-2.172950568e-14
-2.746231436e-14
-1.292498083e-14
-9.586618973e-15
-2.42651876e-15
3.22733029e-16
1.596870898e-26
-4.419752805e-48
1.309145402e-50
-2.015575653e-52
-7.970365111e-49
)


101
(
-1.75625565e-14
5.351441827e-14
-7.437047334e-13
-2.592936691e-12
-2.901661533e-12
1.994832117e-12
-1.259214336e-12
3.983242896e-12
5.142570543e-12
7.395324515e-12
7.562007297e-12
9.955058548e-12
7.068600306e-12
7.792115929e-12
6.991428424e-12
6.068682181e-12
6.151389512e-12
1.400177079e-12
6.393877119e-12
1.49336279e-12
-6.47176008e-15
3.365525594e-12
1.989033582e-12
8.807322533e-13
5.339771259e-13
2.987704647e-13
2.261456942e-15
1.554156281e-13
1.113977877e-14
1.607386753e-14
-1.188419097e-13
-6.075541156e-13
4.251785343e-13
-3.566202762e-14
-1.060570601e-13
-4.008654012e-13
-4.870002471e-13
2.678242382e-13
2.277480673e-13
1.52006166e-13
1.421806038e-14
-1.459270999e-14
-4.61378155e-14
-5.657219029e-14
-9.337762634e-14
-9.837999028e-14
-1.520183401e-13
-1.611628453e-13
-2.153240488e-13
-2.115544856e-13
-2.33844884e-13
-2.455187807e-13
-2.507851137e-13
-2.474093896e-13
-2.512961439e-13
-3.593210311e-13
-2.97550688e-13
-3.851361806e-13
-3.692940376e-13
-4.198116994e-13
-4.290432906e-13
-4.381528608e-13
-4.579808254e-13
-4.683870656e-13
-4.912999711e-13
-4.996340552e-13
-5.059890473e-13
-5.272348771e-13
-5.266701101e-13
-5.360885732e-13
-5.365027306e-13
-5.38878301e-13
-5.079827611e-13
-5.228691829e-13
-4.218956777e-13
-3.503563334e-13
-3.31947497e-13
-3.061586402e-13
-2.808579121e-13
-2.608945992e-13
-2.526179928e-13
-2.351655861e-13
-2.352628974e-13
-1.83687942e-13
-1.554770198e-13
-1.249183246e-13
-1.037436631e-13
-9.035582022e-14
-8.408940733e-14
-6.140768918e-14
-5.057363718e-14
-3.710917765e-14
-2.696280447e-14
-2.018736519e-14
-7.883808722e-15
3.870158165e-15
8.018483495e-15
1.165460006e-14
1.216867312e-14
1.285954454e-14
1.328809824e-14
)


101
(
-1.726500835e-14
3.372444946e-14
-7.781275204e-13
-2.623552325e-12
-3.083542784e-12
1.14599205e-12
-1.993284208e-12
1.739403358e-12
2.133146535e-12
3.07009148e-12
2.234127982e-12
3.074210658e-12
4.276396252e-14
-3.706194141e-13
-1.509162471e-12
-2.456160706e-12
-2.159913192e-12
-5.69718996e-12
-1.638381162e-12
-3.908153214e-12
-5.171585139e-12
-2.015469542e-12
-1.662855257e-12
-2.069530904e-12
-2.048209304e-12
-1.882779101e-12
-1.804128574e-12
-1.488875595e-12
-1.347217477e-12
-1.20813715e-12
-1.176243666e-12
-1.445286243e-12
-8.140858588e-13
-8.181576365e-13
-8.975553445e-13
-1.051976138e-12
-1.207032513e-12
-8.822240578e-13
-6.938226829e-13
-6.649228462e-13
-7.324152408e-13
-7.526681438e-13
-7.574219489e-13
-7.591305384e-13
-7.521694754e-13
-7.464375644e-13
-7.466470628e-13
-7.473324733e-13
-7.552413613e-13
-7.581383232e-13
-7.598219574e-13
-7.631141037e-13
-7.660528226e-13
-7.678250647e-13
-7.710971229e-13
-8.068561401e-13
-8.187316275e-13
-8.428825543e-13
-8.610475233e-13
-8.82249862e-13
-9.013123468e-13
-9.126234773e-13
-9.240454383e-13
-9.349010115e-13
-9.471279734e-13
-9.533418149e-13
-9.532610323e-13
-9.545162334e-13
-9.52185911e-13
-9.468616114e-13
-9.368501787e-13
-9.213418241e-13
-8.90101457e-13
-8.60825518e-13
-8.095418204e-13
-7.486536371e-13
-6.987592384e-13
-6.452324058e-13
-5.86455953e-13
-5.354022915e-13
-4.976535553e-13
-4.609185573e-13
-4.26484364e-13
-3.842863951e-13
-3.394239467e-13
-2.924428548e-13
-2.457580441e-13
-2.078718976e-13
-1.806150531e-13
-1.524520641e-13
-1.249236098e-13
-9.977185569e-14
-7.704106567e-14
-5.966934883e-14
-3.006403816e-14
1.032379419e-14
5.227532991e-14
8.707855691e-14
9.307374688e-14
1.010477786e-13
1.064461577e-13
)


101
(
-1.696905869e-14
1.543430761e-14
-8.093913621e-13
-2.648871054e-12
-3.246203716e-12
3.758343144e-13
-2.670931358e-12
-2.389663107e-13
-5.588324601e-13
-7.487107601e-13
-2.473131399e-12
-2.931278725e-12
-6.209394998e-12
-7.505451166e-12
-8.979889124e-12
-1.001926733e-11
-9.644179889e-12
-1.209479246e-11
-8.843453891e-12
-9.176497059e-12
-9.860326553e-12
-6.955232063e-12
-5.36246772e-12
-4.943404246e-12
-4.504386488e-12
-3.975911912e-12
-3.545714135e-12
-3.031511751e-12
-2.642741092e-12
-2.340586789e-12
-2.151564902e-12
-2.225968314e-12
-1.807246137e-12
-1.588020172e-12
-1.571590388e-12
-1.665770692e-12
-1.786671177e-12
-1.653620677e-12
-1.466344769e-12
-1.351946298e-12
-1.33689837e-12
-1.338342152e-12
-1.322671095e-12
-1.306012526e-12
-1.280629993e-12
-1.252529835e-12
-1.221916029e-12
-1.192532234e-12
-1.164938139e-12
-1.140691593e-12
-1.11745225e-12
-1.096629247e-12
-1.078130256e-12
-1.061970614e-12
-1.048803987e-12
-1.044670847e-12
-1.044665088e-12
-1.046372249e-12
-1.05078302e-12
-1.055788079e-12
-1.062897426e-12
-1.068697411e-12
-1.073873573e-12
-1.079234349e-12
-1.084627753e-12
-1.087836444e-12
-1.087555028e-12
-1.086230583e-12
-1.084092361e-12
-1.079491691e-12
-1.070352597e-12
-1.055723816e-12
-1.029516405e-12
-9.962404059e-13
-9.577427341e-13
-9.162918359e-13
-8.739581666e-13
-8.226231431e-13
-7.595074723e-13
-6.967379303e-13
-6.449248594e-13
-5.991688403e-13
-5.545047633e-13
-5.092833371e-13
-4.62752222e-13
-4.135408844e-13
-3.592546851e-13
-3.068850443e-13
-2.643716927e-13
-2.288918352e-13
-1.964837111e-13
-1.637631987e-13
-1.337006884e-13
-1.075005642e-13
-5.230270031e-14
3.133189032e-14
1.576976025e-13
2.734257294e-13
2.975063823e-13
3.296323259e-13
3.525622662e-13
)


101
(
-1.667471985e-14
-1.420857629e-15
-8.375735294e-13
-2.669117061e-12
-3.390857831e-12
-3.219091569e-13
-3.29486717e-12
-1.982883212e-12
-2.964812112e-12
-4.125563713e-12
-6.640840664e-12
-8.197971514e-12
-1.178839642e-11
-1.380323513e-11
-1.560945994e-11
-1.67957692e-11
-1.645288534e-11
-1.800058794e-11
-1.537923993e-11
-1.436059934e-11
-1.43049876e-11
-1.157285628e-11
-9.127442263e-12
-7.880750095e-12
-6.962185941e-12
-6.076895374e-12
-5.313340588e-12
-4.576150119e-12
-3.958830169e-12
-3.479873495e-12
-3.137531148e-12
-3.033224104e-12
-2.709505214e-12
-2.386555284e-12
-2.274703965e-12
-2.306043015e-12
-2.358115856e-12
-2.321205262e-12
-2.191830138e-12
-2.051729738e-12
-1.978416639e-12
-1.952144033e-12
-1.923027153e-12
-1.893080818e-12
-1.857741841e-12
-1.813489374e-12
-1.762552864e-12
-1.706466735e-12
-1.649058274e-12
-1.592271677e-12
-1.536950805e-12
-1.48352613e-12
-1.432769561e-12
-1.385298921e-12
-1.340954041e-12
-1.299441559e-12
-1.263848758e-12
-1.232196053e-12
-1.205094912e-12
-1.180665579e-12
-1.16062782e-12
-1.144226883e-12
-1.130169761e-12
-1.119056761e-12
-1.109834205e-12
-1.101584359e-12
-1.094130009e-12
-1.08751981e-12
-1.081393327e-12
-1.075308114e-12
-1.067192035e-12
-1.055988954e-12
-1.037051237e-12
-1.010708463e-12
-9.814074967e-13
-9.534310841e-13
-9.264449537e-13
-8.914920528e-13
-8.41224534e-13
-7.831367129e-13
-7.288773867e-13
-6.81225187e-13
-6.360855025e-13
-5.914918391e-13
-5.46490156e-13
-5.004120688e-13
-4.488283825e-13
-3.939696332e-13
-3.426491174e-13
-3.002687322e-13
-2.632910405e-13
-2.278840067e-13
-1.915322263e-13
-1.594296011e-13
-7.588247355e-14
7.268065928e-14
3.465062538e-13
6.147615393e-13
6.765967056e-13
7.56138012e-13
7.946329623e-13
)


101
(
-1.63820022e-14
-1.690558925e-14
-8.627448437e-13
-2.684484641e-12
-3.518649894e-12
-9.529472203e-13
-3.867650144e-12
-3.519135659e-12
-5.112611458e-12
-7.114390126e-12
-1.033642311e-11
-1.283639078e-11
-1.677843386e-11
-1.940857269e-11
-2.154613329e-11
-2.292234e-11
-2.270395247e-11
-2.355160094e-11
-2.139040971e-11
-1.947755023e-11
-1.865989573e-11
-1.598422469e-11
-1.296560298e-11
-1.096287754e-11
-9.519763021e-12
-8.26406798e-12
-7.176972054e-12
-6.199959015e-12
-5.359488351e-12
-4.696185939e-12
-4.198004244e-12
-3.926585782e-12
-3.623491844e-12
-3.249221522e-12
-3.05073142e-12
-2.996955703e-12
-3.01659069e-12
-3.018026577e-12
-2.948960497e-12
-2.835328002e-12
-2.745313373e-12
-2.70337072e-12
-2.671091026e-12
-2.641690429e-12
-2.609281835e-12
-2.56394563e-12
-2.509610286e-12
-2.44508788e-12
-2.374852136e-12
-2.298325854e-12
-2.219576406e-12
-2.138746797e-12
-2.058202683e-12
-1.979306264e-12
-1.901964437e-12
-1.823410096e-12
-1.746107324e-12
-1.673962396e-12
-1.605674796e-12
-1.539147142e-12
-1.477649943e-12
-1.423167494e-12
-1.371516389e-12
-1.325550093e-12
-1.284291837e-12
-1.245702191e-12
-1.21064649e-12
-1.178883904e-12
-1.150297237e-12
-1.126438524e-12
-1.102366378e-12
-1.079022814e-12
-1.052971458e-12
-1.023607816e-12
-9.929675233e-13
-9.656541792e-13
-9.422001567e-13
-9.149875527e-13
-8.765510044e-13
-8.287088728e-13
-7.784238505e-13
-7.311371395e-13
-6.86669657e-13
-6.449354144e-13
-6.032729037e-13
-5.612666695e-13
-5.154349386e-13
-4.637655647e-13
-4.107334451e-13
-3.633186679e-13
-3.231414266e-13
-2.861768791e-13
-2.473267191e-13
-2.106408009e-13
-8.826961792e-14
1.414894541e-13
6.412304376e-13
1.152781416e-12
1.255527151e-12
1.381324341e-12
1.394840316e-12
)


101
(
-1.609091511e-14
-3.107588782e-14
-8.849785507e-13
-2.695158097e-12
-3.63072716e-12
-1.522987629e-12
-4.393089597e-12
-4.8728304e-12
-7.027218444e-12
-9.759634343e-12
-1.361495308e-11
-1.693099458e-11
-2.12460472e-11
-2.442268091e-11
-2.689512342e-11
-2.84953675e-11
-2.847318248e-11
-2.882001278e-11
-2.69880623e-11
-2.452170671e-11
-2.30090214e-11
-2.028446133e-11
-1.687946129e-11
-1.422900179e-11
-1.224646156e-11
-1.060009086e-11
-9.19061485e-12
-7.962025639e-12
-6.897729292e-12
-6.043423089e-12
-5.383491794e-12
-4.95420139e-12
-4.622786269e-12
-4.216986436e-12
-3.958095056e-12
-3.835908714e-12
-3.817211317e-12
-3.835426461e-12
-3.822345046e-12
-3.763494835e-12
-3.700845916e-12
-3.674481375e-12
-3.663275829e-12
-3.660765035e-12
-3.658788045e-12
-3.642703145e-12
-3.616954668e-12
-3.578712875e-12
-3.532059346e-12
-3.473617282e-12
-3.408378329e-12
-3.332576543e-12
-3.252217686e-12
-3.169923159e-12
-3.085301591e-12
-2.99108701e-12
-2.89078341e-12
-2.791620819e-12
-2.689971145e-12
-2.58467536e-12
-2.480839756e-12
-2.381395724e-12
-2.279835413e-12
-2.180002472e-12
-2.084761117e-12
-1.990163384e-12
-1.896312602e-12
-1.805834171e-12
-1.717680308e-12
-1.635862594e-12
-1.557507864e-12
-1.481648593e-12
-1.406578955e-12
-1.33286403e-12
-1.261597326e-12
-1.196461139e-12
-1.139669641e-12
-1.084499155e-12
-1.026325611e-12
-9.64131707e-13
-8.995342379e-13
-8.366573125e-13
-7.777513425e-13
-7.258529304e-13
-6.778598923e-13
-6.309499568e-13
-5.836855845e-13
-5.330000214e-13
-4.782628283e-13
-4.255789266e-13
-3.800636307e-13
-3.399418212e-13
-2.991934991e-13
-2.575003771e-13
-8.428821813e-14
2.494318965e-13
1.060513754e-12
1.914056315e-12
1.956289656e-12
1.569329017e-12
1.023393421e-12
)


101
(
-1.580147465e-14
-9.477367776e-12
-2.805454148e-11
-2.701311922e-12
-3.728169616e-12
-2.037484864e-12
-4.875837919e-12
-6.068197231e-12
-8.732425973e-12
-1.210139344e-11
-1.652609469e-11
-2.055639992e-11
-2.525465997e-11
-2.893237428e-11
-3.174748558e-11
-3.360061316e-11
-3.382906614e-11
-3.385854984e-11
-3.226874287e-11
-2.949720714e-11
-2.740529333e-11
-2.455701706e-11
-2.088382105e-11
-1.770346212e-11
-1.519641466e-11
-1.314273442e-11
-1.140614577e-11
-9.917293563e-12
-8.626311503e-12
-7.575084478e-12
-6.747324043e-12
-6.162234571e-12
-5.769674059e-12
-5.333833448e-12
-5.037069045e-12
-4.86679498e-12
-4.816626267e-12
-4.845985212e-12
-4.888132077e-12
-4.904778518e-12
-4.912636664e-12
-4.950375263e-12
-5.005812498e-12
-5.076867307e-12
-5.155255489e-12
-5.223269498e-12
-5.283716085e-12
-5.33324038e-12
-5.377231018e-12
-5.407694911e-12
-5.425458095e-12
-5.423127699e-12
-5.41110735e-12
-5.388273819e-12
-5.355553253e-12
-5.303753167e-12
-5.232644036e-12
-5.146112155e-12
-5.044012856e-12
-4.92040002e-12
-4.784602802e-12
-4.643401956e-12
-4.484978827e-12
-4.318652366e-12
-4.14476693e-12
-3.962224806e-12
-3.76929497e-12
-3.573506864e-12
-3.370842011e-12
-3.169225405e-12
-2.97010387e-12
-2.769007251e-12
-2.572632063e-12
-2.380718244e-12
-2.195283022e-12
-2.019095929e-12
-1.857343948e-12
-1.704798518e-12
-1.560623564e-12
-1.422146496e-12
-1.289143958e-12
-1.162996188e-12
-1.048245319e-12
-9.469555206e-13
-8.606058176e-13
-7.815518348e-13
-7.087751131e-13
-6.400689743e-13
-5.717027218e-13
-5.060981731e-13
-4.476747799e-13
-3.966156011e-13
-3.494767946e-13
-2.997515764e-13
-8.520160149e-14
3.769527283e-13
1.601750395e-12
2.391964413e-12
1.550440041e-12
-1.835201617e-12
-4.910167051e-12
)


101
(
-1.55136919e-14
-9.239914124e-12
-2.733198287e-11
-2.703136548e-12
-3.811932912e-12
-2.500941707e-12
-5.318842957e-12
-7.124333073e-12
-1.024844837e-11
-1.417311988e-11
-1.911051873e-11
-2.377309374e-11
-2.885653822e-11
-3.300544501e-11
-3.617350466e-11
-3.830594202e-11
-3.882825523e-11
-3.870341751e-11
-3.731002163e-11
-3.441319234e-11
-3.187999096e-11
-2.887294713e-11
-2.500537846e-11
-2.140782468e-11
-1.841822098e-11
-1.595361331e-11
-1.38836868e-11
-1.212564761e-11
-1.06019382e-11
-9.346557766e-12
-8.34300369e-12
-7.600379606e-12
-7.123412788e-12
-6.649712271e-12
-6.329857899e-12
-6.13332009e-12
-6.069468151e-12
-6.120843381e-12
-6.230941593e-12
-6.34990971e-12
-6.476949306e-12
-6.640744396e-12
-6.827862985e-12
-7.041360023e-12
-7.274263226e-12
-7.507668337e-12
-7.741522581e-12
-7.973135322e-12
-8.206310654e-12
-8.423488614e-12
-8.620290269e-12
-8.793050824e-12
-8.944385163e-12
-9.067058191e-12
-9.174014288e-12
-9.24254928e-12
-9.266107342e-12
-9.247398804e-12
-9.192302405e-12
-9.088350291e-12
-8.944803795e-12
-8.771013381e-12
-8.549270564e-12
-8.304442735e-12
-8.032862797e-12
-7.735749992e-12
-7.409225353e-12
-7.05294301e-12
-6.670882196e-12
-6.274246788e-12
-5.877079012e-12
-5.474754224e-12
-5.081073784e-12
-4.68819866e-12
-4.299432535e-12
-3.922285445e-12
-3.558422862e-12
-3.211672194e-12
-2.88648809e-12
-2.577370474e-12
-2.286042302e-12
-2.01608116e-12
-1.771727349e-12
-1.551018103e-12
-1.358673441e-12
-1.186557711e-12
-1.03667051e-12
-9.010603004e-13
-7.820491381e-13
-6.7427302e-13
-5.788626229e-13
-4.977562904e-13
-4.302059433e-13
-3.634254946e-13
-1.527992389e-13
3.079614511e-13
1.756727676e-12
6.832670352e-14
-4.265910958e-12
-1.683590614e-11
-2.753422828e-11
)


101
(
-1.522757842e-14
-6.628987304e-14
-9.348286674e-13
-4.70909814e-11
-3.883022534e-12
-2.91744043e-12
-5.723723033e-12
-8.055046759e-12
-1.159350196e-11
-1.600548484e-11
-2.140396558e-11
-2.662892956e-11
-3.209242563e-11
-3.669077212e-11
-4.022382007e-11
-4.26608597e-11
-4.351247819e-11
-4.337559571e-11
-4.216911479e-11
-3.927948693e-11
-3.644878723e-11
-3.328710502e-11
-2.928021093e-11
-2.536835827e-11
-2.19585098e-11
-1.909519489e-11
-1.668720701e-11
-1.465006425e-11
-1.288526001e-11
-1.141716078e-11
-1.022809562e-11
-9.322539324e-12
-8.743299925e-12
-8.221483345e-12
-7.887390948e-12
-7.689221208e-12
-7.641589503e-12
-7.743782437e-12
-7.949993618e-12
-8.207311669e-12
-8.505897076e-12
-8.862304076e-12
-9.260727506e-12
-9.703527877e-12
-1.018364735e-11
-1.068146978e-11
-1.119229248e-11
-1.171306166e-11
-1.22363894e-11
-1.274296784e-11
-1.32275235e-11
-1.368116422e-11
-1.409211919e-11
-1.445528036e-11
-1.476878638e-11
-1.50166183e-11
-1.520036702e-11
-1.52973104e-11
-1.533628394e-11
-1.529032551e-11
-1.516661165e-11
-1.498252312e-11
-1.472063171e-11
-1.440607538e-11
-1.403481048e-11
-1.361162891e-11
-1.314441126e-11
-1.261773624e-11
-1.204928263e-11
-1.14492676e-11
-1.082762573e-11
-1.018810262e-11
-9.549556119e-12
-8.714469201e-12
-8.28905257e-12
-7.648640843e-12
-7.005343331e-12
-6.38970127e-12
-5.802746509e-12
-5.226177128e-12
-4.66796243e-12
-4.152332283e-12
-3.677290907e-12
-3.239911887e-12
-2.830653444e-12
-2.459761296e-12
-2.13213131e-12
-1.827418717e-12
-1.563543266e-12
-1.331986182e-12
-1.125957525e-12
-9.529376002e-13
-8.12429449e-13
-6.936971738e-13
-7.254770987e-13
-8.360912763e-13
-5.62712202e-13
-1.128075424e-11
-2.450732229e-11
-5.605910988e-11
-8.276109952e-11
)


101
(
-1.494315281e-14
-7.577943452e-14
-9.460917543e-13
-4.586601089e-11
-3.942323327e-12
-3.290729345e-12
-6.092126007e-12
-8.872477395e-12
-1.278430544e-11
-1.762654015e-11
-2.343832543e-11
-2.916496944e-11
-3.499811603e-11
-4.002853144e-11
-4.393942634e-11
-4.670580083e-11
-4.791616888e-11
-4.788913317e-11
-4.688661278e-11
-4.410988845e-11
-4.112043191e-11
-3.78405472e-11
-3.374760526e-11
-2.961149007e-11
-2.585605855e-11
-2.262274443e-11
-1.987760338e-11
-1.755313453e-11
-1.553984904e-11
-1.385225055e-11
-1.246973921e-11
-1.13953763e-11
-1.070124225e-11
-1.012275539e-11
-9.781862345e-12
-9.60638331e-12
-9.608830193e-12
-9.79710769e-12
-1.013404871e-11
-1.057137369e-11
-1.109626927e-11
-1.171356597e-11
-1.240301214e-11
-1.316221444e-11
-1.398206188e-11
-1.483812588e-11
-1.571351606e-11
-1.660049593e-11
-1.748667209e-11
-1.835561241e-11
-1.919556524e-11
-1.999103612e-11
-2.072173302e-11
-2.1369123e-11
-2.192358337e-11
-2.241592444e-11
-2.280417141e-11
-2.307780721e-11
-2.325675323e-11
-2.332683276e-11
-2.328716913e-11
-2.315948752e-11
-2.293734666e-11
-2.262399221e-11
-2.222941841e-11
-2.177108314e-11
-2.125585471e-11
-2.066426986e-11
-2.001156943e-11
-1.929519191e-11
-1.853423876e-11
-1.774170036e-11
-1.695097223e-11
-1.573520388e-11
-1.493210208e-11
-1.447894643e-11
-1.358204541e-11
-1.270579864e-11
-1.184159254e-11
-1.09712769e-11
-1.009090561e-11
-9.243070629e-12
-8.447926042e-12
-7.694467684e-12
-6.941028835e-12
-6.221134698e-12
-5.569252018e-12
-4.939762913e-12
-4.36628317e-12
-3.840734692e-12
-3.347492107e-12
-2.934306032e-12
-2.590357426e-12
-2.316939224e-12
-3.098991901e-12
-5.180624163e-12
-1.019350844e-11
-4.270854722e-11
-7.286965476e-11
-1.327963581e-10
-1.686801563e-10
)


101
(
-1.466043672e-14
-8.423551626e-14
-9.548119514e-13
-2.684558461e-12
-3.990477286e-12
-3.62390139e-12
-6.425380257e-12
-9.587602461e-12
-1.383515368e-11
-1.905815381e-11
-2.523898869e-11
-3.1415903e-11
-3.760610767e-11
-4.305429441e-11
-4.735611772e-11
-5.047635604e-11
-5.207265119e-11
-5.225811055e-11
-5.149811011e-11
-4.892317742e-11
-4.590249837e-11
-4.256420247e-11
-3.843451448e-11
-3.415334435e-11
-3.012924394e-11
-2.656796479e-11
-2.349979634e-11
-2.088988106e-11
-1.86280571e-11
-1.672020695e-11
-1.514196787e-11
-1.38972922e-11
-1.308262376e-11
-1.244205572e-11
-1.209877222e-11
-1.196432727e-11
-1.204491571e-11
-1.235154968e-11
-1.285309875e-11
-1.350816123e-11
-1.430352823e-11
-1.523416665e-11
-1.627185246e-11
-1.740837067e-11
-1.862665674e-11
-1.989032947e-11
-2.116908714e-11
-2.245175993e-11
-2.372622269e-11
-2.497600035e-11
-2.61826993e-11
-2.733030866e-11
-2.839814172e-11
-2.935496869e-11
-3.021656994e-11
-3.100456006e-11
-3.165163376e-11
-3.218055443e-11
-3.259955257e-11
-3.29161366e-11
-3.310906146e-11
-3.320284461e-11
-3.319503447e-11
-3.308897797e-11
-3.289235619e-11
-3.262324383e-11
-3.228273886e-11
-3.187528643e-11
-3.138673616e-11
-3.158268206e-11
-3.093834979e-11
-2.948690917e-11
-2.878278116e-11
-2.807365858e-11
-2.659477832e-11
-2.64435806e-11
-2.548963863e-11
-2.450650785e-11
-2.351188284e-11
-2.247839277e-11
-2.135406504e-11
-2.020621523e-11
-1.910496445e-11
-1.800216604e-11
-1.683742916e-11
-1.566120248e-11
-1.455500767e-11
-1.345709821e-11
-1.237671375e-11
-1.130253891e-11
-1.026455667e-11
-9.376358133e-12
-8.60688433e-12
-7.981488557e-12
-1.030683862e-11
-1.68722415e-11
-3.593222747e-11
-1.072595013e-10
-1.622949985e-10
-2.60142438e-10
-3.069007244e-10
)


101
(
-1.437942523e-14
-8.318595839e-12
-9.610712485e-13
-2.67083703e-12
-4.028086865e-12
-3.919768846e-12
-6.724375521e-12
-1.020949518e-11
-1.476047098e-11
-2.032113979e-11
-2.682720792e-11
-3.341098558e-11
-3.994449638e-11
-4.579632155e-11
-5.050055192e-11
-5.399972915e-11
-5.601192811e-11
-5.650089311e-11
-5.603639017e-11
-5.374097677e-11
-5.079991262e-11
-4.747069461e-11
-4.335226244e-11
-3.90009113e-11
-3.478730893e-11
-3.09545659e-11
-2.759625579e-11
-2.471742309e-11
-2.221734154e-11
-2.009619774e-11
-1.83261885e-11
-1.691486074e-11
-1.598014246e-11
-1.527354869e-11
-1.492640666e-11
-1.484108395e-11
-1.501594637e-11
-1.546000908e-11
-1.614513068e-11
-1.703976127e-11
-1.812436297e-11
-1.938419554e-11
-2.078002832e-11
-2.229728365e-11
-2.390900678e-11
-2.557027349e-11
-2.724395953e-11
-2.890906373e-11
-3.055586454e-11
-3.217466925e-11
-3.373798501e-11
-3.524103383e-11
-3.667270875e-11
-3.799899483e-11
-3.924323512e-11
-4.040204326e-11
-4.145222893e-11
-4.239050728e-11
-4.325278818e-11
-4.402720656e-11
-4.470625615e-11
-4.530024976e-11
-4.581102457e-11
-4.623744391e-11
-4.660251607e-11
-4.690593774e-11
-4.712331055e-11
-4.729336819e-11
-4.737359783e-11
-4.853866576e-11
-4.846668508e-11
-4.717202826e-11
-4.698929567e-11
-4.680854198e-11
-4.655764187e-11
-4.612886673e-11
-4.657945667e-11
-4.483597081e-11
-4.410437867e-11
-4.324417328e-11
-4.313404447e-11
-4.10181105e-11
-3.981758424e-11
-3.853520678e-11
-3.71145921e-11
-3.553690952e-11
-3.3960431e-11
-3.273481819e-11
-3.072052392e-11
-2.924563924e-11
-2.741538578e-11
-2.555958844e-11
-2.414503311e-11
-2.295310765e-11
-2.78198351e-11
-4.228621668e-11
-8.909590245e-11
-2.200442376e-10
-3.036777269e-10
-4.320137086e-10
-4.588941473e-10
)


101
(
-1.410012069e-14
-8.095478602e-12
-9.649512384e-13
-2.653562582e-12
-4.055692221e-12
-4.180957777e-12
-6.990297892e-12
-1.074645384e-11
-1.557254279e-11
-2.143382524e-11
-2.822207995e-11
-3.51755697e-11
-4.203825683e-11
-4.827917615e-11
-5.339548536e-11
-5.729909824e-11
-5.975968382e-11
-6.063508054e-11
-6.052556562e-11
-5.858388046e-11
-5.581928983e-11
-5.257172325e-11
-4.851883882e-11
-4.417298809e-11
-3.985726338e-11
-3.582466214e-11
-3.222341672e-11
-2.910187706e-11
-2.637950241e-11
-2.405730458e-11
-2.210545533e-11
-2.053487413e-11
-1.948099919e-11
-1.870286289e-11
-1.834322986e-11
-1.830148327e-11
-1.856914164e-11
-1.915048984e-11
-2.001855964e-11
-2.11439221e-11
-2.24972711e-11
-2.405627225e-11
-2.577152046e-11
-2.762140657e-11
-2.957156898e-11
-3.157623889e-11
-3.359949989e-11
-3.561272305e-11
-3.761548224e-11
-3.959263984e-11
-4.151656508e-11
-4.341378775e-11
-4.528291587e-11
-4.707633566e-11
-4.882430397e-11
-5.0539867e-11
-5.220524624e-11
-5.380695447e-11
-5.538038129e-11
-5.692095197e-11
-5.842823175e-11
-5.988938677e-11
-6.131637453e-11
-6.272933767e-11
-6.413647501e-11
-6.54792852e-11
-6.678644289e-11
-7.132757867e-11
-7.252792825e-11
-7.043100178e-11
-7.153504354e-11
-7.256763864e-11
-7.353395755e-11
-7.451431798e-11
-7.54084908e-11
-7.760010288e-11
-7.799739139e-11
-7.673119751e-11
-7.686031523e-11
-7.681179875e-11
-7.777182082e-11
-7.57503213e-11
-7.493487371e-11
-7.521029801e-11
-7.38893036e-11
-7.101663221e-11
-6.925164124e-11
-6.796955311e-11
-6.592453782e-11
-6.353880899e-11
-6.089139544e-11
-5.820590308e-11
-5.647916137e-11
-5.473516796e-11
-6.27246166e-11
-8.907506816e-11
-1.796179972e-10
-3.800686185e-10
-4.78924756e-10
-6.125246981e-10
-5.888909652e-10
)


101
(
-1.382255095e-14
-1.038945212e-13
-2.322347011e-11
-2.632855809e-12
-4.073765206e-12
-4.409790127e-12
-7.224760616e-12
-1.120636898e-11
-1.628082314e-11
-2.241043612e-11
-2.944445186e-11
-3.673111577e-11
-4.391020529e-11
-5.052872253e-11
-5.606650594e-11
-6.039922093e-11
-6.333639141e-11
-6.466601909e-11
-6.497269907e-11
-6.344704467e-11
-6.095300336e-11
-5.787397828e-11
-5.395820546e-11
-4.969665389e-11
-4.53711387e-11
-4.122367015e-11
-3.743926862e-11
-3.410950233e-11
-3.118582961e-11
-2.868005009e-11
-2.656233897e-11
-2.48425165e-11
-2.36681847e-11
-2.280954009e-11
-2.242109905e-11
-2.240382067e-11
-2.274424106e-11
-2.344034127e-11
-2.446238679e-11
-2.577377304e-11
-2.734311726e-11
-2.913777969e-11
-3.109951945e-11
-3.320376062e-11
-3.541983228e-11
-3.770595783e-11
-4.002992535e-11
-4.236672192e-11
-4.472174995e-11
-4.70738338e-11
-4.941983819e-11
-5.180422863e-11
-5.422239761e-11
-5.663620154e-11
-5.908671944e-11
-6.159186156e-11
-6.412700805e-11
-6.669149325e-11
-6.929217503e-11
-7.197348582e-11
-7.46960488e-11
-7.745139441e-11
-8.025728681e-11
-8.317611342e-11
-8.614422862e-11
-8.910095781e-11
-9.208401072e-11
-9.505935707e-11
-1.024189754e-10
-1.010570069e-10
-1.040114341e-10
-1.090773876e-10
-1.097992006e-10
-1.126979551e-10
-1.154883556e-10
-1.200560213e-10
-1.222472476e-10
-1.241153547e-10
-1.239451032e-10
-1.254233226e-10
-1.263501376e-10
-1.288114292e-10
-1.272459787e-10
-1.28883849e-10
-1.282764436e-10
-1.254805757e-10
-1.240318486e-10
-1.231292721e-10
-1.212422729e-10
-1.179717424e-10
-1.154796188e-10
-1.128326432e-10
-1.100323363e-10
-1.081536459e-10
-1.200856257e-10
-1.597499365e-10
-3.036032236e-10
-5.609058796e-10
-6.419161361e-10
-7.315156595e-10
-6.367023881e-10
)


101
(
-1.35467331e-14
-1.087063404e-13
-2.25753971e-11
-2.608831913e-12
-4.082773924e-12
-4.608451976e-12
-7.429345227e-12
-1.159627107e-11
-1.689395729e-11
-2.326366285e-11
-3.051426148e-11
-3.809550759e-11
-4.557997329e-11
-5.256925082e-11
-5.85378932e-11
-6.332321511e-11
-6.675851768e-11
-6.859232514e-11
-6.936902965e-11
-6.830839244e-11
-6.618366464e-11
-6.337553889e-11
-5.969091559e-11
-5.55981673e-11
-5.135885422e-11
-4.71932176e-11
-4.329856771e-11
-3.980757409e-11
-3.671285021e-11
-3.404690876e-11
-3.17825507e-11
-2.992487463e-11
-2.862948758e-11
-2.767820206e-11
-2.72375781e-11
-2.721370875e-11
-2.758893846e-11
-2.835449894e-11
-2.947567915e-11
-3.091022937e-11
-3.262066195e-11
-3.45664308e-11
-3.669430834e-11
-3.898060909e-11
-4.140021224e-11
-4.391756583e-11
-4.65176501e-11
-4.918613451e-11
-5.191863443e-11
-5.470976397e-11
-5.758250319e-11
-6.05765954e-11
-6.368946537e-11
-6.691567735e-11
-7.028094327e-11
-7.380697845e-11
-7.749629535e-11
-8.133622701e-11
-8.531560153e-11
-9.490880181e-11
-9.383650913e-11
-9.833896373e-11
-1.030218626e-10
-1.079526393e-10
-1.12979384e-10
-1.181328433e-10
-1.233858961e-10
-1.231901338e-10
-1.341530178e-10
-1.423090227e-10
-1.450388518e-10
-1.532422667e-10
-1.532695531e-10
-1.588261657e-10
-1.668531792e-10
-1.718687748e-10
-1.790588818e-10
-1.833221891e-10
-1.84897006e-10
-1.884565362e-10
-1.938265108e-10
-1.961976045e-10
-1.956326351e-10
-1.970105094e-10
-1.997884628e-10
-1.994892688e-10
-1.966049278e-10
-1.964323142e-10
-1.949455416e-10
-1.915638672e-10
-1.899856968e-10
-1.862693481e-10
-1.823433357e-10
-1.806309438e-10
-1.965541792e-10
-2.473716493e-10
-4.425914802e-10
-7.15401245e-10
-7.312712646e-10
-7.053182398e-10
-4.690177277e-10
)


101
(
-1.327268251e-14
-7.443742545e-12
-9.631381147e-13
-2.581601165e-12
-4.083179362e-12
-4.779125583e-12
-7.605657921e-12
-1.192250768e-11
-1.741819021e-11
-2.40032004e-11
-3.144739333e-11
-3.928642939e-11
-4.70654221e-11
-5.442065814e-11
-6.082764481e-11
-6.608751055e-11
-7.003990949e-11
-7.2418197e-11
-7.371542378e-11
-7.316630789e-11
-7.151107032e-11
-6.908478025e-11
-6.573217025e-11
-6.18987497e-11
-5.784251354e-11
-5.37614064e-11
-4.984388809e-11
-4.625655223e-11
-4.303678388e-11
-4.024275955e-11
-3.785107177e-11
-3.586546932e-11
-3.445177417e-11
-3.339685902e-11
-3.287834318e-11
-3.281255695e-11
-3.317678871e-11
-3.395384027e-11
-3.510544442e-11
-3.658821592e-11
-3.83590643e-11
-4.038672788e-11
-4.261616543e-11
-4.502555767e-11
-4.760479596e-11
-5.033683481e-11
-5.322465561e-11
-5.625050777e-11
-5.941692604e-11
-6.274469079e-11
-6.62606967e-11
-7.000057769e-11
-7.397839657e-11
-7.820554e-11
-8.268762487e-11
-8.746762773e-11
-9.258257721e-11
-9.79788572e-11
-1.036499586e-10
-1.164049384e-10
-1.227894648e-10
-1.226605565e-10
-1.296580321e-10
-1.369885029e-10
-1.445412176e-10
-1.52398931e-10
-1.603569994e-10
-1.685093365e-10
-1.767978189e-10
-1.885642933e-10
-1.970247816e-10
-2.020773943e-10
-2.072163559e-10
-2.157528511e-10
-2.240067887e-10
-2.317879038e-10
-2.422811422e-10
-2.522846553e-10
-2.555450304e-10
-2.613504854e-10
-2.693200921e-10
-2.703057983e-10
-2.763188095e-10
-2.760963122e-10
-2.802236646e-10
-2.831141247e-10
-2.7989929e-10
-2.750452161e-10
-2.770397011e-10
-2.732015746e-10
-2.69468248e-10
-2.659172229e-10
-2.612370991e-10
-2.591896771e-10
-2.744032432e-10
-3.301985657e-10
-5.547983569e-10
-7.687503396e-10
-6.708603042e-10
-4.994169167e-10
-1.40363629e-10
)


101
(
-1.300041358e-14
-7.232414083e-12
-9.583343521e-13
-2.551279028e-12
-5.388165633e-11
-4.923792977e-12
-7.755211206e-12