/*--------------------------------*- C++ -*----------------------------------*\
| =========                 |                                                 |
| \\      /  F ield         | OpenFOAM: The Open Source CFD Toolbox           |
|  \\    /   O peration     | Version:  2.3.1                                 |
|   \\  /    A nd           | Web:      www.OpenFOAM.org                      |
|    \\/     M anipulation  |                                                 |
\*---------------------------------------------------------------------------*/
FoamFile
{
    version     2.0;
    format      ascii;
    class       dictionary;
    location    "constant";
    object      rho;
}
// * * * * * * * * * * * * * * * * * * * * * * * * * * * * * * * * * * * * * //

rho_table
101
(

101
(
1.107212784
1.10559835
1.104022921
1.102500542
1.101044236
1.099658285
1.098341796
1.097098802
1.095925513
1.094820473
1.09378134
1.092806759
1.091893621
1.091043483
1.090253155
1.089520901
1.088846314
1.088229463
1.087662977
1.087153536
1.086691924
1.086275967
1.085908662
1.085584787
1.085301361
1.085056483
1.084848167
1.084674256
1.08453387
1.084424781
1.084345631
1.084294281
1.084266779
1.084270555
1.084297395
1.08434745
1.084419132
1.084510403
1.084622362
1.08475547
1.084908012
1.085076095
1.085261889
1.085463835
1.085679934
1.085911292
1.086156023
1.086414818
1.086686193
1.08697041
1.087266141
1.087573277
1.087891296
1.088219624
1.088557707
1.088905131
1.089262677
1.089628055
1.090002467
1.090384613
1.09077478
1.091172223
1.091576665
1.091987989
1.092405774
1.092829858
1.093259826
1.093695425
1.094136629
1.094582928
1.095034227
1.095490271
1.095951047
1.096415955
1.096884749
1.097357158
1.097833484
1.098313295
1.098796261
1.099282179
1.099770872
1.100262424
1.100756376
1.1012527
1.101751168
1.102251617
1.10275389
1.103257852
1.103763377
1.104270339
1.104778589
1.105287994
1.10579846
1.10630987
1.106822109
1.107335102
1.107796591
1.017963766
0.9419901091
0.8769464531
0.8206684933
)


101
(
1.107180865
1.104678216
1.102239581
1.09981276
1.09739248
1.094980924
1.09258701
1.090199799
1.08783734
1.085495709
1.083179378
1.080886712
1.078628563
1.076379773
1.074171476
1.071995394
1.069840875
1.067701333
1.065643527
1.063533986
1.061524
1.059552258
1.057548572
1.055605649
1.053711028
1.051846987
1.050014568
1.048218989
1.046441714
1.0447042
1.042996661
1.041333149
1.03975386
1.038033288
1.036453034
1.034899397
1.033382203
1.0319222
1.030460918
1.028973981
1.027522058
1.026178653
1.024804696
1.023463148
1.022187574
1.020898744
1.019660229
1.018416639
1.017215736
1.016018559
1.014865268
1.01372909
1.012615756
1.011529503
1.010473179
1.009442256
1.008393661
1.007420988
1.006433763
1.005489626
1.004553557
1.003647778
1.002767464
1.001904545
1.001065799
1.000247076
0.9994554864
0.9986883562
0.9979361758
0.9972162063
0.99651663
0.9958402738
0.9951783191
0.9945509266
0.993953878
0.9933926749
0.9928459184
0.9923278063
0.9918455078
0.9913953238
0.9909782702
0.9905838488
0.9902294814
0.9899067273
0.9896269234
0.9893848844
0.9891842361
0.9890210603
0.9889006243
0.9888122985
0.9887814339
0.9887820026
0.9888214746
0.9889014652
0.9890140324
0.9890516382
0.98892
0.9166055576
0.8545246669
0.8006973625
0.7535872365
)


101
(
1.107148949
1.103759371
1.100461592
1.097139093
1.093769027
1.090352044
1.086907038
1.083410172
1.079899564
1.076370831
1.072834817
1.069290737
1.065761557
1.062202301
1.058669076
1.055152714
1.051634683
1.048102525
1.044675452
1.041133494
1.037716288
1.034348625
1.030905427
1.027526616
1.024211143
1.020932401
1.017689897
1.014493054
1.011315347
1.008187174
1.005099472
1.002073509
0.9991742513
0.996077662
0.9931420463
0.990263859
0.9874426554
0.9847082464
0.9819837815
0.9792210417
0.976494138
0.9739182575
0.9713281099
0.9687773248
0.9663198671
0.9638626776
0.9614714849
0.9590860344
0.9567570228
0.954444021
0.9521907217
0.9499717287
0.9477897321
0.9456502863
0.9435584029
0.941509936
0.9394511882
0.9374843492
0.9355211505
0.9336140825
0.931730685
0.9298914631
0.9280944482
0.9263304164
0.9246046884
0.9229141829
0.9212661789
0.9196593822
0.9180827256
0.9165536594
0.9150618224
0.9136099546
0.912188089
0.9108153434
0.9094906112
0.9082209301
0.9069868176
0.9057977275
0.9046652483
0.9035857854
0.9025611378
0.9015808662
0.9006605185
0.8997946194
0.8989949791
0.8982569088
0.8975892843
0.8969848103
0.8964508557
0.8959702952
0.895578424
0.8952388182
0.8949666584
0.8947578886
0.8946021902
0.8943224161
0.8937944022
0.8342956487
0.7825824416
0.7372696176
0.6972247857
)


101
(
1.107117034
1.102841809
1.098688911
1.094479386
1.090173486
1.085770817
1.081300352
1.076727226
1.07210799
1.067439436
1.062738415
1.058005837
1.053275184
1.048487182
1.043715755
1.0389543
1.034178781
1.029371679
1.024688196
1.01985838
1.015165715
1.010542043
1.00582671
1.001176287
0.9966058084
0.992087127
0.9876171171
0.9832066744
0.9788262025
0.974508094
0.9702461471
0.9660653176
0.9620431611
0.9578248283
0.9537636499
0.9497849921
0.9458874076
0.9421023905
0.9383511697
0.9345716395
0.9308312388
0.9272589876
0.9237020287
0.9201990297
0.9168059293
0.9134360817
0.9101468946
0.9068815598
0.9036853363
0.9005216529
0.8974306909
0.8943912078
0.891404352
0.8884747746
0.885607953
0.8828009436
0.8800013761
0.8773004467
0.8746229178
0.8720131942
0.8694429688
0.8669295406
0.8644720182
0.8620622978
0.8597036584
0.8573938594
0.8551391524
0.8529391794
0.8507838584
0.8486881083
0.8466429554
0.8446517216
0.8427053813
0.840819294
0.8389933518
0.8372345874
0.8355284274
0.8338804252
0.8323033034
0.8307942624
0.8293557101
0.8279787945
0.8266756753
0.8254430588
0.8242919729
0.8232171522
0.822231274
0.8213274295
0.8205140386
0.819768667
0.8191319534
0.8185596497
0.8180731167
0.8176665384
0.8173241534
0.8168257454
0.8160266935
0.7661796729
0.7224033146
0.683701443
0.64921268
)


101
(
1.107085121
1.101925519
1.096921495
1.091833487
1.086605471
1.081236431
1.075765463
1.070148352
1.064458571
1.058695394
1.052881363
1.047019702
1.041153015
1.03521212
1.029283313
1.023364458
1.017428186
1.011452759
1.005616951
0.999625254
0.9937782695
0.9880226793
0.9821785623
0.9764022601
0.97072248
0.9651144318
0.9595732118
0.9541094824
0.9486928521
0.9433545314
0.9380907863
0.9329284478
0.927950397
0.9228039818
0.917811511
0.9129188798
0.9081300552
0.9034765144
0.8988840541
0.8942852869
0.8897357901
0.8853619037
0.8810308289
0.8767725968
0.8726379639
0.8685496209
0.8645572109
0.8606084583
0.856742218
0.8529255157
0.8491938471
0.845529253
0.8419324338
0.8384068737
0.8349574068
0.8315818373
0.8282326865
0.8249882437
0.8217840907
0.818658321
0.8155862709
0.8125824484
0.8096461333
0.8067704298
0.8039570289
0.801204143
0.7985167578
0.7958949392
0.793329995
0.7908345291
0.7884002112
0.7860307734
0.7837185322
0.7814756231
0.7793020428
0.7772041537
0.7751713826
0.7732064917
0.7713224472
0.7695168995
0.767793254
0.7661443226
0.7645792709
0.7630961349
0.7617048722
0.7603994947
0.7591945629
0.7580832735
0.7570770862
0.7561498223
0.755344002
0.7546100812
0.7539723789
0.7534265065
0.7529514689
0.7522979868
0.7513106953
0.7089087769
0.6713391953
0.6378694527
0.6078261286
)


101
(
1.10705321
1.101010493
1.095159303
1.089201244
1.0830646
1.076748091
1.070300916
1.063671025
1.0569474
1.050132831
1.043255265
1.03632067
1.029379545
1.022356274
1.015345393
1.008350091
1.001341489
0.9942944918
0.9874021556
0.9803593988
0.9734684322
0.9666919162
0.9598428035
0.9530690762
0.9464084678
0.9398417733
0.9333637473
0.9269841168
0.92067267
0.9144580549
0.9083379259
0.9023396911
0.8965472828
0.8906252362
0.8848609543
0.8792105593
0.873683101
0.8683105016
0.8630254564
0.8577611066
0.8525618774
0.8475438933
0.8425919449
0.8377319168
0.8330084196
0.8283523609
0.8238071005
0.8193249071
0.8149389004
0.8106188926
0.8063956407
0.802253396
0.7981927018
0.7942161549
0.7903275837
0.786524995
0.7827661359
0.779118156
0.7755248718
0.7720190852
0.7685792017
0.7652174938
0.7619331387
0.7587201933
0.7555791906
0.7525085613
0.749511992
0.7465895758
0.7437338599
0.7409557004
0.7382471229
0.7356119415
0.733043624
0.7305517892
0.7281362985
0.7258027872
0.7235437565
0.7213596778
0.7192632269
0.7172522508
0.7153309428
0.713494157
0.7117486637
0.710093271
0.7085368157
0.7070725588
0.7057159733
0.7044601004
0.7033181685
0.7022637349
0.7013393391
0.7004914917
0.6997460542
0.6990988098
0.6985273876
0.6977612808
0.6966409114
0.6600990021
0.6274721957
0.5982126751
0.5717805695
)


101
(
1.107021301
1.100096724
1.093402291
1.086582507
1.079550499
1.07230502
1.064905299
1.0572928
1.049570711
1.041746118
1.033852112
1.025897683
1.017940138
1.009900136
1.001877361
0.9938804614
0.985880505
0.9778498766
0.9699890531
0.9619935097
0.9541585051
0.9464608286
0.9387145381
0.931056265
0.9235282384
0.9161170809
0.9088184217
0.9016410221
0.8945553055
0.8875868362
0.880733615
0.8740225035
0.8675358409
0.8609612846
0.854554907
0.8482765373
0.8421375435
0.8361698315
0.8303134572
0.8245053359
0.8187814422
0.8132454562
0.8077955581
0.8024551864
0.7972635167
0.7921582805
0.7871776009
0.7822780458
0.7774879623
0.7727793896
0.7681785991
0.7636712101
0.7592575414
0.7549395119
0.7507200021
0.7465969034
0.7425326741
0.7385851686
0.7347047402
0.7309195566
0.7272104795
0.7235879288
0.7200509274
0.7165942965
0.7132177233
0.7099198234
0.7067030324
0.7035671948
0.7005057622
0.6975282031
0.6946269543
0.6918057404
0.6890589109
0.6863940126
0.6838107102
0.6813139415
0.678898664
0.676563585
0.6743208001
0.672168038
0.6701098848
0.6681430209
0.6662728712
0.6644987296
0.6628283971
0.6612544409
0.6597925433
0.6584354297
0.6571972167
0.6560523192
0.6550432438
0.6541138751
0.6532903782
0.6525679159
0.6519247544
0.6510752787
0.6498590793
0.6180104797
0.5893823942
0.5635592238
0.5400990971
)


101
(
1.106989394
1.099184201
1.091650416
1.083977125
1.076062797
1.067906453
1.059577229
1.051011305
1.042324858
1.033529845
1.02466425
1.015740233
1.006820939
0.997825404
0.9888561413
0.9799269504
0.9710099249
0.9620757187
0.9533272163
0.9444666207
0.93577785
0.9272489279
0.9187001027
0.9102564122
0.9019610863
0.8938056597
0.8857873197
0.8779141184
0.8701573879
0.8625395651
0.855058216
0.8477387446
0.8406601551
0.8335344245
0.8265916179
0.8197924327
0.8131478216
0.8066884208
0.8003609421
0.7941074772
0.7879582279
0.7820049567
0.7761559004
0.7704322626
0.7648685685
0.7594082105
0.7540847453
0.7488586532
0.7437544436
0.7387461145
0.7338558779
0.7290700545
0.7243885144
0.7198126214
0.7153444364
0.7109816305
0.7066907102
0.7025219013
0.6984308061
0.6944415223
0.6905368056
0.6867254577
0.6830063204
0.6793748379
0.6758301004
0.6723709615
0.6689987953
0.6657130233
0.6625076234
0.6593908697
0.6563556368
0.6534055445
0.6505356578
0.647751823
0.6450534379
0.6424447442
0.6399226559
0.6374846474
0.6351421633
0.6328925975
0.6307406268
0.6286842613
0.626728189
0.6248722569
0.6231234281
0.6214737211
0.6199388167
0.618510725
0.6172040726
0.6159937292
0.6149233057
0.6139344362
0.6130533187
0.6122739125
0.6115757361
0.6106642483
0.6093772401
0.5813440421
0.5559954889
0.5330130959
0.512028031
)


101
(
1.106957489
1.098272918
1.089903636
1.081384953
1.072601132
1.063551645
1.054315365
1.044824249
1.035206332
1.025478832
1.01568438
1.005838352
0.9960088625
0.9861149126
0.9762601382
0.9664629119
0.9566970855
0.9469322891
0.9373702298
0.9277233234
0.9182622357
0.9089832533
0.899715538
0.890573598
0.8815993504
0.872787851
0.8641379744
0.8556573568
0.847318441
0.8391407394
0.8311209122
0.8232822114
0.8156991745
0.8081070331
0.8007145208
0.7934826971
0.7864204592
0.7795558763
0.7728409395
0.7662229536
0.7597283318
0.7534385416
0.7472697635
0.7412408502
0.7353822057
0.7296419411
0.7240494641
0.7185686614
0.7132209026
0.7079820391
0.7028708561
0.6978740182
0.6929906193
0.6882213713
0.6835676929
0.6790270265
0.6745692994
0.6702384115
0.6659944242
0.6618578787
0.6578129471
0.6538669135
0.6500183826
0.6462632684
0.6426002417
0.6390284745
0.635548576
0.6321595065
0.6288554704
0.6256435293
0.6225169676
0.6194793898
0.6165265077
0.6136627588
0.610887236
0.6082034971
0.6056099209
0.6031031581
0.6006940924
0.598379732
0.5961645822
0.5940476337
0.5920330311
0.5901212581
0.5883186086
0.5866167059
0.5850312846
0.58355338
0.5821979488
0.5809398646
0.5798240237
0.5787908787
0.5778661786
0.5770428438
0.5763010986
0.5753412392
0.5740021307
0.5491117472
0.5264857412
0.5058785717
0.4869766897
)


101
(
1.106925586
1.097362863
1.088161907
1.078805841
1.069165139
1.059239856
1.049118388
1.038729401
1.028211728
1.017588087
1.006905507
0.9961825451
0.9854914948
0.9747525093
0.9640690876
0.9534634594
0.9429116742
0.9323829377
0.9220752708
0.9117130492
0.9015531245
0.8915974392
0.8816852014
0.8719218532
0.8623467002
0.8529569209
0.8437527879
0.834741686
0.8258973148
0.8172365892
0.8087550637
0.8004734077
0.7924609495
0.7844741064
0.7767038529
0.7691120429
0.7617050526
0.7545075186
0.7474751741
0.7405598562
0.7337852618
0.7272242673
0.720799889
0.7145285722
0.7084369932
0.7024772475
0.696674912
0.690996713
0.6854613423
0.6800463762
0.6747677701
0.6696125102
0.6645788178
0.6596665166
0.6548763253
0.650205513
0.6456269248
0.6411791436
0.6368261391
0.6325854275
0.6284422538
0.6244025026
0.6204644342
0.6166242197
0.6128801644
0.6092317958
0.6056792957
0.6022212941
0.598852097
0.5955775261
0.5923910294
0.5892962155
0.5862893964
0.5833739868
0.5805488187
0.5778167568
0.5751771833
0.5726261518
0.5701741927
0.5678179862
0.565561619
0.5634047739
0.5613511949
0.5594020366
0.55756298
0.5558253524
0.5542050376
0.5526923171
0.5513018586
0.5500087733
0.5488585066
0.5477916835
0.5468331036
0.545974978
0.545197649
0.5441994114
0.542821119
0.5205499229
0.500208692
0.4816077626
0.4644762106
)


101
(
1.106893684
1.096454029
1.086425188
1.076239648
1.06575447
1.054970374
1.043985026
1.032724612
1.021337774
1.009852836
0.9983209672
0.9867638044
0.9752571011
0.9637230194
0.9522640053
0.9409053745
0.92962557
0.9183938552
0.907402859
0.8963895544
0.8855971414
0.8750311041
0.8645407801
0.8542239736
0.8441168304
0.8342174839
0.8245270806
0.8150527409
0.8057694685
0.796691952
0.7878146427
0.7791554319
0.7707780613
0.7624577345
0.7543701576
0.7464785626
0.7387870714
0.7313166874
0.7240256433
0.7168692355
0.7098688174
0.7030900177
0.6964620848
0.6899992401
0.6837248263
0.6775943443
0.6716298104
0.6658002045
0.6601218576
0.6545739484
0.6491700701
0.6438975527
0.6387538447
0.6337378717
0.6288494501
0.6240856149
0.6194217057
0.614891783
0.6104632667
0.6061511626
0.6019416291
0.5978392466
0.5938419041
0.5899458144
0.5861488613
0.5824508375
0.5788517745
0.57535021
0.571940577
0.5686274876
0.5654043265
0.5622745668
0.5592351105
0.5562886028
0.5534337358
0.5506727313
0.5480057097
0.5454281415
0.5429502235
0.540568608
0.5382869247
0.5361050803
0.5340265238
0.5320530953
0.5301901275
0.5284284257
0.526784045
0.5252471082
0.523831396
0.5225123729
0.5213353214
0.5202422732
0.5192565851
0.5183700686
0.5175628451
0.5165334351
0.5151247679
0.4950595283
0.4766546242
0.4597638229
0.4441484574
)


101
(
1.106861785
1.095546406
1.084693436
1.073686226
1.062368771
1.050742491
1.038914025
1.026807784
1.014581292
1.00226847
0.9899243628
0.9775735317
0.9652945315
0.9530121219
0.9408270383
0.9287669141
0.9168125864
0.904933735
0.893316501
0.881710382
0.8703454536
0.859229112
0.8482202919
0.8374103383
0.8268321552
0.8164839793
0.8063672584
0.7964886791
0.7868244811
0.7773874556
0.7681710874
0.7591905098
0.7505037487
0.7419025128
0.7335488744
0.7254078256
0.7174817864
0.7097884294
0.7022877027
0.6949373614
0.6877563821
0.680803978
0.6740150589
0.6674020575
0.6609853673
0.6547234899
0.6486352523
0.6426913913
0.6369059278
0.6312594938
0.6257637069
0.6204063279
0.6151841628
0.6100953003
0.6051386713
0.6003109003
0.59558935
0.5910041786
0.5865258646
0.5821673868
0.5779157276
0.573774339
0.5697407078
0.565810983
0.5619825571
0.5582553022
0.554629099
0.5511026952
0.5476707874
0.5443369861
0.5410944679
0.5379463455
0.5348899249
0.531927311
0.5290572004
0.5262813249
0.5236003498
0.5210091803
0.5185175461
0.5161222381
0.5138266826
0.5116306648
0.5095371911
0.5075488012
0.505670759
0.5038934458
0.5022325807
0.5006787769
0.4992449355
0.4979063122
0.4967081047
0.4955939137
0.4945858547
0.4936753753
0.4928423216
0.491786841
0.4903542202
0.4721643637
0.4554150011
0.4399943985
0.4256895924
)


101
(
1.106829887
1.094639986
1.082966608
1.071145433
1.059007698
1.046555514
1.033904166
1.020976886
1.007939213
0.9948305634
0.9817095752
0.9686035424
0.9555932137
0.9426063198
0.9297414171
0.917027729
0.9044483389
0.8919735894
0.8797824548
0.8676365136
0.8557533503
0.8441410665
0.8326673678
0.8214179923
0.810422778
0.7996795132
0.7891894366
0.7789585477
0.7689641383
0.7592173407
0.7497108555
0.740457255
0.7315089657
0.7226721124
0.7140962862
0.7057482865
0.6976293448
0.6897543514
0.6820847143
0.6745799457
0.6672563636
0.6601672321
0.6532524886
0.6465231726
0.6399972054
0.6336357847
0.6274549104
0.6214267742
0.6155631979
0.6098459052
0.6042848094
0.5988681488
0.5935922999
0.5884546609
0.583453314
0.5785843856
0.5738268708
0.5692074208
0.5646991948
0.5603134937
0.5560381588
0.5518756799
0.5478231965
0.5438767392
0.5400331516
0.5362922489
0.5326536375
0.5291163049
0.5256754316
0.5223339343
0.5190848024
0.5159306452
0.5128688923
0.5099011762
0.5070263028
0.5042457228
0.5015605133
0.4989651053
0.4964687199
0.4940681462
0.4917668092
0.4895644824
0.4874634286
0.4854666561
0.4835797014
0.4817929052
0.4801210285
0.4785553243
0.4771083448
0.4757547852
0.4745393798
0.4734076477
0.4723805968
0.4714492257
0.4705932636
0.4695151869
0.4680634041
0.4514818124
0.4361594093
0.4220120322
0.4088465884
)


101
(
1.106797991
1.093734757
1.08124466
1.068617126
1.055670909
1.042408762
1.028954255
1.015229945
1.001408571
0.9875348562
0.9736707423
0.9598460339
0.9461431079
0.9324928704
0.9189913681
0.9056687437
0.8925100825
0.879486523
0.8667694978
0.8541320009
0.8417797988
0.8297208317
0.817830605
0.8061898379
0.7948255663
0.7837348222
0.7729182316
0.7623808452
0.75210075
0.7420875467
0.7323333162
0.7228483406
0.7136797537
0.7046463758
0.695886139
0.6873674332
0.6790906193
0.6710683853
0.6632636552
0.6556373339
0.648202956
0.6410080758
0.6339968594
0.6271791161
0.620570809
0.6141356766
0.6078872864
0.6017991024
0.5958808097
0.5901149677
0.5845099205
0.5790543522
0.5737443411
0.5685767928
0.5635490885
0.5586568075
0.5538802924
0.5492429999
0.544720333
0.5403221722
0.5360372314
0.5318672217
0.5278090236
0.5238585868
0.5200122471
0.5162695647
0.5126297793
0.5090920073
0.5056519555
0.5023122115
0.4990657108
0.495914575
0.4928561358
0.4898914586
0.4870194336
0.484241382
0.4815588643
0.4789659409
0.4764712546
0.4740715024
0.4717701072
0.4695670418
0.4674637756
0.4654633934
0.4635717583
0.4617797013
0.4601008768
0.4585267483
0.4570699131
0.4557049212
0.4544752057
0.4533283934
0.4522846857
0.4513345873
0.4504578661
0.4493598753
0.447892324
0.4327006027
0.4186170836
0.4055796859
0.3934119972
)


101
(
1.106766098
1.092830711
1.079527549
1.066101161
1.052358065
1.038301565
1.024063125
1.009565042
0.9949864895
0.9803772429
0.9658022396
0.9512935561
0.936934669
0.9226597258
0.9085620334
0.8946720534
0.8809765635
0.8674475318
0.8542486855
0.8411636725
0.8283870742
0.8159260744
0.8036630093
0.7916739307
0.7799833291
0.7685873424
0.7574857127
0.7466823216
0.7361557559
0.7259141105
0.7159489486
0.7062685678
0.6969152357
0.6877190374
0.6788069986
0.6701487347
0.6617438188
0.6536031585
0.6456913431
0.6379707174
0.6304520782
0.6231774369
0.6160943903
0.6092114421
0.6025429592
0.5960551806
0.5897595908
0.5836308536
0.5776767639
0.5718803821
0.5662485408
0.5607703583
0.5554416894
0.5502590438
0.5452193156
0.5403175972
0.5355353061
0.5308930043
0.5263679554
0.5219687713
0.5176849857
0.5135177305
0.5094636854
0.5055187963
0.501678975
0.4979434814
0.4943111035
0.4907808623
0.4873489534
0.4840177921
0.4807805173
0.4776388885
0.4745900886
0.471634493
0.4687709108
0.4660005553
0.4633255472
0.460739768
0.4582513753
0.4558568233
0.4535593806
0.4513593642
0.4492577262
0.4472572662
0.4453638805
0.4435693152
0.441886481
0.4403064455
0.4388419347
0.4374679202
0.4362260042
0.4350658871
0.4340071256
0.43303979
0.4321438892
0.4310279886
0.4295470245
0.4155646628
0.4025636367
0.3904997627
0.3792113529
)


101
(
1.106734206
1.091927837
1.077815231
1.0635974
1.049068835
1.034233271
1.019229642
1.00398032
0.9886701938
0.9733537792
0.9580986872
0.9429390095
0.9279588341
0.9130955071
0.8984394311
0.8840208633
0.8698279196
0.8558333615
0.8421931706
0.8287008736
0.8155404484
0.8027179284
0.7901215696
0.7778229331
0.7658441613
0.7541804704
0.7428305632
0.7317969975
0.7210585814
0.7106218555
0.7004778829
0.6906332326
0.6811258038
0.6717958484
0.6627601621
0.6539892264
0.64548173
0.6372470317
0.6292514791
0.6214590338
0.6138780607
0.6065453937
0.5994112533
0.5924826287
0.5857723564
0.5792491448
0.5729228735
0.5667693253
0.5607946063
0.5549822073
0.549337454
0.5438497025
0.538514682
0.53332863
0.5282880417
0.5233877082
0.5186099234
0.5139726146
0.509454578
0.5050632241
0.5007888098
0.4966320977
0.4925896212
0.4886573547
0.4848308724
0.4811092038
0.4774906522
0.4739740205
0.4705557727
0.4672381863
0.464014784
0.460887179
0.4578524596
0.4549103377
0.4520593435
0.4493004271
0.4466362139
0.4440606819
0.4415817186
0.4391954319
0.4369047876
0.4347103541
0.4326128679
0.4306148806
0.4287219138
0.4269265452
0.4252415969
0.4236575109
0.422186742
0.4208052283
0.4195526418
0.4183804026
0.4173078254
0.4163242744
0.4154103274
0.4142780786
0.4127853722
0.3998619064
0.3878122414
0.3766066595
0.3660931926
)


101
(
1.106702316
1.091026128
1.076107668
1.061105706
1.045802897
1.030203242
1.014452703
0.9984739807
0.9824570024
0.966460669
0.9505549296
0.9347756183
0.9192069868
0.9037894497
0.888610385
0.8736993966
0.8590455619
0.8446223404
0.8305780232
0.8167152325
0.8032078939
0.7900606341
0.7771668162
0.7645935774
0.7523608205
0.7404628541
0.7288972875
0.717665275
0.7067456261
0.696143238
0.6858486043
0.6758667498
0.6662316817
0.6567929763
0.6476579279
0.6387975585
0.6302095045
0.6219016014
0.6138419374
0.605996259
0.5983709955
0.5909982773
0.5838304039
0.5768725705
0.5701359739
0.5635915751
0.5572480501
0.5510823869
0.5450992407
0.5392824564
0.533635937
0.5281491363
0.5228175713
0.5176373225
0.5126046012
0.5077139723
0.5029486338
0.4983240831
0.4938203458
0.4894436755
0.485184953
0.4810446489
0.4770192711
0.4731048345
0.4692966373
0.4655936038
0.4619935678
0.4584950386
0.4550945695
0.4517942509
0.4485880079
0.4454774636
0.4424597892
0.4395341417
0.4366987201
0.4339540123
0.4313028834
0.4287396006
0.42627197
0.4238959924
0.4216141602
0.4194269974
0.4173352058
0.4153413542
0.4134503282
0.4116552573
0.4099692581
0.4083823969
0.4069063121
0.4055181503
0.4042560298
0.4030723504
0.4019868472
0.4009878291
0.4000565684
0.3989089012
0.3974059576
0.3854147233
0.3742055145
0.3637605327
0.3539380701
)


101
(
1.106670428
1.09012557
1.074404809
1.058625933
1.042559916
1.026210832
1.009731206
0.9930442497
0.97634429
0.9596942212
0.9431659857
0.9267968715
0.9106708851
0.8947313141
0.8790624176
0.8636927625
0.8486120199
0.8337941954
0.8193800019
0.805180406
0.7913597815
0.7779211829
0.7647624069
0.7519461524
0.7394901273
0.727387733
0.71563549
0.7042331455
0.6931593607
0.6824173111
0.6719967869
0.6619013567
0.6521615564
0.642635605
0.6334220849
0.6244923298
0.6158427579
0.6074796314
0.5993725718
0.5914891272
0.5838343507
0.5764362909
0.5692490702
0.5622758914
0.5555260555
0.5489723774
0.5426226196
0.5364551091
0.5304733072
0.5246614425
0.5190220844
0.5135446403
0.5082243685
0.5030571963
0.4980391382
0.4931646568
0.4884177794
0.4838119002
0.479328087
0.4749714141
0.4707332202
0.4666137273
0.4626095315
0.4587167004
0.4549303526
0.4512493292
0.447671089
0.4441938836
0.4408142004
0.4375338698
0.4343471086
0.4312556251
0.4282568246
0.4253494968
0.4225315958
0.4198030859
0.4171667651
0.4146169721
0.412161728
0.4097971936
0.4075254524
0.4053466804
0.4032615043
0.4012727048
0.399384639
0.3975905373
0.3959039252
0.3943150238
0.3928342556
0.3914398477
0.3901689386
0.3889742186
0.3878762448
0.38686235
0.385914203
0.3847519195
0.3832396589
0.3720733249
0.3616101764
0.3518424407
0.3426367596
)


101
(
1.106638542
1.089226154
1.072706613
1.056157947
1.039339576
1.022255427
1.005064096
0.9876894279
0.9703295387
0.9530509026
0.9359271052
0.9189965803
0.9023427167
0.8859114304
0.8697837829
0.8539869797
0.8385109357
0.8233300215
0.8085775094
0.7940720058
0.7799687695
0.766269193
0.752874931
0.7398442494
0.7271926277
0.7149125357
0.702999417
0.691451665
0.6802477259
0.669389022
0.6588644822
0.6486762088
0.6388515943
0.6292569071
0.6199828335
0.611000941
0.602306321
0.5939035357
0.5857634438
0.5778553035
0.5701831805
0.5627717477
0.5555769083
0.5485998902
0.5418478867
0.535295047
0.5289482146
0.5227871593
0.5168145528
0.5110149899
0.5053898732
0.4999285139
0.4946257793
0.4894774118
0.4844792997
0.479625879
0.4749020167
0.4703192647
0.4658596148
0.4615269939
0.4573130094
0.4532176533
0.449237608
0.4453690817
0.4416070831
0.4379503655
0.4343961402
0.4309424252
0.4275856108
0.4243271703
0.4211614876
0.4180903825
0.415111505
0.4122234578
0.4094241385
0.4067130732
0.4040927321
0.4015573106
0.3991149868
0.396762317
0.3945012281
0.3923315483
0.3902534844
0.3882701013
0.3863854857
0.3845928159
0.3829056692
0.3813149395
0.3798298744
0.3784293269
0.3771499373
0.3759444657
0.3748341149
0.3738056869
0.3728409347
0.3716644821
0.3701435738
0.3597106276
0.3499127488
0.3407507791
0.3320978734
)


101
(
1.106606657
1.088327871
1.07101304
1.053701612
1.036141563
1.018336421
1.000450341
0.9824078624
0.9644103088
0.9465273036
0.9288337235
0.9113688223
0.894215034
0.8773206224
0.8607633778
0.8445688743
0.8287269437
0.8132121241
0.798150401
0.7833673642
0.7690095304
0.7550765955
0.7414735796
0.7282543687
0.7154321287
0.7029983424
0.6909473826
0.6792763533
0.6679634768
0.6570084636
0.64639926
0.6361364265
0.6262444089
0.6165969927
0.6072777187
0.5982584515
0.5895329377
0.5811039767
0.5729433308
0.5650216911
0.5573423677
0.5499272948
0.5427342664
0.5357627886
0.5290178853
0.5224744704
0.5161383321
0.5099905826
0.5040334216
0.4982520001
0.4926467006
0.4872067188
0.4819264956
0.4768014578
0.4718273732
0.4669987329
0.4623012221
0.4577448587
0.4533124923
0.4490069672
0.4448199777
0.4407512289
0.4367974664
0.4329551054
0.4292191467
0.4255882399
0.4220594359
0.4186305673
0.415297928
0.4120625998
0.4089190692
0.4058691469
0.4029107038
0.4000422785
0.3972618795
0.3945687814
0.391965127
0.3894446912
0.3870155292
0.3846747001
0.3824242826
0.3802639355
0.3781931971
0.3762151902
0.3743341378
0.3725430433
0.3708552746
0.3692625468
0.3677733317
0.3663665616
0.3650786719
0.3638625326
0.3627398121
0.3616969584
0.3607157296
0.3595253719
0.3579961559
0.3482182901
0.3390163304
0.330399063
0.3222441974
)


101
(
1.106574775
1.087430707
1.06932404
1.051256786
1.032965555
1.014453201
0.9958889112
0.9771979215
0.9585842088
0.940120103
0.9218814159
0.9039078963
0.8862806948
0.8689501335
0.8519906571
0.8354259806
0.8192455538
0.803423878
0.7880798085
0.7730453254
0.7584585164
0.7443173594
0.7305298581
0.7171455814
0.7041753123
0.6916094437
0.6794412628
0.6676666476
0.6562636091
0.6452302545
0.6345535096
0.6242322879
0.6142881898
0.6046019493
0.59525066
0.5862066046
0.5774623173
0.5690187966
0.5608484161
0.5529229755
0.5452450804
0.5378343797
0.5306507168
0.5236922519
0.5169620028
0.5104352774
0.5041164754
0.4979877809
0.4920511127
0.4862923999
0.4807112445
0.475296775
0.470042977
0.4649448531
0.4599979656
0.4551968827
0.4505281191
0.4460004217
0.4415974888
0.4373212146
0.4331633003
0.4291229776
0.4251970271
0.421382057
0.4176731883
0.4140689979
0.4105664148
0.4071631151
0.4038553473
0.4006438355
0.3975230771
0.3944947587
0.3915569309
0.3887080979
0.3859464466
0.3832712318
0.3806844148
0.3781792419
0.3757633464
0.3734341498
0.371194078
0.369042837
0.36697937
0.3650065248
0.3631287308
0.3613391248
0.3596505553
0.3580554099
0.3565619397
0.3551487221
0.3538520823
0.352625267
0.3514900337
0.3504327025
0.3494349609
0.3482308447
0.3466934275
0.3375034655
0.3288379861
0.3207116021
0.3130083322
)


101
(
1.106542895
1.086534654
1.067639571
1.048823338
1.02981125
1.010605187
0.9913788255
0.9720580486
0.952848955
0.9338261322
0.9150659672
0.8966083858
0.8785329294
0.8607916879
0.8434556865
0.826546587
0.8100531881
0.7939497463
0.7783481525
0.7630862203
0.7482939002
0.7339674343
0.7200174931
0.7064894134
0.6933915563
0.68071311
0.6684462234
0.656585588
0.6451090278
0.6340131902
0.6232840211
0.6129187553
0.6029361328
0.5932232367
0.5838513203
0.574793187
0.5660404063
0.5575922508
0.5494214925
0.5415007204
0.5338317178
0.5264321112
0.5192638874
0.5123242939
0.5056146882
0.4991106011
0.492814804
0.4867101146
0.4807981119
0.4750656732
0.4695119635
0.4641261403
0.4589017697
0.4538333707
0.4489161863
0.44414476
0.4395064303
0.4350088871
0.4306367597
0.426391144
0.4222637084
0.4182531134
0.4143560622
0.4105692846
0.4068880579
0.4033110062
0.3998349717
0.3964575157
0.3931748489
0.3899873789
0.386889586
0.383883014
0.3809657858
0.3781363089
0.3753929491
0.3727351016
0.3701647385
0.3676747054
0.365272049
0.3629541962
0.3607239249
0.3585812374
0.3565247147
0.3545566961
0.3526816668
0.3508931779
0.3492035266
0.3476054495
0.3461074024
0.3446874503
0.3433816499
0.3421439621
0.3409960461
0.339924075
0.3389097494
0.3376919094
0.3361464088
0.3274863505
0.3193051709
0.3116250861
0.3043335105
)


101
(
1.106511016
1.085639692
1.065959586
1.046401126
1.026678332
1.006791786
0.9869190968
0.9669866981
0.9472022995
0.9276422931
0.9083832801
0.8894650522
0.8709652261
0.8528373656
0.835149002
0.8179195788
0.801137004
0.7847750874
0.768938919
0.753471638
0.7384953192
0.7240044463
0.7099120922
0.6962594849
0.683052554
0.6702791644
0.6579302469
0.6459993068
0.6344639993
0.6233196703
0.6125513865
0.6021547455
0.5921456522
0.5824168508
0.5730342038
0.5639711589
0.5552185696
0.5467742078
0.5386110634
0.5307022871
0.5230486949
0.5156659796
0.5085182051
0.5016020584
0.4949176932
0.4884409272
0.4821728415
0.4760963998
0.4702126683
0.4645093871
0.4589855801
0.45363069
0.4484379464
0.4434014057
0.4385158724
0.4337757541
0.4291690464
0.4247026136
0.4203620223