/*--------------------------------*- C++ -*----------------------------------*\
| =========                 |                                                 |
| \\      /  F ield         | OpenFOAM: The Open Source CFD Toolbox           |
|  \\    /   O peration     | Version:  2.3.1                                 |
|   \\  /    A nd           | Web:      www.OpenFOAM.org                      |
|    \\/     M anipulation  |                                                 |
\*---------------------------------------------------------------------------*/
FoamFile
{
    version     2.0;
    format      ascii;
    class       dictionary;
    location    "constant";
    object      rO;
}
// * * * * * * * * * * * * * * * * * * * * * * * * * * * * * * * * * * * * * //

rO_table
101
(

101
(
-0.0003502944978
-0.1421150033
-0.9485216034
-2.71534015
-5.428407955
-8.932231548
-13.01748342
-17.43143578
-21.94196219
-26.32479325
-30.36109182
-33.86077446
-36.67806533
-38.64924683
-39.72440731
-39.89470784
-39.19433793
-37.72371774
-35.6959972
-33.22863531
-30.54433387
-27.77838826
-25.06282404
-22.48018458
-20.07953144
-17.8867379
-15.90785923
-14.13587888
-12.56410063
-11.170591
-9.938144113
-8.843086811
-7.853526194
-7.007931943
-6.248608544
-5.578201246
-5.080616784
-4.711427623
-4.203922528
-3.757045359
-3.360701105
-2.999636347
-2.678796471
-2.39087023
-2.129816457
-1.896932728
-1.686698394
-1.499230754
-1.330379485
-1.179565125
-1.04393156
-0.9224444856
-0.8136760068
-0.7164302298
-0.6293640286
-0.5513318104
-0.4826645218
-0.4208441285
-0.3663774718
-0.3178512619
-0.2750328797
-0.2371842384
-0.2037167924
-0.1744057718
-0.1487314717
-0.1262325705
-0.1066282756
-0.08961041874
-0.07492838117
-0.06225857376
-0.05142523362
-0.04217052972
-0.03436389222
-0.02783040562
-0.02348263446
-0.0194592886
-0.01532886018
-0.01196230354
-0.009217162263
-0.00699257911
-0.005219696836
-0.003847457287
-0.002795599253
-0.002196700829
-0.001600776637
-0.001083868457
-0.0007116917535
-0.0004496175249
-0.0002737490361
-0.0001933808254
-0.0001065030604
-5.251948063e-05
-2.606182269e-05
-1.165327673e-05
-4.926133024e-06
-8.897169726e-07
4.423059033e-16
-2.797501122e-34
-7.729875474e-26
3.095925899e-25
3.058851744e-52
)


101
(
-0.0003485974825
-0.1384521207
-0.9226372459
-2.640833257
-5.278113007
-8.68102989
-12.64513056
-16.92520869
-21.29800617
-25.54894411
-29.47169239
-32.88606116
-35.65508537
-37.62849193
-38.75314332
-39.01791601
-38.45145097
-37.14067706
-35.26951099
-32.9614164
-30.40944017
-27.75328497
-25.11860733
-22.59245953
-20.22843431
-18.05630713
-16.08665169
-14.31636103
-12.73918996
-11.33848091
-10.09725403
-8.994699349
-8.003200604
-7.136141203
-6.366373993
-5.683172257
-5.130293369
-4.70381018
-4.257856626
-3.820202495
-3.420620269
-3.057912761
-2.732492284
-2.441186793
-2.178836337
-1.943533674
-1.73189451
-1.54206492
-1.371514631
-1.218565533
-1.081253597
-0.9580224244
-0.8475070996
-0.748388234
-0.6595725727
-0.5800317792
-0.5093187936
-0.4461950919
-0.3900566259
-0.34013239
-0.2958241689
-0.2565687416
-0.2217927798
-0.1910860717
-0.164059067
-0.1403507197
-0.1195682957
-0.1014034964
-0.08558360996
-0.0718718942
-0.06003658973
-0.04984623558
-0.04110757213
-0.03363676834
-0.02769050969
-0.02289910764
-0.01868375097
-0.01499909709
-0.01186062854
-0.009242359632
-0.007104735692
-0.005385993873
-0.004018309163
-0.003011281604
-0.0022573944
-0.001647719892
-0.001158803911
-0.0007864601464
-0.000517000542
-0.000336214811
-0.000214100466
-0.0001294234995
-7.261154964e-05
-3.86517277e-05
-2.011470364e-05
-8.656623259e-06
-1.793178649e-06
-2.185502521e-06
-2.727077348e-06
-4.237349943e-06
-6.045935595e-06
)


101
(
-0.000346903668
-0.1348481308
-0.8972352946
-2.567815154
-5.131144753
-8.436118727
-12.28333796
-16.4351778
-20.67715832
-24.80413854
-28.62158443
-31.95871686
-34.6866149
-36.66688761
-37.84444034
-38.20530948
-37.77266502
-36.62132197
-34.90976564
-32.76131933
-30.34698426
-27.80484648
-25.25661648
-22.79151092
-20.46741812
-18.31826458
-16.35890811
-14.59018081
-13.00744406
-11.59776018
-10.34582176
-9.233079103
-8.235187361
-7.352449325
-6.567648385
-5.869472138
-5.28082835
-4.805359434
-4.368632456
-3.945625564
-3.547880877
-3.181800285
-2.850451843
-2.552666865
-2.284859297
-2.044417103
-1.828184209
-1.63367511
-1.458611231
-1.301130428
-1.159462635
-1.032038166
-0.9174958884
-0.8145208366
-0.7219327224
-0.6387319344
-0.564214664
-0.4975285405
-0.4379509868
-0.3847335796
-0.3372783663
-0.2949920306
-0.2573267853
-0.2238649057
-0.1942134828
-0.1679981227
-0.144825326
-0.1243895777
-0.106424685
-0.09066297842
-0.076905753
-0.06491024793
-0.05451162242
-0.04547045456
-0.03777709058
-0.03136834131
-0.02598204268
-0.02138793582
-0.01743208944
-0.01403279887
-0.01116668987
-0.008788060981
-0.006833706615
-0.005257054404
-0.004017987603
-0.003049150427
-0.002289116432
-0.001676951121
-0.001199464811
-0.0008444467817
-0.0005800810648
-0.0003910578226
-0.0002601333469
-0.0001655126135
-0.0001050051907
-5.935797662e-05
-2.123752115e-05
-3.150444609e-05
-4.439048874e-05
-7.028587192e-05
-0.0001012965972
)


101
(
-0.0003452130538
-0.1313025808
-0.872309556
-2.496259898
-4.987422374
-8.197295915
-11.93168314
-15.96056344
-20.0781216
-24.08838429
-27.80796158
-31.07500687
-33.76797046
-35.75898779
-36.99198895
-37.44996048
-37.15070544
-36.15805699
-34.60824898
-32.62035635
-30.34803849
-27.9244992
-25.46815973
-23.06906428
-20.7887393
-18.66537834
-16.71799189
-14.95128675
-13.36300361
-11.94320244
-10.67875725
-9.553420741
-8.545516523
-7.649137151
-6.848688014
-6.131417469
-5.516181303
-5.000364114
-4.548520418
-4.129111627
-3.733787815
-3.365117082
-3.027417858
-2.721337201
-2.445184798
-2.196948262
-1.973498427
-1.772175368
-1.590409091
-1.426349005
-1.278164866
-1.144419551
-1.023769044
-0.914908149
-0.8166478987
-0.7280097087
-0.648057924
-0.5760568198
-0.5113652376
-0.4532077746
-0.4010335526
-0.3542404166
-0.3122788096
-0.2747082631
-0.2411189964
-0.2111264822
-0.1843754388
-0.1605232838
-0.1393584191
-0.1205774291
-0.1039586228
-0.08927196591
-0.07636433752
-0.06499956144
-0.05504175045
-0.046425467
-0.03904005249
-0.03272536326
-0.02730243607
-0.02261094473
-0.01856198146
-0.01509619684
-0.01216761424
-0.009711736043
-0.007676922585
-0.006016925075
-0.004685589919
-0.003619423649
-0.002745397757
-0.002045245622
-0.001499064058
-0.001084860786
-0.0007861481758
-0.0005526878977
-0.0003861190409
-0.0002438655661
-0.0001037739307
-0.0001716781048
-0.0002563130749
-0.0004108391083
-0.0006011989242
)


101
(
-0.0003435256398
-0.1278150249
-0.8478539432
-2.426142226
-4.846867978
-7.96436823
-11.58976564
-15.50063357
-19.4996883
-23.39984111
-27.02825246
-30.2315315
-32.89493058
-34.89990376
-36.19018084
-36.74574099
-36.57912655
-35.74419409
-34.35765267
-32.53154236
-30.40507728
-28.10491304
-25.7460926
-23.41844851
-21.1864725
-19.09239874
-17.15932924
-15.39586406
-13.80256938
-12.37222203
-11.09389464
-9.953870046
-8.932774644
-8.022647226
-7.20719298
-6.475007576
-5.832093294
-5.281398865
-4.804913842
-4.376209185
-3.978491056
-3.606598241
-3.262598341
-2.947570248
-2.661265056
-2.402894498
-2.169803112
-1.959429395
-1.768941907
-1.596409494
-1.439848672
-1.297868177
-1.169197297
-1.052616801
-0.9468876103
-0.8509558383
-0.7640160668
-0.6851262788
-0.6137555548
-0.5490673186
-0.4906114622
-0.4378202286
-0.3901271588
-0.3471008719
-0.308292796
-0.2732492197
-0.2416696354
-0.213241435
-0.1877286491
-0.1648503073
-0.1443064914
-0.125917892
-0.1095194699
-0.094915235
-0.08190857701
-0.07037714193
-0.06021631923
-0.05136257679
-0.04366153374
-0.03695002337
-0.03109110992
-0.02596576068
-0.02152826222
-0.0177101515
-0.01444341587
-0.01167575371
-0.009363451157
-0.007467262984
-0.005914410829
-0.004613288178
-0.003544844326
-0.002686375101
-0.002022205832
-0.001517625275
-0.001126446382
-0.0007691648746
-0.0003944373346
-0.0006609718809
-0.0009897380519
-0.001530338442
-0.002181173314
)


101
(
-0.0003418414253
-0.1243850187
-0.8238624692
-2.35743752
-4.709406415
-7.737150851
-11.25720551
-15.05470217
-18.94073804
-22.73682071
-26.28012192
-29.42525289
-32.06375566
-34.08537631
-35.43421441
-36.08744241
-36.0525371
-35.37421468
-34.1519777
-32.48911182
-30.51208996
-28.34019786
-26.08474184
-23.83447451
-21.65610404
-19.59559408
-17.67998534
-15.92175705
-14.32461537
-12.88401684
-11.59142176
-10.43496621
-9.398006705
-8.472728749
-7.641541541
-6.893438801
-6.227244793
-5.645427856
-5.140334734
-4.693507757
-4.286533917
-3.908531922
-3.557557719
-3.233310793
-2.935878158
-2.665601251
-2.420740726
-2.199292022
-1.998311322
-1.815615094
-1.649010418
-1.497062207
-1.358581552
-1.232500697
-1.11762848
-1.012778024
-0.9171697872
-0.8298090042
-0.7502551012
-0.6775448806
-0.6112344974
-0.5509352118
-0.4959954372
-0.446054852
-0.4006696668
-0.3593014986
-0.3216077409
-0.2872974555
-0.2561325166
-0.2279664689
-0.2023666866
-0.1791446528
-0.1581236218
-0.1391632604
-0.1220644732
-0.1066725686
-0.092861954
-0.08054887098
-0.06960593841
-0.05994685655
-0.05142328622
-0.04389831218
-0.03722924627
-0.03137818338
-0.02625165632
-0.02180148857
-0.01794883911
-0.01467921108
-0.01194770231
-0.009651755677
-0.007685648643
-0.00606080073
-0.004736669227
-0.003678625277
-0.002856800177
-0.002069617777
-0.001202823276
-0.001909585321
-0.002833196715
-0.004690879192
-0.006987602134
)


101
(
-0.0003401604109
-0.1210121259
-0.8003292671
-2.290121838
-4.574965266
-7.51546711
-10.93364221
-14.62212316
-18.40022364
-22.09775452
-25.56141092
-28.65337965
-31.27102522
-33.31152073
-34.71974175
-35.47034879
-35.56604755
-35.04312258
-33.98584568
-32.48780213
-30.66370529
-28.62506122
-26.47906638
-24.31260181
-22.19377422
-20.17191226
-18.27779809
-16.52766659
-14.92856583
-13.47871293
-12.17199772
-10.99846998
-9.943765909
-9.001641844
-8.153776161
-7.389022438
-6.701884273
-6.092408493
-5.558061807
-5.08763179
-4.66496096
-4.276462785
-3.916621522
-3.582587389
-3.273522846
-2.99025155
-2.731939507
-2.497546292
-2.284335416
-2.089907022
-1.911856532
-1.748489261
-1.59864495
-1.461410877
-1.33580491
-1.220500319
-1.114669817
-1.017292776
-0.9279454532
-0.845689723
-0.7700931351
-0.7007688026
-0.6370923094
-0.5786725301
-0.5251808596
-0.4760671842
-0.4308744402
-0.3892963583
-0.351085874
-0.3161403449
-0.284149398
-0.2548320549
-0.2279535263
-0.2033649646
-0.1809056424
-0.1604345201
-0.1418379748
-0.1249523223
-0.1096548417
-0.09590730313
-0.08360417021
-0.07264428869
-0.06278830527
-0.05398165794
-0.04614116294
-0.03918239951
-0.03301656752
-0.02762152861
-0.02299668866
-0.01907015578
-0.01563034062
-0.01268470972
-0.01024124704
-0.00820830262
-0.00659740296
-0.004941041321
-0.003117036118
-0.005145612978
-0.007782214535
-0.01276720242
-0.01879630041
)


101
(
-0.0003384825951
-0.1176959127
-0.7772485391
-2.224171768
-4.443474829
-7.299149696
-10.61873924
-14.20229955
-17.87717352
-21.48119262
-24.87013911
-27.91336259
-30.51364387
-32.57482531
-34.04287608
-34.89025613
-35.11525568
-34.74640423
-33.85442849
-32.52280562
-30.8550663
-28.95469539
-26.92440191
-24.84856793
-22.79582208
-20.8184312
-18.95073129
-17.21252926
-15.6142596
-14.15699845
-12.83714851
-11.64674783
-10.57338705
-9.613033764
-8.747456728
-7.965492547
-7.258797065
-6.624564355
-6.062127475
-5.56541469
-5.122044959
-4.718330863
-4.346768882
-4.001774951
-3.680692782
-3.383976738
-3.11118431
-2.862271581
-2.635157578
-2.427508079
-2.236695568
-2.060658888
-1.898208062
-1.748467233
-1.610601061
-1.483389883
-1.366002866
-1.257199464
-1.156616339
-1.063271087
-0.9767895513
-0.8968467146
-0.8228483158
-0.7544202228
-0.6912279064
-0.6328052594
-0.5785926
-0.5282879153
-0.4815472456
-0.4382905616
-0.3983444026
-0.3613789089
-0.3271542944
-0.2954555087
-0.2661527874
-0.2391020722
-0.2142628477
-0.1914331536
-0.1704493963
-0.1512381753
-0.1337372494
-0.1179345425
-0.1036223987
-0.09060490216
-0.07886269807
-0.0682714166
-0.05870757723
-0.05013094889
-0.04260039285
-0.03607053836
-0.03033480128
-0.02522677725
-0.020877891
-0.01720504219
-0.01415661084
-0.01103732762
-0.007494876648
-0.01255583009
-0.01917290816
-0.03168647088
-0.04654231854
)


101
(
-0.0003368079788
-0.114435952
-0.7546146195
-2.159564583
-4.314868084
-7.088039765
-10.31218236
-13.79468184
-17.37068859
-20.88579902
-24.20449013
-27.20289066
-29.78882303
-31.87214808
-33.40015449
-34.34343286
-34.69623994
-34.48000431
-33.75337713
-32.58970857
-31.08172974
-29.32470644
-27.41644777
-25.43845161
-23.45895529
-21.53260979
-19.69712805
-17.97570189
-16.3820644
-14.92018952
-13.58909834
-12.38294246
-11.29107364
-10.31182916
-9.427707744
-8.627970385
-7.902489124
-7.245842448
-6.657373614
-6.133885227
-5.666768313
-5.243989924
-4.857494374
-4.499717484
-4.165977279
-3.855666996
-3.568058476
-3.303778958
-3.06159131
-2.839475012
-2.63464839
-2.444946092
-2.268935595
-2.10549419
-1.954131726
-1.813788881
-1.683518543
-1.561999788
-1.448926791
-1.343196399
-1.244438466
-1.152372086
-1.066376637
-0.9862732872
-0.9117268718
-0.8423840298
-0.7776336233
-0.7170075229
-0.6601166224
-0.6067552795
-0.5570195745
-0.5105774479
-0.4673346365
-0.4268855724
-0.3889955052
-0.3535946433
-0.3207022745
-0.2901586404
-0.2617611619
-0.2353498509
-0.2109337644
-0.1885104938
-0.1680539453
-0.149176268
-0.1319261887
-0.1160869932
-0.1016784305
-0.08842409614
-0.07656180628
-0.06604083302
-0.05666878408
-0.04815351499
-0.04078911388
-0.0344364446
-0.02897625823
-0.02341700755
-0.01672729613
-0.02832825705
-0.04348305745
-0.07218756122
-0.1057205494
)


101
(
-0.00033513656
-0.1112318161
-0.7324218991
-2.096278113
-4.189080232
-6.881984576
-10.0136714
-13.3987514
-16.87992784
-20.31032863
-23.5627766
-26.51982709
-29.09399667
-31.20060546
-32.78841852
-33.82648837
-34.30543465
-34.24022376
-33.67872591
-32.68442338
-31.33956922
-29.73103869
-27.95122153
-26.07862951
-24.18023979
-22.31238648
-20.51582962
-18.81696368
-17.2327113
-15.76992933
-14.43032764
-13.2103475
-12.10110524
-11.1032465
-10.20019244
-9.382346692
-8.63880133
-7.961947165
-7.350125849
-6.801118436
-6.309100599
-5.864439646
-5.460148787
-5.087635922
-4.740481931
-4.41665545
-4.114481199
-3.834809873
-3.57693427
-3.339473333
-3.119858464
-2.915916657
-2.725792086
-2.548105613
-2.382398316
-2.227752862
-2.08358338
-1.948140466
-1.821473987
-1.702288422
-1.59002307
-1.484549842
-1.385153147
-1.291786557
-1.204180845
-1.122085639
-1.045039489
-0.9723668487
-0.9036296262
-0.8385132529
-0.7771413122
-0.7192923404
-0.6648714326
-0.6136160723
-0.5651888639
-0.5194401602
-0.4763348176
-0.4359063679
-0.3980210984
-0.362290917
-0.3287087531
-0.2975017011
-0.2686547722
-0.2418649965
-0.216907818
-0.193674706
-0.1724046945
-0.1524728762
-0.1342639576
-0.1178162649
-0.1028909773
-0.08922510221
-0.07710707601
-0.06645671104
-0.05704935613
-0.04741671019
-0.03581441096
-0.06054786683
-0.09231987663
-0.1510113246
-0.2185956367
)


101
(
-0.0003334683407
-0.1080830919
-0.7106649297
-2.03429105
-4.066049708
-6.680839384
-9.722921056
-13.01401556
-16.40411483
-19.75364873
-22.94345542
-25.8622051
-28.42679615
-30.55752931
-32.2047497
-33.3362915
-33.93952684
-34.02359729
-33.62673959
-32.80301403
-31.62455582
-30.16977262
-28.52510574
-26.76578734
-24.95703064
-23.15601253
-21.40602301
-19.73644375
-18.16728978
-16.70830034
-15.36386406
-14.13278669
-13.00811004
-11.9929571
-11.07151736
-10.2358045
-9.475103973
-8.780249614
-8.148013971
-7.575964604
-7.059856486
-6.592250964
-6.168333418
-5.779511727
-5.418301061
-5.081308695
-4.765329411
-4.470833654
-4.197341645
-3.944326302
-3.709619864
-3.491221272
-3.286931913
-3.094984687
-2.914457463
-2.745017076
-2.586333723
-2.436339182
-2.295302106
-2.161887824
-2.035263236
-1.915277844
-1.801400305
-1.693433685
-1.591168527
-1.49447633
-1.40339601
-1.317000723
-1.234846731
-1.156262988
-1.081355628
-1.009983415
-0.9422760798
-0.8780040978
-0.8168156967
-0.7583543866
-0.7026244938
-0.6498216923
-0.5998176183
-0.5522170196
-0.5068404617
-0.4641131932
-0.4240677593
-0.386641804
-0.3512585628
-0.3176962178
-0.2867106037
-0.2574662387
-0.23017184
-0.2052271767
-0.1820248762
-0.160656493
-0.1413578308
-0.1240904897
-0.108583028
-0.09236340819
-0.07268901797
-0.1225291781
-0.1840584577
-0.2910788409
-0.4020614138
)


101
(
-0.0003318033221
-0.1049893614
-0.689338302
-1.973582456
-3.945716701
-6.484464877
-9.43965877
-12.64000734
-15.94252153
-19.21471138
-22.3450985
-25.22820982
-27.78503614
-29.94045771
-31.64646705
-32.86997658
-33.59547102
-33.82690796
-33.59394992
-32.94179783
-31.93285213
-30.63709993
-29.13459213
-27.49668751
-25.78670416
-24.06171985
-22.36683123
-20.73420677
-19.18690023
-17.73749775
-16.39303419
-15.15468204
-14.01751878
-12.98751185
-12.04940492
-11.19696987
-10.42040644
-9.709798271
-9.060403849
-8.468828177
-7.931261329
-7.44169181
-6.997777186
-6.591971405
-6.216488692
-5.866946492
-5.53837832
-5.230360816
-4.94228495
-4.67435623
-4.424884726
-4.192257739
-3.974217626
-3.768486917
-3.573640173
-3.389919992
-3.216592548
-3.051914281
-2.896083189
-2.748186696
-2.606978408
-2.472055514
-2.342987614
-2.21951359
-2.101625192
-1.989081047
-1.882142391
-1.78043028
-1.683268447
-1.589700143
-1.499655296
-1.412871889
-1.329657025
-1.249947719
-1.173500406
-1.099827795
-1.028913715
-0.961023536
-0.8957990957
-0.8332294479
-0.7729889375
-0.7153814671
-0.6607311969
-0.6092138649
-0.5599340423
-0.5123314613
-0.4677701942
-0.4257399716
-0.3859030758
-0.3486319756
-0.3135201718
-0.2810282258
-0.2510650424
-0.223858582
-0.1992391044
-0.1731816135
-0.141591067
-0.2329663822
-0.3410416263
-0.5221672956
-0.7011004778
)


101
(
-0.0003301415075
-0.1019502141
-0.6684367254
-1.914131979
-3.828023474
-6.292727251
-9.163623539
-12.27628348
-15.49446994
-18.69254418
-21.7663792
-24.61616491
-27.16670477
-29.3471229
-31.11110626
-32.42491449
-33.27049445
-33.64721085
-33.57717271
-33.09735057
-32.26074493
-31.12913712
-29.77582542
-28.26759909
-26.66571093
-25.0265329
-23.39631464
-21.80955697
-20.2921806
-18.85951033
-17.52120597
-16.28085464
-15.13562033
-14.09449025
-13.1427448
-12.27590751
-11.48550473
-10.76164091
-10.09860149
-9.491962465
-8.937152516
-8.428601258
-7.966099029
-7.543793128
-7.154403222
-6.793273326
-6.453954917
-6.134734331
-5.834240808
-5.553173467
-5.290247995
-5.044483498
-4.813836084
-4.595662076
-4.388088015
-4.191127723
-4.004227446
-3.825439697
-3.655386666
-3.493330763
-3.338019479
-3.188569783
-3.044563588
-2.90555175
-2.771554365
-2.642759801
-2.519063103
-2.40065733
-2.287196597
-2.177275024
-2.070800369
-1.967169465
-1.86643331
-1.768886664
-1.674528508
-1.583061127
-1.494204488
-1.408130256
-1.324603127
-1.243431523
-1.164402539
-1.087933368
-1.01443108
-0.944263818
-0.8768775866
-0.8108217873
-0.7474856904
-0.687678201
-0.6306217554
-0.5761786175
-0.5241055909
-0.4759000526
-0.430684507
-0.3888966469
-0.3508751358
-0.3104531929
-0.2619028666
-0.4187347345
-0.5940789908
-0.8771683256
-1.133308865
)


101
(
-0.0003284828904
-0.0989652449
-0.6479549998
-1.855919751
-3.71291421
-6.105497986
-8.894564015
-11.9224193
-15.05933476
-18.18626197
-21.20606028
-24.02451489
-26.56993732
-28.7753973
-30.59634518
-31.99863786
-32.96206098
-33.48190022
-33.57359148
-33.26656844
-32.60467172
-31.6418784
-30.44456876
-29.07445664
-27.59035008
-26.04733924
-24.49228237
-22.96151049
-21.48354261
-20.07621232
-18.75174052
-17.51622246
-16.36898536
-15.32205502
-14.36117791
-13.48361116
-12.68244042
-11.9484859
-11.27582434
-10.65927948
-10.09279819
-9.570177303
-9.092591298
-8.655919597
-8.254047444
-7.88292431
-7.535258724
-7.208040309
-6.898626259
-6.607741683
-6.333967523
-6.077247916
-5.836320575
-5.608128803
-5.390335776
-5.182406648
-4.984479427
-4.793642355
-4.611265776
-4.436516322
-4.268722765
-4.10617459
-3.948448999
-3.795061753
-3.64605134
-3.501336815
-3.360870201
-3.225372694
-3.094529736
-2.967542607
-2.843762335
-2.722431521
-2.602845135
-2.485446295
-2.370449924
-2.25797547
-2.148114448
-2.040904941
-1.935329289
-1.831556653
-1.729094395
-1.628910149
-1.531165939
-1.436538933
-1.34529232
-1.25521003
-1.166589893
-1.082152453
-1.001305822
-0.9235810325
-0.8476954686
-0.7773631153
-0.710205022
-0.6479884956
-0.5905298779
-0.5297053155
-0.4577495338
-0.7083426012
-0.9733108876
-1.392746815
-1.758249406
)


101
(
-0.0003268274692
-0.09603405001
-0.6278879924
-1.798926337
-3.600334743
-5.922653644
-8.632240638
-11.57801103
-14.63652541
-17.69504444
-20.66299715
-23.45182231
-25.99302001
-28.22332603
-30.10004885
-31.58886946
-32.66781647
-33.32856636
-33.58059904
-33.44662732
-32.96137472
-32.17157597
-31.13671283
-29.91315854
-28.55685585
-27.12099099
-25.65243613
-24.18879099
-22.76088594
-21.38892738
-20.08760538
-18.86542458
-17.72385396
-16.67809547
-15.71429989
-14.83138504
-14.02405367
-13.28432773
-12.60687536
-11.98621652
-11.41474417
-10.88481399
-10.39799805
-9.951265921
-9.539993112
-9.161636311
-8.808830592
-8.477643619
-8.16404593
-7.86805898
-7.587804455
-7.324098268
-7.076722954
-6.842359078
-6.61849704
-6.403980615
-6.19905725
-6.000254127
-5.808766594
-5.624393114
-5.447120543
-5.274571734
-5.105728608
-4.940618017
-4.77910865
-4.620252019
-4.464667821
-4.312504142
-4.164829245
-4.020566057
-3.87901835
-3.739506687
-3.600540878
-3.462176177
-3.324317787
-3.187372428
-3.052849931
-2.920465719
-2.788988032
-2.658126784
-2.526511488
-2.396134396
-2.26759459
-2.141274398
-2.017815207
-1.895989665
-1.774397002
-1.655890187
-1.542206035
-1.4329984
-1.323955383
-1.223208815
-1.124272106
-1.033261058
-0.9483887316
-0.8590312731
-0.753389162
-1.129523203
-1.50943748
-2.114581578
-2.671904288
)


101
(
-0.0003251752449
-0.09315623459
-0.6082306825
-1.743132849
-3.490232705
-5.744075426
-8.376425492
-11.24267517
-14.2254851
-17.21813041
-20.1361608
-22.89674503
-25.43437068
-27.68913285
-29.62029753
-31.19356674
-32.38556346
-33.18484861
-33.59554365
-33.63430798
-33.32726439
-32.71433013
-31.84826784
-30.77968566
-29.56140892
-28.24424077
-26.87432694
-25.48991519
-24.12384934
-22.79864623
-21.53147261
-20.33299281
-19.20647883
-18.17062591
-17.21191631
-16.33090939
-15.52382783
-14.7841452
-14.10782407
-13.48966095
-12.92096281
-12.3920131
-11.90398514
-11.45414588
-11.03907424
-10.65810491
-10.30462923
-9.9747624
-9.662960848
-9.36821318
-9.088096896
-8.82357495
-8.575309744
-8.340536204
-8.116625479
-7.901782352
-7.696119375
-7.495603472
-7.300783886
-7.111892444
-6.929470688
-6.751811023
-6.57671624
-6.404699631
-6.23492858
-6.065749501
-5.897963372
-5.731830407
-5.569109396
-5.40839499
-5.249439502
-5.091831396
-4.933250774
-4.773725724
-4.611853627
-4.447151092
-4.282977605
-4.120047239
-3.958061953
-3.794502344
-3.627423385
-3.459098011
-3.290503715
-3.123481315
-2.958013127
-2.793312229
-2.628022489
-2.463841956
-2.304292085
-2.152115861
-1.997628181
-1.854524391
-1.712136929
-1.580115979
-1.45728046
-1.327653941
-1.174581422
-1.718956602
-2.254777935
-3.124459771
-3.850198537
)


101
(
-0.0003235262196
-0.09033141057
-0.5889781443
-1.688520858
-3.382557548
-5.569649648
-8.126901812
-10.91604718
-13.82568691
-16.75481131
-19.62461691
-22.35803776
-24.8925221
-27.17119933
-29.15535312
-30.81089299
-32.11328409
-33.04846465
-33.61580175
-33.82632767
-33.69871862
-33.26621184
-32.57522063
-31.66995633
-30.60001128
-29.41354645
-28.15511957
-26.8630086
-25.57178712
-24.30612555
-23.08553776
-21.92274317
-20.82255692
-19.80719443
-18.8635489
-17.99384326
-17.19560453
-16.46367378
-15.79583581
-15.1879513
-14.63059825
-14.11227995
-13.63333827
-13.19008543
-12.77955076
-12.40311771
-12.05568119
-11.73425774
-11.43181283
-11.14664931
-10.87558643
-10.61904638
-10.3779006
-10.15083616
-9.934923472
-9.727788521
-9.530225252
-9.336994614
-9.147432362
-8.961690575
-8.781456354
-8.605607424
-8.431706189
-8.259945375
-8.087843627
-7.915254082
-7.740752272
-7.564836655
-7.390088394
-7.215107442
-7.04059633
-6.865419694
-6.687673045
-6.506973399
-6.320689219
-6.126435831
-5.926889814
-5.727415716
-5.527320046
-5.324406138
-5.115296062
-4.899802367
-4.679339918
-4.459901597
-4.239616779
-4.018647893
-3.795250247
-3.571258697
-3.348780528
-3.137914052
-2.923567538
-2.720990627
-2.520999008
-2.33194681
-2.156697052
-1.973052364
-1.757863668
-2.530970802
-3.293608565
-4.565663201
-5.719546144
)


101
(
-0.0003218803881
-0.08755917923
-0.570125862
-1.635072103
-3.277259817
-5.399266669
-7.883462351
-10.59777927
-13.43661736
-16.30440845
-19.12751071
-21.83456051
-24.36611683
-26.66802452
-28.70359599
-30.43914017
-31.84912379
-32.9173509
-33.63905652
-34.01973621
-34.07240505
-33.82351928
-33.3135399
-32.5797616
-31.6682873
-30.62466305
-29.49121483
-28.30553526
-27.10352941
-25.91171966
-24.75159659
-23.63792516
-22.5771455
-21.5947785
-20.67820082
-19.83144084
-19.0530722
-18.3389355
-17.68871018
-17.10007544
-16.56384957
-16.06725629
-15.60946673
-15.18518181
-14.79085269
-14.42937863
-14.09739918
-13.79364694
-13.51056026
-13.2458061
-12.99511893
-12.75816042
-12.53539492
-12.32680818
-12.12989799
-11.94148204
-11.76334351
-11.58886141
-11.41670805
-11.24551318
-11.07776253
-10.91321504
-10.75052928
-10.58859576
-10.42370005
-10.25654961
-10.0829448
-9.904222194
-9.722770976
-9.538679096
-9.351631913
-9.160241449
-8.964010835
-8.762013608
-8.550634111
-8.3261362
-8.089248021
-7.845013434
-7.597638622
-7.346742428
-7.087735604
-6.814471319
-6.530346544
-6.243745221
-5.953769259
-5.660284491
-5.360354565
-5.059752801
-4.754475076
-4.465135026
-4.174878542
-3.891534991
-3.615570699
-3.351748728
-3.10516264
-2.851483608
-2.556560393
-3.658490368
-4.771733541
-6.657218692
-8.485475439
)


101
(
-0.0003202377526
-0.08483915861
-0.5516686391
-1.582768995
-3.174292183
-5.232822214
-7.64591118
-10.28754383
-13.05777192
-15.86623972
-18.64406078
-21.32529572
-23.85393481
-26.178212
-28.26342876
-30.07650846
-31.59110292
-32.78933524
-33.66299176
-34.21231609
-34.44569329
-34.38313701
-34.05929888
-33.5048599
-32.76176937
-31.87309801
-30.87856111
-29.81430624
-28.71708123
-27.61481855
-26.53051517
-25.48092038
-24.47436517
-23.53940304
-22.66389536
-21.85385727
-21.10881118
-20.42512089
-19.80415366
-19.24589637
-18.74211857
-18.27953835
-17.85673471
-17.46641871
-17.10340046
-16.77106889
-16.46728701
-16.19327142
-15.94255008
-15.71193448
-15.4959425
-15.29325716
-15.10344506
-14.92733075
-14.76343491
-14.60871866
-14.46482434
-14.32386877
-14.18495546
-14.04437833
-13.90253917
-13.76285614
-13.62384131
-13.483875
-13.33868454
-13.18821272
-13.0269185
-12.85526185
-12.67561285
-12.48912863
-12.29347108
-12.08983369
-11.87732714
-11.65446702
-11.41829921
-11.16403617
-10.88705265
-10.59244659
-10.28927541
-9.980010793
-9.660393517
-9.319913791
-8.959901127
-8.59119069
-8.212953838
-7.832145312
-7.43641695
-7.03946206
-6.630347259
-6.240056228
-5.854417485
-5.468978515
-5.094618902
-4.735302906
-4.398294535
-4.058786564
-3.668941026
-5.257001199
-6.912708358
-9.70644182
-12.40528801
)


101
(
-0.0003185983151
-0.08217097145
-0.5336017834
-1.531594332
-3.073608892
-5.070216381
-7.414062064
-9.98503162
-12.68867585
-15.43965727
-18.17354214
-20.82930854
-23.35485833
-25.70049436
-27.83341035
-29.72137315
-31.33741983
-32.66239834
-33.68534413
-34.40187149
-34.81609046
-34.94224022
-34.80878151
-34.44106286
-33.87591644
-33.15400714
-32.31245917
-31.38529449
-30.40935199
-29.41352964
-28.42193785
-27.45298933
-26.51698807
-25.64574926
-24.82752171
-24.07026279
-23.37447882
-22.73672824
-22.15955845
-21.64524492
-21.18727019
-20.7727603
-20.40057419
-20.0616888
-19.74849572
-19.46354529
-19.20504458
-18.97677432
-18.77438654
-18.5946797
-18.43097671
-18.28110048
-18.14299649
-18.01696177
-17.90313736
-17.80006821
-17.70896366
-17.62086467
-17.53465753
-17.44440138
-17.34788735
-17.25068676
-17.15119151
-17.04840833
-16.93920828
-16.82003932
-16.68590917
-16.534996
-16.36847616
-16.1881448
-15.99221208
-15.78233109
-15.55605835
-15.31339068
-15.05394086
-14.77137162
-14.4562781
-14.11033515
-13.74369696
-13.36545679
-12.97563757
-12.56064299
-12.11456469
-11.64756888
-11.16695429
-10.68124633
-10.17349302
-9.660865385
-9.127935846
-8.614205418
-8.112481046
-7.60127158
-7.110496395
-6.6335506
-6.188990115
-5.746438974
-5.250208232
-7.559369682
-10.0325168
-14.11349695
-18.18440207
)


101
(
-0.0003169620707
-0.07955423217
-0.5159206067
-1.481531089
-2.975165266
-4.91135273
-7.187737171
-9.689944476
-12.32887134
-15.02403843
-17.71519241
-20.34577537
-22.86781189
-25.23363323
-27.41214688
-29.37219016
-31.08639329
-32.53462692
-33.70387184
-34.58588634
-35.18075046
-35.49750795
-35.55838237
-35.38415506
-35.00613019
-34.46234329
-33.78771365
-33.013821
-32.17649797
-31.30502204
-30.42445173
-29.55443543
-28.7068607
-27.91732721
-27.1746246
-26.4883145
-25.86011847
-25.28661631
-24.77089464
-24.31730919
-23.92134924
-23.57131846
-23.26741571
-22.99968247
-22.75791346
-22.54290233
-22.35176698
-22.18997251
-22.05521096
-21.94626218
-21.85619198
-21.78162685
-21.71928882
-21.66602072
-21.62350512
-21.5925675
-21.57573971
-21.56273434
-21.5525346
-21.53667396
-21.51101074
-21.47851461
-21.43913579
-21.39220931
-21.33932668
-21.27020032
-21.18158783
-21.06871411
-20.93078149
-20.77177722
-20.58916398
-20.38158666
-20.14749794
-19.8894486
-19.60926235
-19.3015891
-18.95353263
-18.55977387
-18.12761778
-17.67399809
-17.21009435
-16.71446412
-16.17652051
-15.60138845
-15.0038064
-14.40115337
-13.77005199
-13.12578504
-12.45195811
-11.79321274
-11.15632405
-10.50263374
-9.876644186
-9.262536025
-8.693383784
-8.134829556
-7.525660857
-10.8789081
-14.53440198
-20.37612139
-26.32933
)


101
(
-0.0003153290238
-0.07698857421
-0.4986214593
-1.432562976
-2.878918704
-4.756139802
-6.966769192
-9.402004095
-11.97793085
-14.61879969
-17.26828126
-19.87394937
-22.39180959
-24.7764405
-26.99831966
-29.02752522
-30.83647826
-32.40425117
-33.71644934
-34.76180098
-35.53678063
-36.04556547
-36.30449872
-36.33000227
-36.14786938
-35.7931451
-35.29895161
-34.69443952
-34.01342208
-33.28508465
-32.53532249
-31.78460767
-31.04551366
-30.35717264
-29.70963005
-29.11414714
-28.57408484
-28.0859576
-27.65262428
-27.28022887
-26.96602306
-26.69982673
-26.48427914
-26.3095013