/*--------------------------------*- C++ -*----------------------------------*\
| =========                 |                                                 |
| \\      /  F ield         | OpenFOAM: The Open Source CFD Toolbox           |
|  \\    /   O peration     | Version:  2.3.1                                 |
|   \\  /    A nd           | Web:      www.OpenFOAM.org                      |
|    \\/     M anipulation  |                                                 |
\*---------------------------------------------------------------------------*/
FoamFile
{
    version     2.0;
    format      ascii;
    class       dictionary;
    location    "constant";
    object      T;
}
// * * * * * * * * * * * * * * * * * * * * * * * * * * * * * * * * * * * * * //

T_table
101
(

101
(
300
300
300
300
300
300
300
300
300
300
300
300
300
300
300
300
300
300
300
300
300
300
300
300
300
300
300
300
300
300
300
300
300
300
300
300
300
300
300
300
300
300
300
300
300
300
300
300
300
300
300
300
300
300
300
300
300
300
300
300
300
300
300
300
300
300
300
300
300
300
300
300
300
300
300
300
300
300
300
300
300
300
300
300
300
300
300
300
300
300
300
300
300
300
300
300
300
326.4939483
352.8264319
378.9957846
404.9857059
)


101
(
300
300.249856
300.489343
300.7410012
301.0098883
301.2966639
301.5987196
301.9202105
302.2552194
302.604439
302.9660521
303.340154
303.7228882
304.1217271
304.5271121
304.9408916
305.3659524
305.8042405
306.2348021
306.6973991
307.1464906
307.5988739
308.0755108
308.5484198
309.0202596
309.4955939
309.9735472
310.4519632
310.93597
311.4186529
311.9024533
312.3825866
312.8459694
313.3614722
313.8433243
314.3252009
314.8036966
315.271922
315.7476189
316.2384136
316.725493
317.1853633
317.6607596
318.1321007
318.5884747
319.0543921
319.5097985
319.9718767
320.4254526
320.8826119
321.3304762
321.7772801
322.2210565
322.6602774
323.093835
323.5229834
323.9614893
324.3791413
324.8048122
325.2198536
325.6354065
326.0441711
326.4475458
326.8480325
327.2433137
327.6346268
328.0195294
328.3987644
328.7753588
329.1435381
329.5070643
329.8649074
330.2198962
330.5652538
330.9022352
331.2288986
331.5522878
331.8676137
332.1723624
332.4676466
332.753029
333.0319538
333.2984975
333.555393
333.7987581
334.0302429
334.24854
334.4548835
334.6474312
334.8296921
334.9930711
335.1462721
335.2867163
335.4138123
335.5301929
335.6718248
335.8703688
362.3613778
388.6792145
414.8002484
440.7226362
)


101
(
300
300.5040896
300.9829553
301.4857286
302.0225031
302.5946332
303.1969637
303.8375109
304.5049609
305.2003405
305.9202058
306.6645928
307.4262774
308.2187243
309.0251447
309.8477946
310.6920721
311.561887
312.4202387
313.334036
314.2299043
315.1293928
316.0710631
317.011519
317.9500415
318.8941172
319.8432923
320.7939651
321.7540755
322.7134466
323.6744162
324.6294914
325.556498
326.5614173
327.5269523
328.4861106
329.4383942
330.3731424
331.3156562
332.2823083
333.2480281
334.1727466
335.1123484
336.0482579
336.9612641
337.883291
338.7911148
339.7055909
340.6085956
341.5141713
342.4064613
343.2941862
344.1761029
345.0499126
345.9134695
346.7679533
347.6329117
348.4704805
349.3129391
350.1405994
350.9652943
351.7791216
352.5825406
353.3787897
354.1656292
354.9440066
355.7109074
356.4665759
357.2150642
357.9494108
358.6733942
359.3857287
360.0901108
360.7788253
361.4520472
362.106745
362.750429
363.3791618
363.9880828
364.5783675
365.1490582
365.7041492
366.2371617
366.750086
367.2379277
367.7023748
368.1396062
368.552379
368.9374885
369.3017616
369.6305878
369.9387399
370.2198619
370.4754777
370.709721
370.9948835
371.3819822
397.8520234
424.1256414
450.1749056
476.0118814
)


101
(
300
300.7584
301.4767176
302.2302526
303.0341077
303.8903531
304.791367
305.7487336
306.7462319
307.7848974
308.8598335
309.9708812
311.1078698
312.2890072
313.4921237
314.7189398
315.9768598
317.2717218
318.5544169
319.9098381
321.2484285
322.5903202
323.9871523
325.3884401
326.7882547
328.1948967
329.6087015
331.0253222
332.4541724
333.8837193
335.3154116
336.7398511
338.1286438
339.6064539
341.0487124
342.4807598
343.902184
345.3005381
346.7038235
348.1349316
349.5689203
350.9565534
352.3544158
353.747489
355.1136092
356.4855037
357.8404229
359.2000965
360.5463056
361.8931008
363.223975
364.5469058
365.860961
367.1637628
368.4525396
369.727967
371.0115357
372.2646486
373.5184668
374.753786
375.9822278
377.1959692
378.3949288
379.5821978
380.755943
381.9167501
383.0614473
384.1897597
385.3058038
386.4024819
387.483427
388.5467345
389.5961455
390.6242207
391.6305679
392.6114873
393.5733573
394.513218
395.4246664
396.3085612
397.1633223
397.9927526
398.7906441
399.5581602
400.2895986
400.9870921
401.6441151
402.2636217
402.8411302
403.3872231
403.8817412
404.3460285
404.7693818
405.154398
405.5085919
405.9394049
406.5181159
432.9405836
459.1492022
485.1115047
510.8525736
)


101
(
300
301.012789
301.9706352
302.9745857
304.0447223
305.1838529
306.3819682
307.6539429
308.9790975
310.358202
311.7850461
313.2591664
314.7678074
316.3328687
317.9282536
319.5545685
321.2206904
322.9342695
324.6372505
326.4259225
328.2020533
329.9816538
331.8250648
333.6797811
335.5349732
337.398111
339.2700539
341.1461802
343.0366508
344.9295497
346.825403
348.7133165
350.560617
352.5000535
354.4094505
356.308163
358.1934352
360.05147
361.9105292
363.7974194
365.6896442
367.534353
369.3850181
371.2284988
373.0423405
374.8584133
376.6546802
378.4530097
380.2357949
382.0168738
383.7797685
385.5317095
387.2716582
388.997283
390.7055707
392.3967306
394.0924664
395.755168
397.4146989
399.052182
400.6788383
402.286969
403.8762165
405.4493205
407.0048035
408.5429328
410.060549
411.5569509
413.0359742
414.4904873
415.9241648
417.3344316
418.7247219
420.087984
421.4235453
422.7273176
424.0043584
425.2525718
426.4642199
427.63988
428.7769881
429.8788659
430.9397548
431.9600947
432.9336488
433.8631534
434.73974
435.5666466
436.336739
437.0644023
437.7247453
438.3457459
438.9130235
439.428722
439.9045828
440.4835932
441.2560848
467.612545
493.7427292
519.6093359
545.2496812
)


101
(
300
301.2672583
302.4647136
303.718741
305.0543679
306.4751623
307.9688066
309.5532034
311.2036245
312.9203463
314.6959537
316.5295923
318.4062338
320.3505842
322.333753
324.3549185
326.4239182
328.5500333
330.6687751
332.883168
335.0910048
337.3034076
339.5857676
341.8863029
344.1904655
346.5039531
348.8276214
351.1567575
353.5018722
355.851147
358.204423
360.5496447
362.8511646
365.2438335
367.6107274
369.9682709
372.3111591
374.6239826
376.9339767
379.2696483
381.611239
383.9055735
386.2027841
388.4901214
390.7455337
392.9998422
395.2315153
397.4621714
399.6749037
401.8833884
404.0714977
406.2459105
408.4053191
410.5473429
412.6689064
414.7699047
416.8716117
418.937623
420.9967825
423.0305569
425.0496746
427.0464936
429.0204628
430.9739353
432.905692
434.8157132
436.7009715
438.5604679
440.3976474
442.2052396
443.987029
445.7398503
447.4667403
449.1609868
450.8217272
452.444557
454.0331843
455.5864442
457.095463
458.5606
459.978231
461.3506888
462.6726796
463.9440266
465.1580773
466.3183066
467.4137076
468.4479568
469.4114814
470.3209546
471.1473726
471.9256234
472.6379112
473.2865069
473.8858505
474.6158088
475.5842968
501.8630422
527.9072085
553.6738866
579.2123797
)


101
(
300
301.5218095
302.9589583
304.4627309
306.0630646
307.7643106
309.5519205
311.446578
313.4198792
315.4714197
317.5926645
319.7822993
322.0232918
324.3424121
326.7088486
329.120225
331.5868788
334.1194933
336.6491208
339.2822827
341.9156436
344.5556577
347.2699866
350.0087974
352.7551576
355.5126732
358.2816748
361.0573178
363.8501963
366.6488092
369.4525949
372.248689
374.9994243
377.8384084
380.6540055
383.4619167
386.2551619
389.0168455
391.7725238
394.5508215
397.3340459
400.0702793
402.8071024
405.5315528
408.221998
410.9082591
413.5691792
416.2258531
418.8619568
421.4910173
424.0974499
426.6875948
429.2598729
431.8117707
434.3401624
436.8447422
439.346111
441.8090471
444.261508
446.6854087
449.090996
451.4706538
453.8236435
456.1519033
458.4543846
460.7307355
462.9781534
465.1954795
467.3858015
469.5416554
471.6668409
473.7576576
475.8167427
477.8377355
479.8196175
481.7577119
483.6543186
485.5091717
487.3124308
489.0644112
490.760535
492.4019532
493.9834303
495.5042179
496.9573074
498.3470071
499.6604253
500.9018367
502.0594733
503.1516248
504.1449607
505.0812683
505.9398287
506.7236129
507.4486011
508.3323151
509.4994072
535.6935752
561.6483602
587.3151481
612.7543846
)


101
(
300.0571201
301.7764444
303.4533753
305.206569
307.0708345
309.0513288
311.1313505
313.3341317
315.627932
318.0115147
320.4752904
323.0174303
325.6191301
328.3086041
331.0537811
333.8507319
336.7099029
339.643119
342.578508
345.623878
348.6764182
351.7385752
354.8783099
358.0480536
361.2296208
364.4246358
367.6325314
370.8481773
374.0820256
377.3229422
380.5701968
383.8104553
387.004796
390.2838704
393.54035
396.7902341
400.0259437
403.2296437
406.425081
409.6400177
412.8579324
416.028618
419.1978491
422.3524405
425.4711016
428.582727
431.6665107
434.7428523
437.7958114
440.8386811
443.8565024
446.8555024
449.8339386
452.7891142
455.7178271
458.6196096
461.5142983
464.3677069
467.2070233
470.0147015
472.800582
475.5570933
478.2833197
480.9807608
483.6484509
486.285612
488.8896663
491.4594239
493.9977488
496.496994
498.9608945
501.3852012
503.7721304
506.1156685
508.4147048
510.6643644
512.8655168
515.0186585
517.1130666
519.1491944
521.1216473
523.0304669
524.870181
526.6393092
528.3304513
529.948769
531.4795274
532.9280065
534.2803088
535.5566247
536.718117
537.8139169
538.8204035
539.7418818
540.5953215
541.6350023
543.0042377
569.1113186
594.9769566
620.5462515
645.890537
)


101
(
300.0659202
302.0311647
303.94797
305.9502682
308.0776983
310.3362466
312.7071353
315.2159259
317.8278508
320.5407198
323.3439386
326.2351214
329.193893
332.249395
335.3687909
338.5466806
341.7933044
345.1213555
348.4572071
351.9084915
355.3738117
358.8523952
362.4112195
366.0047921
369.6144856
373.2402835
376.8805425
380.5296666
384.1977553
387.8739852
391.5576018
395.2351061
398.8669431
402.5800498
406.2703642
409.9542928
413.6244127
417.262626
420.8911443
424.536475
428.1825055
431.7805831
435.3750855
438.95276
442.49265
446.0227964
449.5228095
453.0123385
456.4756736
459.9257257
463.3480763
466.7489626
470.1266938
473.4784739
476.8009587
480.093518
483.3752048
486.61274
489.8325071
493.0175547
496.177425
499.3046822
502.3982789
505.4592938
508.4867715
511.4793894
514.434686
517.3515075
520.2326456
523.0704267
525.8684806
528.6219246
531.3324885
533.9945031
536.6068272
539.1644659
541.6669399
544.1153621
546.4981045
548.8158591
551.0625996
553.2373244
555.3342533
557.3509808
559.2796724
561.1263247
562.87422
564.5300481
566.0777691
567.5399132
568.8715281
570.1287876
571.2854755
572.3473421
573.3327052
574.5322546
576.1063882
602.1269138
627.9060735
653.3818405
678.6364635
)


101
(
300.0747202
302.2859725
304.442749
306.6938428
309.083679
311.6190963
314.2793166
317.092026
320.0197092
323.0591283
326.1987223
329.4355145
332.7477331
336.165018
339.6541293
343.2083264
346.8373996
350.5546418
354.2855481
358.1366295
362.0083414
365.8974448
369.8691641
373.8796881
377.9104386
381.9601647
386.0261429
390.1021785
394.1978229
398.3024431
402.4153068
406.5229792
410.5857944
414.7267832
418.84434
422.9549505
427.0516212
431.1165468
435.1708849
439.2398932
443.3074501
447.3261201
451.3389215
455.3326765
459.2867869
463.2284887
467.1379016
471.0339709
474.9011457
478.7518396
482.5720429
486.3679523
490.138036
493.8796025
497.5892514
501.2661554
504.9285676
508.5440249
512.1380106
515.6941403
519.2217456
522.7135958
526.1686155
529.5875639
532.9695009
536.3124676
539.6139239
542.8726895
546.0915492
549.2629822
552.390677
555.4690814
558.499376
561.4760899
564.3980511
567.2602504
570.0610328
572.8020613
575.4706557
578.067762
580.5869741
583.0263389
585.3797122
587.6435867
589.8097374
591.8849921
593.8504613
595.7142412
597.4586506
599.1084146
600.612764
602.0339882
603.3437703
604.549194
605.6704948
607.033873
608.8163961
634.7530335
660.4499913
685.83714
711.0075266
)


101
(
300.0835202
302.5408692
304.9377176
307.4373056
310.0887972
312.8999073
315.8479328
318.9624921
322.2035755
325.5668272
329.0397471
332.6187422
336.2807956
340.0556904
343.9100402
347.8359186
351.842489
355.9433897
360.0638821
364.3087664
368.5805217
372.8740889
377.2525522
381.673341
386.1181528
390.5848708
395.0698093
399.5661191
404.0826534
408.6088124
413.1438502
417.6745383
422.1614957
426.7239747
431.2623472
435.7927426
440.3085094
444.7923871
449.2649217
453.7504216
458.2326694
462.665184
467.0894673
471.4924238
475.8538023
480.200062
484.51193
488.8077829
493.0722115
497.3170342
501.5285436
505.7128209
509.8684753
513.9929934
518.083132
522.1379188
526.1748113
530.162098
534.1242793
538.0454459
541.9347123
545.7851307
549.5956543
553.3668736
557.0979648
560.7863557
564.4292238
568.0251787
571.5769506
575.0773146
578.5302195
581.9295662
585.2758957
588.5638438
591.7921242
594.9557714
598.0520366
601.0832382
604.0356521
606.9102224
609.7002646
612.4032451
615.0126054
617.5235731
619.9273321
622.2318848
624.4160396
626.4888048
628.4315398
630.2710741
631.9513371
633.5394956
635.0057995
636.3584754
637.6201396
639.1516382
641.1469321
667.003416
692.6231418
717.9271052
743.0212444
)


101
(
300.0923203
302.7958572
305.4328823
308.180671
311.0930763
314.1787123
317.4130262
320.8273888
324.3795243
328.0639089
331.8671256
335.7849442
339.7932348
343.9216325
348.1367788
352.4297222
356.8088818
361.2880123
365.7925954
370.4253821
375.0908911
379.7827641
384.5618133
389.3863212
394.2383051
399.1150618
404.0121116
408.9219762
413.8527205
418.7936287
423.7438403
428.6903792
433.5944435
438.5717434
443.5244611
448.4680163
453.3958336
458.2911683
463.1742241
468.068714
472.9584684
477.7979119
482.6269243
487.432324
492.1941671
496.9381094
501.645486
506.3342475
510.9892792
515.6217499
520.218158
524.784345
529.3190106
533.8198419
538.28382
542.709992
547.1151381
551.4682689
555.7928372
560.0732641
564.3184068
568.5215932
572.681876
576.799767
580.8746868
584.903593
588.8834081
592.8122301
596.6925731
600.517465
604.2912837
608.0076357
611.6665278
615.262582
618.7942626
622.2565823
625.6457698
628.9649003
632.1993971
635.3500182
638.4095751
641.3753198
644.2405048
646.9989274
649.6408864
652.1755775
654.5800335
656.8634215
659.0062682
661.0382417
662.8977109
664.6564232
666.2831654
667.7873646
669.1942213
670.8986245
673.1112984
698.8923238
724.440262
749.6660174
774.6879776
)


101
(
300.1011203
303.0509382
305.9282494
308.9239534
312.0965392
315.4555436
318.9746384
322.6867794
326.5476297
330.5504651
334.6809688
338.9342575
343.2852038
347.763057
352.3345972
356.990004
361.7368835
366.5889057
371.4720906
376.4869478
381.5399883
386.6239522
391.7973978
397.0191753
402.2715548
407.5514252
412.853681
418.1702958
423.5085268
428.8574292
434.2159014
439.5711711
444.8851829
450.2703997
455.6308207
460.9809872
466.3141267
471.6138088
476.8998904
482.1957348
487.4855393
492.7247644
497.9516784
503.1528392
508.3084695
513.4433704
518.5394533
523.6142998
528.6531937
533.6667965
538.6417693
543.5836179
548.490998
553.3617401
558.1930998
562.9842635
567.7514522
572.4644902
577.1457702
581.7799546
586.3754975
590.9259771
595.4305387
599.8896762
604.30319
608.6676963
612.9800289
617.2377147
621.4427653
625.5882669
629.6790397
633.708611
637.6767193
641.5779905
645.4105165
649.1691192
652.8490584
656.4541766
659.9691544
663.3947332
666.7229901
669.9508388
673.0718249
676.0784691
678.9597186
681.7255713
684.3521497
686.8484856
689.1936835
691.420882
693.4632583
695.3964911
697.1879208
698.848408
700.405641
702.2883915
704.723143
730.433306
755.9147909
781.0678531
806.0250441
)


101
(
300.1099203
303.3061145
306.4238255
309.6671673
313.0992093
316.7304339
320.5328118
324.5407277
328.7079662
333.0265873
337.4813889
342.0668195
346.756857
351.5801729
356.5037478
361.5170364
366.6267997
371.8464562
377.1027758
382.4939381
387.9283592
393.3981687
398.9597879
404.5724418
410.2185414
415.894656
421.5951967
427.3116912
433.0506258
438.8007689
444.5606589
450.3176294
456.0344224
461.8204784
467.5817463
473.3318951
479.0637822
484.7610327
490.4429667
496.1326737
501.814952
507.446549
513.0643294
518.6545667
524.1974378
529.7167615
535.1949273
540.6491439
546.0652314
551.4534493
556.8006664
562.1120256
567.3860534
572.6206028
577.8131468
582.9631103
588.0862339
593.1532708
598.1856683
603.1682821
608.1090337
613.0016833
617.8454176
622.6406822
627.3876931
632.0829623
636.7233917
641.3060404
645.8323021
650.2949822
654.6992205
659.0385184
663.3126092
667.5163356
671.6474398
675.7004087
679.6693464
683.5588315
687.3529819
691.0526502
694.6491784
698.1388436
701.5157144
704.7714871
707.8936027
710.8921218
713.7426493
716.4545924
719.0050751
721.4302908
723.6594565
725.771617
727.732396
729.5542844
731.2673248
733.3338894
735.9958067
761.6399445
787.060418
812.1468576
837.0447161
)


101
(
300.1187203
303.5613882
306.9196174
310.410328
314.1011112
318.0034175
322.0875906
326.3892987
330.8606115
335.4923699
340.2685008
345.1827703
350.2083529
355.373189
360.6444856
366.0110993
371.4789417
377.0610473
382.6850697
388.4468297
394.256557
400.1059696
406.0495073
412.046671
418.0798983
424.1454606
430.2373817
436.3468412
442.4796316
448.6242367
454.7787509
460.9304848
467.042936
473.2226946
479.377779
485.5211147
491.6451625
497.7334197
503.8044173
509.8807814
515.948026
521.9644665
527.9658602
533.9383585
539.8619584
545.7592963
551.6131398
557.440252
563.2269534
568.9833173
574.6965247
580.3713191
586.0060522
591.5985538
597.1463696
602.6491578
608.1222999
613.5375529
618.9155605
624.2413921
629.5223853
634.7523615
639.930522
645.0571793
650.1329422
655.1543132
660.1184288
665.0221611
669.8662543
674.6430963
679.3578228
684.0038166
688.5808886
693.0843795
697.5119105
701.8576371
706.1142941
710.2870141
714.3593059
718.3323893
722.1970993
725.9488131
729.5818653
733.0876694
736.452541
739.6858328
742.762266
745.692591
748.451745
751.0781609
753.4981508
755.793822
757.9289671
759.9177304
761.7922301
764.0482404
766.9428456
792.5264637
817.8920362
842.9185746
867.761833
)


101
(
300.1275203
303.8167614
307.4156316
311.1534501
315.1022683
319.2745274
323.639017
328.2325553
333.0056408
337.9479044
343.0424154
348.2822458
353.6398459
359.1423053
364.7570579
370.4724683
376.2936173
382.2330502
388.2193898
394.3460997
400.5251342
406.7479257
413.0670995
419.4424117
425.8562375
432.304526
438.7809658
445.2764635
451.7962076
458.3284479
464.8708054
471.4104591
477.9115506
484.47788
491.0196511
497.5492038
504.0587071
510.5314628
516.9850035
523.4412049
529.8862033
536.279977
542.6575645
549.0052846
555.303048
561.5721185
567.7953857
573.9891127
580.1401008
586.2582444
592.3311849
598.3634245
604.3530671
610.2978309
616.1952947
622.0452007
627.8626549
633.6204908
639.3386938
645.0026483
650.6191233
656.181827
661.6899419
667.1436089
672.54379
677.886929
683.1705203
688.3914341
693.5500052
698.6381984
703.6608689
708.6110319
713.4885215
718.2892654
723.0110858
727.6480815
732.1915929
736.6469309
740.9967314
745.242818
749.3757782
753.3901735
757.2802308
761.0370617
764.6465295
768.117246
771.4220471
774.5735452
777.5451293
780.3764638
782.9914624
785.4755687
787.7900973
789.951512
791.993372
794.4445204
797.577597
823.1066909
848.424117
873.3987878
898.2036585
)


101
(
300.1363202
304.0722359
307.9118742
311.8965479
316.1027039
320.5437962
325.1871331
330.0705593
335.143129
340.3932812
345.8032426
351.3653808
357.0514896
362.8877168
368.841707
374.9014174
381.0711334
387.3628318
393.7061498
400.1922252
406.734644
413.3246275
420.0131426
426.7602321
433.5481653
440.3725305
447.2266891
454.1013188
461.0010774
467.9140645
474.8374609
481.758245
488.6410771
495.5869394
502.5082481
509.4169207
516.3050056
523.1556911
529.9853954
536.8149598
543.6308642
550.3947104
557.1410594
563.8567745
570.5219318
577.1564198
583.743018
590.2972892
596.8064328
603.2801879
609.7067237
616.0904289
622.4292779
628.7207837
634.962478
641.1541372
647.3104402
653.4053911
659.4584945
665.4555695
671.4028544
677.2939074
683.1277589
688.9043651
694.6250207
700.2859615
705.8851091
711.4194826
716.889237
722.2860228
727.6143372
732.8666248
738.0424804
743.1383755
748.1524719
753.0791962
757.9088492
762.6465845
767.2739096
771.7929085
776.1942756
780.4722336
784.6206394
788.6298694
792.4858909
796.1969021
799.733147
803.1088013
806.2967728
809.3373166
812.1515787
814.8295089
817.3286031
819.6685949
821.8841102
824.5367239
827.9135917
853.3952646
878.6723144
903.6035663
928.3729605
)


101
(
300.1451202
304.3278148
308.4083542
312.6396392
317.1024464
321.8112628
326.7319884
331.9033809
337.2731622
342.8286035
348.5511049
354.4323245
360.4434542
366.609634
372.898692
379.2982445
385.8118211
392.450779
399.1457889
405.9857067
412.8856643
419.8367129
426.8882791
434.0007683
441.1563355
448.3501841
455.5753318
462.8222344
470.0950643
477.3818566
484.6794393
491.9745826
499.2323541
506.5508474
513.8446173
521.1252742
528.3849318
535.60681
542.806267
550.0029549
557.1833237
564.3103771
571.4182296
578.4946132
585.5201765
592.5136463
599.4575312
606.3664391
613.2278354
620.0512262
626.8253586
633.5546634
640.2370722
646.8699173
653.4506193
659.9788687
666.4688937
672.8957716
679.2786021
685.6038433
691.8773535
698.0925404
704.2481329
710.3438908
716.3813524
722.3565338
728.2677256
734.1120903
739.8898422
745.592472
751.2242552
756.7769498
762.249651
767.6391722
772.9439311
778.1588767
783.2737588
788.2939617
793.1993232
797.9917316
802.6619667
807.2044993
811.6128929
815.8764347
819.9811165
823.9354944
827.7068909
831.3101021
834.7185339
837.9730475
840.9911116
843.8685327
846.5579342
849.0824766
851.4783749
854.3386829
857.9652704
883.4074764
908.6527272
933.5492895
958.2931266
)


101
(
300.1539202
304.5835002
308.9050776
313.3827392
318.1015199
323.076961
328.273626
333.7310827
339.3958183
345.2539656
351.286114
357.4832123
363.8158959
370.3082497
376.9282537
383.663232
390.5159989
397.4972592
404.5387225
411.7270119
418.9787367
426.2847886
433.6931506
441.1646577
448.68139
456.2381627
463.8276361
471.4400219
479.0790111
486.7326361
494.3974877
502.0601924
509.6861591
517.3705198
525.0298152
532.6753629
540.2994918
547.8856693
555.448354
563.0059617
570.5446516
578.0284684
585.4909323
592.9207709
600.2995899
607.6453448
614.9403997
622.1981794
629.406086
636.5733678
643.6892975
650.7584123
657.7788008
664.7476871
671.6623262
678.5222431
685.3410983
692.0949718
698.8025744
705.4511325
712.0463516
718.5815066
725.0550364
731.4663719
737.8172256
744.1034253
750.3234907
756.4747422
762.5575215
768.5633817
774.4965594
780.3480669
786.1164579
791.7986507
797.3930242
802.8949945
808.2942662
813.5968643
818.7810295
823.8479842
828.7881863
833.5964147
838.2666688
842.7869484
847.1428819
851.3436575
855.3543178
859.1891666
862.8222952
866.2959311
869.522964
872.6055955
875.4917003
878.2071411
880.7903829
883.8651323
887.7475271
913.1588747
938.3814099
963.2519181
987.980339
)


101
(
300.1627201
304.8392941
309.4020514
314.1258629
319.0999493
324.3409255
329.8120903
335.5537277
341.5111765
347.6694636
354.0083826
360.5181812
367.1689722
373.983756
380.9306314
387.9966626
395.1839886
402.5026424
409.8853684
417.4166074
425.0143995
432.6694648
440.4284215
448.2525752
456.1240049
464.037161
471.984343
479.9554926
487.9537947
495.9672939
503.9924458
512.0158504
520.003276
528.0468291
536.064879
544.068356
552.0498862
559.9933519
567.9125351
575.8247611
583.7157614
591.5502644
599.3609057
607.1372831
614.8621999
622.5533468
630.1932181
637.7940568
645.3429283
652.8485558
660.300685
667.7039924
675.0568208
682.3564955
689.6001308
696.7869887
703.9300874
711.0063239
718.0339867
725.0011396
731.9135814
738.7645993
745.5523851
752.2759258
758.9369685
765.5312091
772.0572942
778.512669
784.8978284
791.2045243
797.4370474
803.5858845
809.6490668
815.6234357
821.5070239
827.2954458
832.9784104
838.5631945
844.0269952
849.3700764
854.5819641
859.65744
864.5915864
869.3715425
873.9817253
878.4322948
882.6865146
886.7577329
890.6200964
894.3183402
897.7601262
901.0540703
904.1434611
907.0566434
909.8345399
913.1308279
917.2756438
942.6646795
967.8732978
992.7243542
1017.444832
)


101
(
300.17152
305.0951999
309.8992847
314.8690294
320.0977645
325.6031973
331.347433
337.3713875
343.6193266
350.0752058
356.718039
363.5373819
370.5028585
377.6363631
384.9060816
392.2988397
399.8161364
407.4673251
415.1861763
423.0549921
430.9932187
438.9913911
447.0948021
455.265264
463.4849253
471.7479316
480.0462378
488.3694942
496.7203471
505.0868219
513.4652869
521.8424624
530.1845599
538.58068
546.9508541
555.3054835
563.6374391
571.9311648
580.1999815
588.460347
596.6975946
604.8769089
613.0297002
621.1461513
629.2102524
637.2397692
645.2178448
653.1557675
661.0401155
668.8787572
676.6617171
684.3937588
692.0735672
699.6987744
707.2665088
714.7757496
722.2387553
729.6330669
736.9764398
744.2577263
751.4829308
758.6457265
765.744112
772.7766433
779.7448935
786.6444059
793.4739212
800.2309993
806.9162196
813.5215443
820.0514901
826.4962661
832.8534302
839.1197192
845.2926798
851.3677004
857.3342451
863.201179
868.9453308
874.5662213
880.0519791
885.3969618
890.5973221
895.6400886
900.5082752
905.2123476
909.714549
914.0274331
918.1240497
922.0527373
925.7156322
929.2271896
932.5268931
935.6451011
938.6254542
942.1506538
946.564991
971.9394227
997.1411803
1021.981617
1046.697379
)


101
(
300.18032
305.3512194
310.3967845
315.6122535
321.0949899
326.8638105
332.8796976
339.1841237
345.7203469
352.4712876
359.4151977
366.5409483
373.8177121
381.2662603
388.8548371
396.5700411
404.4127625
412.3916767
420.4415654
428.6426394
436.9157305
445.2511774
453.6929703
462.2034506
470.7648929
479.3712144
488.0140728
496.6828259
505.3795473
514.0921835
522.8170076
531.5409536
540.2308495
548.972892
557.6886397
566.3878384
575.0634364
583.7004788
592.3119865
600.913797
609.4910496
618.0093252
626.4985355
634.949063
643.3458392
651.7068446
660.016308
668.2850354
676.4992699
684.665744
692.7743952
700.8299454
708.831425
716.7769172
724.6637777
732.4908726
740.2696149
747.9780464
755.6331354
763.2244079
770.7581399
778.2286427
785.63393
792.9722485
800.244934
807.4471772
814.5777852
821.6343872
828.6176497
835.5197427
842.3454765
849.0848481
855.7351471
862.2931738
868.7559725
875.1183714
881.369202
887.5187442
893.5439138
899.4442747
905.2064695
910.8238374
916.2931905
921.6020804
926.7324365
931.6943157
936.4491353
941.0093011
945.3457205
949.5109053
953.4017973
957.1378019
960.6550137
963.9859458
967.1767632
970.9385673
975.6294312
1000.996152
1026.199387
1051.029865
1075.740698
)


101
(
300.1891199
305.6073578
310.8945598
316.3555551
322.0916567
328.1228079
334.4089378
340.9920091
347.814329
354.85782
362.0999911
369.5290355
377.1137123
384.8736597
392.7771534
400.8105702
408.9742171
417.2760981
425.65199
434.1800563
442.7825038
451.4494719
460.2236568
469.0679279
477.9647258
486.9078264
495.8886639
504.8963346
513.9323164
522.984403
532.0487163
541.1124389
550.1431512
559.2243807
568.2791794
577.3164938
586.3291657
595.3027235
604.2500335
613.1864941
622.0972946
630.9485186
639.7684946
648.5474782
657.2709256
665.9568984
674.5909375
683.1839556
691.7221719
700.2112408
708.640674
717.0147816
725.3328642
733.5934815
741.7944549
749.9347392
758.0250881
766.0438325
774.0070205
781.9045357
789.7428852
797.5171276
805.2256467
812.8665044
820.4409349
827.943553
835.3731823
842.7273845
850.0069256
857.2042614
864.3244328
871.3573042
878.2999632
885.1494898
891.9026423
898.5535806
905.090039
911.5232766
917.8306546
924.0121379
930.0534826
935.9464488
941.6881301
947.2666591
952.6637229
957.8882363
962.9004548
967.7136232
972.2957844
976.7035523
980.8293028
984.7969488
988.5393569
992.0908748
995.5005021
999.5068525
1004.482038
1029.847626
1055.052258
1079.871409
1104.574054
)


101
(
300.1979198
305.863616
311.3926181
317.0989507
323.0877921
329.380227
335.9352014
342.7951093
349.9013562
357.2349047
364.7725411
372.5017888
380.3910266
388.4587585
396.6732686
405.0207119
413.500832
422.1209683
430.8178822
439.6677278
448.594083
457.5868936
466.6875686
475.8594804
485.085252
494.3585983
503.6708332
513.0108509
522.379531
531.7644508
541.1614977
550.5580677
559.9225929
569.3361537
578.7233875
588.0923906
597.4357428
606.7392524
616.0156013
625.2798995
634.517615
643.6955569
652.840561
661.942546
670.9871078
679.9920208
688.9441035
697.8547254
706.7107115
715.5169113
724.2622325
732.9502251
741.5801202
750.150902
758.6609886
767.1097072
775.5073923
783.8326767
792.1005297
800.3009496
808.4404637
816.5147863
824.522903
832.4630405
840.336487
848.137221
855.8639548
863.5141143
871.0884633
878.5797623
885.9933455
893.3188643
900.5532829
907.6941236
914.7381226
921.6788547
928.5026422
935.2213973
941.8127118
948.2772391
954.6003031
960.7722296
966.7898048
972.6417185
978.3098643
983.8026504
989.0776662
994.149943
998.9846608
1003.641568
1008.009446
1012.216358
1016.19205
1019.9721
1023.609029
1027.867882
1033.134345
1058.497047
1083.701513
1108.503619
1133.163325
)


101
(
300.2067197
306.1199965
311.8909673
317.8424578
324.083424
330.6361067
337.4585373
344.5934904
351.9815128
359.6026447
367.4329719
375.4593555
383.6498247
392.0217557
400.5434205
409.2007503
417.9929401
426.9266704
435.9396761
445.1061436
454.3510154
463.664057
473.0854042
482.578901
492.1273388
501.7244347
511.3614734
521.0272446
530.7220719
540.4332707
550.1564135
559.879036
569.5704035
579.3093592
589.0222812
598.716493
608.384198
618.0112843
627.6101048
637.1955339
646.7534859
656.2517125
665.7157724
675.1352501
684.495635
693.8139805
703.0780299
712.299714
721.4670065
730.5844761
739.6406474
748.6379947
757.5752203
766.4514786
775.2658219
784.018162
792.7187359
801.3466991
809.9158193
818.4160619
826.8536639
835.2248638
843.5292007
851.7653516
859.935009
868.0315978
876.0536545
883.9983046
891.8662283
899.6504801
907.3567183
914.9743955
922.5003096
929.9324608
937.2677416
944.4993885
951.6123211
958.6185902
965.4959077
972.2457363
978.8534002
985.3082074
991.6061322