/*--------------------------------*- C++ -*----------------------------------*\
| =========                 |                                                 |
| \\      /  F ield         | OpenFOAM: The Open Source CFD Toolbox           |
|  \\    /   O peration     | Version:  2.3.1                                 |
|   \\  /    A nd           | Web:      www.OpenFOAM.org                      |
|    \\/     M anipulation  |                                                 |
\*---------------------------------------------------------------------------*/
FoamFile
{
    version     2.0;
    format      ascii;
    class       dictionary;
    location    "constant";
    object      x4;
}
// * * * * * * * * * * * * * * * * * * * * * * * * * * * * * * * * * * * * * //

x4_table
101
(
101{0}
101{0}
101{0}
101{0}
101{0}
101{0}
101{0}
101{0}
101{0}
101{0}
101{0}
101{0}
101{0}
101{0}
101{0}
101{0}
101{0}
101{0}
101{0}
101{0}
101{0}
101{0}
101{0}
101{0}
101{0}
101{0}
101{0}
101{0}
101{0}
101{0}
101{0}
101{0}
101{0}
101{0}
101{0}
101{0}
101{0}
101{0}
101{0}
101{0}
101{0}
101{0}
101{0}
101{0}
101{0}
101{0}
101{0}
101{0}
101{0}
101{0}
101{0}
101{0}
101{0}
101{0}
101{0}
101{0}
101{0}
101{0}
101{0}
101{0}
101{0}
101{0}
101{0}
101{0}
101{0}
101{0}
101{0}
101{0}
101{0}
101{0}
101{0}
101{0}
101{0}
101{0}
101{0}
101{0}
101{0}
101{0}
101{0}
101{0}
101{0}
101{0}
101{0}
101{0}
101{0}
101{0}
101{0}
101{0}
101{0}
101{0}
101{0}
101{0}
101{0}
101{0}
101{0}
101{0}
101{0}
101{0}
101{0}
101{0}
101{0}
)
;