/*--------------------------------*- C++ -*----------------------------------*\
| =========                 |                                                 |
| \\      /  F ield         | OpenFOAM: The Open Source CFD Toolbox           |
|  \\    /   O peration     | Version:  2.3.1                                 |
|   \\  /    A nd           | Web:      www.OpenFOAM.org                      |
|    \\/     M anipulation  |                                                 |
\*---------------------------------------------------------------------------*/
FoamFile
{
    version     2.0;
    format      ascii;
    class       dictionary;
    location    "constant";
    object      CH2(S);
}
// * * * * * * * * * * * * * * * * * * * * * * * * * * * * * * * * * * * * * //

CH2(S)_table
60
(

60
(
5(1.494290083e-14 7.222806626e-15 1.854673724e-14 1.05009472e-14 1.612197841e-14)
5(7.426270209e-15 1.417026891e-15 7.737081494e-15 4.852764952e-15 4.768723161e-15)
5(3.983389944e-12 2.958668206e-15 3.111485085e-15 1.82349574e-15 0)
5(1.181029712e-11 3.810382151e-15 3.362569148e-15 4.266385038e-17 1.421997325e-15)
5(1.458322061e-11 3.895021367e-15 4.304843397e-15 2.124904859e-15 1.033719382e-15)
5(1.198534661e-11 4.035362626e-15 1.895174217e-15 2.951716098e-15 1.245313741e-15)
5(6.475924473e-15 4.381188364e-15 3.350086085e-15 2.404256864e-15 3.587709672e-15)
5(3.836680582e-15 5.448095687e-15 6.55769615e-15 3.734551764e-15 1.130848128e-15)
5(1.388313698e-11 7.433899397e-15 8.959541063e-15 4.910842444e-15 2.582982709e-15)
5(2.407306559e-11 2.616710286e-14 1.458497932e-14 6.183675021e-15 3.878542172e-15)
5(2.659740236e-11 4.171359146e-14 1.708508598e-14 9.074586725e-15 5.258144494e-15)
5(7.807526902e-12 1.783848364e-14 1.696392964e-14 1.07352213e-14 7.156546806e-15)
5(1.857334936e-14 2.415739969e-14 2.016833524e-14 1.638867148e-14 9.839353659e-15)
5(2.932173163e-14 3.302570828e-14 2.790439417e-14 1.884706019e-14 1.234315592e-14)
5(3.382287436e-14 4.165553539e-14 3.525947568e-14 2.817500277e-14 1.643295319e-14)
5(6.463378701e-13 1.216234613e-13 7.371128988e-14 4.839794885e-14 2.538192725e-14)
5(6.050978981e-13 1.348335651e-13 1.06807066e-13 5.967538792e-14 3.57875491e-14)
5(3.007434643e-13 1.496058416e-13 9.787842758e-14 8.111179969e-14 5.215964547e-14)
5(1.159927126e-13 1.667463701e-13 1.335560473e-13 1.128244027e-13 9.155686619e-14)
5(1.682195291e-13 2.176411726e-13 1.977248384e-13 1.781786189e-13 1.236307047e-13)
5(2.298535152e-13 2.963768478e-13 2.678334968e-13 2.514747951e-13 1.575222985e-13)
5(3.260707703e-13 4.145721994e-13 4.232456607e-13 3.096291838e-13 2.065449316e-13)
5(4.876793414e-13 6.193322518e-13 6.016783727e-13 5.28264726e-13 3.598644709e-13)
5(6.936077719e-13 9.751383993e-13 8.908595847e-13 8.14691044e-13 5.52772702e-13)
5(1.102858334e-12 1.766545338e-12 1.414581122e-12 1.368534283e-12 9.408171124e-13)
5(1.658999776e-12 3.208805455e-12 2.405413362e-12 2.390032516e-12 1.552080595e-12)
5(2.541734668e-12 4.41819359e-12 3.712300963e-12 4.077078132e-12 2.65353955e-12)
5(3.987881733e-12 5.907249936e-12 6.360991309e-12 6.936246939e-12 4.501135224e-12)
5(6.825145385e-12 1.001365497e-11 1.035252907e-11 1.139306284e-11 7.828369327e-12)
5(1.126915721e-11 1.721722957e-11 1.722646252e-11 1.794224818e-11 1.269700194e-11)
5(1.927711562e-11 2.93101677e-11 2.99829259e-11 3.116138056e-11 2.126747015e-11)
5(3.208794526e-11 4.739864114e-11 4.710661706e-11 4.582721546e-11 2.734358075e-11)
5(5.251259506e-11 7.79784854e-11 7.748504153e-11 7.175501305e-11 5.106553065e-11)
5(8.643309067e-11 1.260052538e-10 1.265080625e-10 1.045613219e-10 5.709317924e-11)
5(1.389023157e-10 1.898760673e-10 1.862500285e-10 1.484074942e-10 7.439348012e-11)
5(2.14916109e-10 2.949673787e-10 2.989892553e-10 2.042291332e-10 9.552355734e-11)
5(3.216603622e-10 3.869128556e-10 3.380986579e-10 2.297416063e-10 1.152429798e-10)
5(4.600218791e-10 5.480600267e-10 4.339367508e-10 2.842220448e-10 5.809815636e-11)
5(6.413087337e-10 6.904695516e-10 5.52487443e-10 2.8384302e-10 1.119280947e-10)
5(8.806371653e-10 8.438225317e-10 6.709524939e-10 2.894055968e-10 5.393307009e-13)
5(1.082417634e-09 8.91335423e-10 5.884087075e-10 2.326106862e-10 9.281803412e-13)
5(1.213759221e-09 9.071714609e-10 5.101362182e-10 1.485414409e-10 7.258510807e-28)
5(1.298497023e-09 7.742105237e-10 3.597704951e-10 7.96059153e-29 3.311505732e-28)
5(1.297800515e-09 6.923611932e-10 4.430351899e-10 2.941042112e-28 2.386962304e-12)
5(1.180890392e-09 4.792170271e-10 2.421158394e-10 1.022002701e-27 1.658480053e-13)
5(8.816112463e-10 3.281437456e-10 6.881909711e-11 3.720226393e-27 1.454371308e-26)
5(5.867644997e-10 1.578745503e-10 1.843464464e-11 5.406640375e-13 4.686730536e-26)
5(4.041487083e-10 2.446648276e-11 3.907724929e-12 3.868189462e-26 1.483236484e-25)
5(1.648965514e-10 1.0691625e-11 4.144433456e-13 1.144163466e-25 4.522940984e-25)
5(6.312525741e-11 2.087177934e-13 6.144123644e-26 3.30827195e-25 1.290447665e-24)
5(2.295244638e-11 3.516868723e-26 1.768818941e-25 9.32107135e-25 3.581664793e-24)
5(4.42826732e-12 9.893498947e-26 4.94650057e-25 2.528467567e-24 9.58962632e-24)
5(4.103473618e-14 2.712525441e-25 1.33455474e-24 6.661470544e-24 2.495384762e-23)
5(1.142499964e-25 7.140410203e-25 3.506508957e-24 1.690457674e-23 6.310600855e-23)
5(3.032924551e-25 1.830817327e-24 8.913057731e-24 4.197876127e-23 1.542529188e-22)
5(3.414787054e-24 4.554644561e-24 2.207222094e-23 1.001302184e-22 3.650617038e-22)
5(1.355415727e-23 1.116123367e-23 5.340484518e-23 2.321762695e-22 8.197728724e-22)
5(2.382593983e-23 5.061363756e-23 1.276715918e-22 5.198903349e-22 1.769627966e-21)
5(3.324740817e-23 1.16671997e-22 4.080604829e-22 7.959238551e-22 3.642015084e-21)
5(4.460781063e-23 2.2753118e-22 1.058439563e-21 4.954079182e-21 1.389684251e-20)
)


60
(
5(3.113231366e-14 2.140060713e-14 4.202560942e-14 3.048763052e-14 4.301431229e-14)
5(2.333273127e-14 2.221787378e-14 2.689631686e-14 2.367255019e-14 2.306331556e-14)
5(2.145303334e-14 2.488950352e-14 2.325375078e-14 2.300612947e-14 1.799134935e-14)
5(2.367717011e-14 2.97888176e-14 2.624598874e-14 2.702011162e-14 2.021621166e-14)
5(3.043764849e-14 3.777560046e-14 3.510480501e-14 3.571504612e-14 2.882889794e-14)
5(4.087841051e-14 4.948965787e-14 4.872013609e-14 4.929212575e-14 4.373827363e-14)
5(5.445183277e-14 6.534609296e-14 6.561411389e-14 6.68777299e-14 6.20266655e-14)
5(7.147192044e-14 8.680406874e-14 8.676072426e-14 9.013676636e-14 8.398418184e-14)
5(9.408298144e-14 1.161220544e-13 1.14731939e-13 1.218249645e-13 1.130435764e-13)
5(1.24476538e-13 1.562124759e-13 1.543048026e-13 1.65823738e-13 1.561160097e-13)
5(1.695718161e-13 2.109025458e-13 2.106360814e-13 2.268204021e-13 2.147470236e-13)
5(2.28704464e-13 2.857448666e-13 2.885997523e-13 3.101487918e-13 2.943955675e-13)
5(3.099825418e-13 3.868995399e-13 3.941838697e-13 4.225777992e-13 4.033841849e-13)
5(4.20464953e-13 5.230356983e-13 5.358457586e-13 5.719830933e-13 5.442710757e-13)
5(5.687815299e-13 7.067857218e-13 7.253825471e-13 7.717695417e-13 7.314367002e-13)
5(7.657349129e-13 9.522782755e-13 9.795832527e-13 1.039366988e-12 9.848427939e-13)
5(1.041918414e-12 1.282512196e-12 1.322917985e-12 1.401552824e-12 1.331250136e-12)
5(1.408184292e-12 1.730331331e-12 1.789353461e-12 1.895379888e-12 1.796869448e-12)
5(1.903760934e-12 2.338823936e-12 2.426762527e-12 2.575498623e-12 2.447122704e-12)
5(2.575578155e-12 3.168139752e-12 3.301245315e-12 3.522931735e-12 3.353476934e-12)
5(3.499906322e-12 4.313937426e-12 4.523876052e-12 4.864240415e-12 4.677901621e-12)
5(4.775680584e-12 5.910367301e-12 6.256127491e-12 6.795162781e-12 6.582981803e-12)
5(6.517741246e-12 8.181889124e-12 8.752573161e-12 9.643260455e-12 9.453762173e-12)
5(8.960062802e-12 1.148222584e-11 1.245999389e-11 1.397737575e-11 1.386249828e-11)
5(1.255194702e-11 1.637029107e-11 1.806898611e-11 2.071156017e-11 2.087590341e-11)
5(1.773230841e-11 2.382541756e-11 2.681783667e-11 3.148992282e-11 3.227376702e-11)
5(2.561095835e-11 3.543871341e-11 4.080801333e-11 4.902158987e-11 5.096368691e-11)
5(3.774075473e-11 5.398524918e-11 6.353515374e-11 7.77722521e-11 8.143515793e-11)
5(5.707318376e-11 8.396333101e-11 1.00832157e-10 1.249752476e-10 1.319184921e-10)
5(8.776262326e-11 1.325619834e-10 1.619147873e-10 2.019249157e-10 2.140604056e-10)
5(1.379782557e-10 2.111229745e-10 2.612444612e-10 3.254237262e-10 3.438609274e-10)
5(2.186932347e-10 3.36837348e-10 4.189482843e-10 5.184282626e-10 5.444400769e-10)
5(3.470608413e-10 5.330047545e-10 6.644369609e-10 8.111151164e-10 8.450806941e-10)
5(5.47827913e-10 8.328561383e-10 1.034197603e-09 1.239317605e-09 1.267816395e-09)
5(8.556348024e-10 1.277871301e-09 1.572938544e-09 1.837076221e-09 1.842460108e-09)
5(1.312789952e-09 1.911263674e-09 2.321829356e-09 2.631936063e-09 2.571812515e-09)
5(1.969922121e-09 2.777380667e-09 3.312967298e-09 3.624221115e-09 3.440348158e-09)
5(2.868986197e-09 3.905217689e-09 4.546940951e-09 4.78085865e-09 4.385315513e-09)
5(4.047007084e-09 5.277290058e-09 5.971539953e-09 6.005710686e-09 5.262247447e-09)
5(5.496872276e-09 6.848654655e-09 7.46752903e-09 7.133168087e-09 5.862766385e-09)
5(7.157804979e-09 8.451570719e-09 8.823457809e-09 7.953563205e-09 5.99750881e-09)
5(8.866204983e-09 9.912467686e-09 9.83387698e-09 8.230319276e-09 5.583269202e-09)
5(1.04290128e-08 1.09192149e-08 1.02278555e-08 7.795263615e-09 4.701594893e-09)
5(1.154301809e-08 1.120234486e-08 9.848927556e-09 6.66985461e-09 3.554945757e-09)
5(1.190077815e-08 1.067044367e-08 8.652884254e-09 5.087506808e-09 2.370378309e-09)
5(1.13303379e-08 9.305251573e-09 6.824911435e-09 3.421459829e-09 1.366448101e-09)
5(9.863044695e-09 7.333436801e-09 4.717017077e-09 2.006929456e-09 6.693777793e-10)
5(7.710681933e-09 5.119289482e-09 2.808455773e-09 1.00830334e-09 2.769468295e-10)
5(5.346708337e-09 3.096263918e-09 1.410333802e-09 4.26223509e-10 9.752930381e-11)
5(3.172648835e-09 1.563452667e-09 5.931020961e-10 1.485562924e-10 3.030506464e-11)
5(1.585166421e-09 6.41323306e-10 1.997230562e-10 4.451581418e-11 8.325177346e-12)
5(6.171049377e-10 2.083595243e-10 5.528144382e-11 1.153300122e-11 2.064330572e-12)
5(1.930243182e-10 5.301398423e-11 1.282438471e-11 2.608503954e-12 4.557483424e-13)
5(4.078897581e-11 9.838972371e-12 2.311764993e-12 5.031696222e-13 8.977607211e-14)
5(5.931794491e-12 1.482613948e-12 3.392814173e-13 7.911295209e-14 1.424826672e-14)
5(5.101206328e-13 1.359759598e-13 3.816801934e-14 9.20161918e-15 1.817163062e-15)
5(2.932485109e-14 1.013987042e-14 2.256127835e-15 7.078353785e-16 1.330172363e-16)
5(8.345389639e-16 3.112479704e-16 7.551732596e-17 5.157037168e-17 4.535999801e-18)
5(3.550129212e-18 -3.308037519e-17 7.755205439e-17 -4.200906865e-17 4.507699516e-20)
5(2.545778342e-22 8.700273933e-22 4.413688801e-13 7.301823986e-21 2.169521105e-20)
)


60
(
5(5.731569161e-14 4.371240256e-14 8.427206095e-14 6.949055075e-14 9.355229907e-14)
5(5.087957449e-14 5.097791005e-14 6.280477079e-14 6.05826446e-14 6.12531707e-14)
5(5.190946423e-14 6.150152794e-14 6.097372549e-14 6.421166761e-14 5.578702159e-14)
5(6.120091459e-14 7.707671169e-14 7.35212018e-14 7.937265613e-14 6.804946835e-14)
5(8.01836985e-14 1.010730707e-13 1.006397708e-13 1.079105556e-13 9.666428185e-14)
5(1.105696372e-13 1.365184243e-13 1.423867692e-13 1.513458075e-13 1.448608914e-13)
5(1.513432936e-13 1.856147131e-13 1.968686281e-13 2.092625956e-13 2.056996972e-13)
5(2.046905451e-13 2.528105191e-13 2.66997037e-13 2.868115167e-13 2.824301523e-13)
5(2.750029623e-13 3.451629608e-13 3.612947444e-13 3.919027247e-13 3.846518595e-13)
5(3.754340936e-13 4.724510883e-13 4.934428565e-13 5.366075225e-13 5.223208275e-13)
5(5.160411728e-13 6.47730014e-13 6.776263644e-13 7.332335622e-13 7.123679499e-13)
5(7.13345381e-13 8.850918846e-13 9.287026919e-13 9.965039184e-13 9.660878444e-13)
5(9.723037166e-13 1.201588665e-12 1.26361944e-12 1.341234079e-12 1.293259563e-12)
5(1.323290148e-12 1.624151174e-12 1.704840145e-12 1.791396771e-12 1.710486893e-12)
5(1.79804116e-12 2.185780089e-12 2.286325396e-12 2.377487076e-12 2.25932235e-12)
5(2.449573526e-12 2.93199923e-12 3.052456583e-12 3.145402157e-12 2.970841789e-12)
5(3.281471869e-12 3.914808738e-12 4.060465869e-12 4.150510336e-12 3.906797079e-12)
5(4.395382248e-12 5.213337028e-12 5.386117532e-12 5.476600549e-12 5.159428558e-12)
5(5.882700719e-12 6.919303323e-12 7.137241996e-12 7.244231411e-12 6.840399032e-12)
5(7.843825432e-12 9.172790081e-12 9.463962061e-12 9.613502387e-12 9.106885965e-12)
5(1.046769326e-11 1.214724609e-11 1.257236655e-11 1.282280502e-11 1.220960275e-11)
5(1.388829317e-11 1.610870975e-11 1.67602296e-11 1.722246436e-11 1.66683425e-11)
5(1.840397829e-11 2.143428485e-11 2.24454673e-11 2.333128209e-11 2.286707697e-11)
5(2.451421409e-11 2.866402452e-11 3.032966558e-11 3.203362885e-11 3.19159553e-11)
5(3.269502602e-11 3.864051774e-11 4.150511619e-11 4.474443094e-11 4.542330721e-11)
5(4.378817888e-11 5.271880065e-11 5.775570655e-11 6.389199792e-11 6.620513177e-11)
5(5.92792792e-11 7.304859153e-11 8.195601499e-11 9.31135028e-11 9.871412514e-11)
5(8.150130703e-11 1.030943085e-10 1.187192193e-10 1.389637967e-10 1.499908978e-10)
5(1.132950088e-10 1.487151028e-10 1.76148956e-10 2.115436422e-10 2.328307158e-10)
5(1.614820828e-10 2.190015733e-10 2.668711122e-10 3.272735715e-10 3.664178755e-10)
5(2.339447672e-10 3.28571812e-10 4.100139171e-10 5.103132071e-10 5.725296592e-10)
5(3.458620116e-10 4.997260105e-10 6.34644772e-10 7.957145934e-10 8.954876314e-10)
5(5.192632968e-10 7.637511695e-10 9.826605593e-10 1.231174688e-09 1.376315976e-09)
5(7.860558889e-10 1.165515819e-09 1.508542068e-09 1.872145276e-09 2.079522873e-09)
5(1.187632324e-09 1.762361566e-09 2.279087112e-09 2.787340157e-09 3.046779587e-09)
5(1.785698641e-09 2.62340733e-09 3.369250898e-09 4.040113896e-09 4.340682315e-09)
5(2.656472722e-09 3.819453819e-09 4.847434324e-09 5.670494931e-09 5.956141781e-09)
5(3.835212017e-09 5.41598899e-09 6.750295075e-09 7.671893578e-09 7.837356958e-09)
5(5.438855753e-09 7.444015094e-09 9.053483698e-09 9.955249605e-09 9.811019656e-09)
5(7.445992965e-09 9.855938316e-09 1.165081242e-08 1.23241135e-08 1.160745932e-08)
5(9.83415142e-09 1.252251352e-08 1.431061206e-08 1.446488307e-08 1.282736573e-08)
5(1.249155467e-08 1.519741162e-08 1.666750607e-08 1.597182436e-08 1.320273506e-08)
5(1.511521994e-08 1.748830561e-08 1.830390139e-08 1.642958798e-08 1.256629886e-08)
5(1.734461127e-08 1.8968406e-08 1.881711391e-08 1.559023191e-08 1.097473801e-08)
5(1.876371219e-08 1.92321638e-08 1.790497597e-08 1.352925367e-08 8.699967259e-09)
5(1.896812111e-08 1.809043735e-08 1.558853091e-08 1.062777877e-08 6.158847718e-09)
5(1.772092297e-08 1.562700073e-08 1.220668717e-08 7.451591317e-09 3.845715726e-09)
5(1.516362374e-08 1.217912268e-08 8.47895518e-09 4.600074167e-09 2.072517364e-09)
5(1.169826988e-08 8.41598719e-09 5.117717839e-09 2.466396871e-09 9.537465854e-10)
5(7.959626426e-09 5.034087857e-09 2.640730952e-09 1.106089261e-09 3.698974103e-10)
5(4.665759629e-09 2.523112833e-09 1.131932935e-09 4.182331278e-10 1.191865128e-10)
5(2.243482789e-09 1.020285068e-09 3.868817264e-10 1.266008572e-10 3.367088215e-11)
5(8.436590416e-10 3.213698264e-10 1.040047714e-10 3.141645071e-11 8.001889063e-12)
5(2.282756309e-10 7.456562701e-11 2.04542069e-11 6.010154841e-12 1.577719953e-12)
5(4.329926002e-11 1.212666576e-11 3.080397688e-12 9.683672015e-13 2.706520312e-13)
5(4.737491635e-12 1.31483627e-12 3.10074394e-13 1.148963634e-13 3.255699115e-14)
5(3.010410008e-13 6.951584045e-14 2.147736002e-14 8.050959806e-15 2.428431461e-15)
5(5.762668575e-15 -5.598859939e-16 6.770253007e-16 -1.375852282e-15 1.006336636e-16)
5(3.54377907e-17 -4.651657818e-13 2.187429906e-16 -2.962428863e-13 5.593937359e-19)
5(8.273672311e-21 3.497076635e-21 9.71665451e-13 1.77617973e-20 4.483339935e-20)
)


60
(
5(9.714929293e-14 8.096054598e-14 1.547932563e-13 1.404433631e-13 1.798088996e-13)
5(9.673798211e-14 1.02457318e-13 1.289491762e-13 1.318134873e-13 1.337350641e-13)
5(1.066303782e-13 1.298126523e-13 1.351201693e-13 1.472384593e-13 1.332334804e-13)
5(1.298684478e-13 1.672044359e-13 1.697226659e-13 1.87290259e-13 1.670261437e-13)
5(1.737300668e-13 2.235277729e-13 2.35722661e-13 2.574545021e-13 2.389344209e-13)
5(2.430994652e-13 3.06869943e-13 3.352491862e-13 3.628477186e-13 3.551565648e-13)
5(3.370109765e-13 4.22950135e-13 4.682493005e-13 5.067902416e-13 5.055324628e-13)
5(4.609006306e-13 5.832192027e-13 6.431512865e-13 6.98989242e-13 6.939241556e-13)
5(6.30729241e-13 8.040076046e-13 8.779887313e-13 9.573236467e-13 9.440703484e-13)
5(8.713778524e-13 1.1081104e-12 1.203142126e-12 1.307828579e-12 1.279542446e-12)
5(1.204422593e-12 1.522219633e-12 1.64863178e-12 1.777688962e-12 1.731107989e-12)
5(1.663197906e-12 2.079677057e-12 2.24999436e-12 2.395156073e-12 2.311307809e-12)
5(2.285394218e-12 2.821506212e-12 3.043699948e-12 3.191896627e-12 3.056259471e-12)
5(3.099792714e-12 3.800742428e-12 4.072330416e-12 4.213687976e-12 4.00523331e-12)
5(4.19302325e-12 5.083713553e-12 5.403458196e-12 5.524419451e-12 5.18745438e-12)
5(5.643325233e-12 6.74996278e-12 7.124979808e-12 7.209902606e-12 6.726591601e-12)
5(7.580132304e-12 8.927936417e-12 9.361934904e-12 9.38422038e-12 8.714476949e-12)
5(1.004729521e-11 1.176379619e-11 1.226863214e-11 1.221196263e-11 1.131013078e-11)
5(1.339002474e-11 1.542290203e-11 1.602222831e-11 1.590640541e-11 1.477706292e-11)
5(1.755561497e-11 2.017352215e-11 2.091053181e-11 2.073181808e-11 1.931574671e-11)
5(2.308433036e-11 2.635586399e-11 2.72632922e-11 2.70673007e-11 2.540105423e-11)
5(3.05244347e-11 3.432712814e-11 3.55709792e-11 3.548180014e-11 3.388850798e-11)
5(3.994787681e-11 4.473221975e-11 4.656748636e-11 4.670555571e-11 4.507432975e-11)
5(5.152415678e-11 5.837741303e-11 6.119702273e-11 6.192397645e-11 6.083882207e-11)
5(6.732770404e-11 7.636192471e-11 8.071660806e-11 8.297579348e-11 8.275904446e-11)
5(8.769519832e-11 1.002193402e-10 1.074011088e-10 1.126561111e-10 1.14898604e-10)
5(1.14583663e-10 1.324402735e-10 1.44724498e-10 1.555612433e-10 1.627580753e-10)
5(1.502078147e-10 1.770374429e-10 1.979770714e-10 2.189575606e-10 2.347469363e-10)
5(1.990080744e-10 2.402703558e-10 2.760327339e-10 3.14768787e-10 3.457095591e-10)
5(2.664976305e-10 3.31872465e-10 3.930654204e-10 4.615609008e-10 5.179889777e-10)
5(3.622665535e-10 4.672137021e-10 5.710423382e-10 6.881516575e-10 7.87184805e-10)
5(5.020525663e-10 6.702962081e-10 8.426338549e-10 1.036258485e-09 1.199305056e-09)
5(7.078755084e-10 9.752947821e-10 1.255831057e-09 1.564610769e-09 1.820442169e-09)
5(1.012530592e-09 1.432900037e-09 1.875576763e-09 2.345900934e-09 2.721921687e-09)
5(1.465332138e-09 2.109085546e-09 2.785888308e-09 3.474149026e-09 4.01362639e-09)
5(2.12405615e-09 3.085782528e-09 4.082907073e-09 5.046116513e-09 5.735362484e-09)
5(3.07171959e-09 4.453656934e-09 5.870816111e-09 7.14193141e-09 7.988249966e-09)
5(4.407718446e-09 6.31242152e-09 8.227640803e-09 9.804927413e-09 1.073672681e-08)
5(6.199101919e-09 8.724296911e-09 1.118452265e-08 1.298957642e-08 1.381769518e-08)
5(8.506534191e-09 1.17004315e-08 1.467045593e-08 1.651989887e-08 1.693270867e-08)
5(1.135380084e-08 1.51606218e-08 1.846138639e-08 2.00628207e-08 1.960130564e-08)
5(1.461775309e-08 1.886045851e-08 2.218231672e-08 2.309939201e-08 2.138692678e-08)
5(1.810897604e-08 2.240700692e-08 2.53044092e-08 2.502730589e-08 2.179133159e-08)
5(2.141923142e-08 2.527229936e-08 2.722862612e-08 2.530747163e-08 2.067601991e-08)
5(2.409761518e-08 2.688726191e-08 2.739343046e-08 2.371552162e-08 1.80758014e-08)
5(2.556286487e-08 2.677885446e-08 2.548843153e-08 2.041616562e-08 1.433953584e-08)
5(2.537836151e-08 2.476602035e-08 2.167506818e-08 1.599508136e-08 1.023107413e-08)
5(2.342384748e-08 2.099060162e-08 1.666532102e-08 1.120534129e-08 6.42796049e-09)
5(1.983727953e-08 1.604795029e-08 1.135598153e-08 6.908149425e-09 3.53010685e-09)
5(1.519539597e-08 1.086441766e-08 6.678086835e-09 3.647644604e-09 1.64690697e-09)
5(1.033712176e-08 6.338687531e-09 3.357970504e-09 1.643566672e-09 6.427913101e-10)
5(6.048871985e-09 3.047881735e-09 1.389546108e-09 5.935002874e-10 2.026055278e-10)
5(2.877794545e-09 1.183699971e-09 4.500364712e-10 1.726068783e-10 5.360493878e-11)
5(1.058971075e-09 3.459779006e-10 1.062743873e-10 3.859707041e-11 1.131258473e-11)
5(2.910465587e-10 7.006387033e-11 1.720276878e-11 6.239063306e-12 1.869557479e-12)
5(4.642698977e-11 8.631090194e-12 1.918415432e-12 7.080491204e-13 2.46889338e-13)
5(3.095381003e-12 7.179779164e-13 1.117056982e-13 5.28591454e-14 1.74787862e-14)
5(2.020447928e-13 3.788457952e-14 3.665198996e-15 1.524265572e-14 6.656838577e-16)
5(2.2890707e-15 3.004503603e-12 -2.992063886e-14 2.843267971e-12 6.210029647e-18)
5(5.110843731e-17 3.93311807e-19 0 3.665778492e-20 7.749575245e-20)
)


60
(
5(1.545685761e-13 1.392869065e-13 2.636450249e-13 2.571935918e-13 3.142085303e-13)
5(1.679428604e-13 1.86516739e-13 2.390117181e-13 2.545195643e-13 2.571432062e-13)
5(1.952446797e-13 2.437753065e-13 2.639975775e-13 2.94086533e-13 2.711951334e-13)
5(2.436298554e-13 3.189629524e-13 3.394159432e-13 3.802138739e-13 3.459715316e-13)
5(3.281941972e-13 4.304661887e-13 4.743855398e-13 5.24541794e-13 4.955332707e-13)
5(4.611881152e-13 5.962772078e-13 6.74886364e-13 7.39279531e-13 7.300497356e-13)
5(6.441739987e-13 8.27173548e-13 9.461347598e-13 1.032617075e-12 1.039129673e-12)
5(8.89575592e-13 1.14709318e-12 1.305647398e-12 1.426128311e-12 1.424802925e-12)
5(1.225590232e-12 1.584930256e-12 1.785576395e-12 1.951673783e-12 1.934558195e-12)
5(1.695876677e-12 2.183529862e-12 2.442742326e-12 2.654547259e-12 2.601957855e-12)
5(2.347076576e-12 2.996550852e-12 3.334133036e-12 3.582625068e-12 3.49611419e-12)
5(3.244434062e-12 4.080692986e-12 4.519605839e-12 4.785754316e-12 4.621383427e-12)
5(4.428516778e-12 5.511983043e-12 6.059513175e-12 6.322945933e-12 6.052371456e-12)
5(6.036697586e-12 7.376800325e-12 8.040418908e-12 8.270105048e-12 7.809917895e-12)
5(8.087428308e-12 9.794024963e-12 1.05721004e-11 1.073760291e-11 1.005881127e-11)
5(1.078302705e-11 1.290474036e-11 1.38140429e-11 1.387803318e-11 1.290562607e-11)
5(1.43771323e-11 1.691490054e-11 1.795564747e-11 1.788351577e-11 1.656234966e-11)
5(1.895509692e-11 2.20709574e-11 2.325186742e-11 2.301206199e-11 2.123423579e-11)
5(2.489744684e-11 2.866851474e-11 3.004452385e-11 2.959930607e-11 2.736901181e-11)
5(3.256026845e-11 3.714086436e-11 3.877526868e-11 3.812146176e-11 3.542881349e-11)
5(4.240212235e-11 4.79676256e-11 5.000668152e-11 4.919119901e-11 4.602640633e-11)
5(5.49676094e-11 6.182819345e-11 6.449555096e-11 6.356264461e-11 6.026543993e-11)
5(7.09965856e-11 7.960367563e-11 8.31713709e-11 8.235064475e-11 7.873086196e-11)
5(9.168064162e-11 1.024542653e-10 1.073490678e-10 1.070261862e-10 1.043251118e-10)
5(1.181098494e-10 1.318177006e-10 1.388614233e-10 1.398033453e-10 1.37856436e-10)
5(1.510907147e-10 1.695919145e-10 1.80339136e-10 1.839042888e-10 1.851158509e-10)
5(1.936490917e-10 2.181076813e-10 2.353740644e-10 2.443035203e-10 2.513397049e-10)
5(2.486822921e-10 2.82112643e-10 3.094990812e-10 3.286043497e-10 3.45874993e-10)
5(3.202226015e-10 3.67649603e-10 4.118658076e-10 4.493274386e-10 4.86024956e-10)
5(4.122677114e-10 4.84285007e-10 5.56874147e-10 6.255386377e-10 6.949836932e-10)
5(5.367863535e-10 6.46988803e-10 7.665896182e-10 8.870425975e-10 1.010801943e-09)
5(7.065664128e-10 8.77854785e-10 1.073498816e-09 1.2793989e-09 1.493060062e-09)
5(9.414191779e-10 1.212219142e-09 1.528259152e-09 1.864535253e-09 2.199171878e-09)
5(1.274434933e-09 1.699668531e-09 2.200288431e-09 2.726718913e-09 3.241289055e-09)
5(1.752458198e-09 2.405854767e-09 3.176901774e-09 3.972059775e-09 4.723706002e-09)
5(2.441224977e-09 3.419831067e-09 4.574152293e-09 5.722446791e-09 6.763281951e-09)
5(3.414924844e-09 4.844757019e-09 6.519284279e-09 8.099207816e-09 9.478072153e-09)
5(4.761014256e-09 6.796631644e-09 9.127650557e-09 1.120217735e-08 1.29209458e-08)
5(6.60205789e-09 9.384029534e-09 1.248169223e-08 1.50455193e-08 1.695862285e-08)
5(9.014509265e-09 1.265970829e-08 1.656612828e-08 1.95204229e-08 2.134590538e-08)
5(1.205677394e-08 1.660398655e-08 2.124575375e-08 2.433538752e-08 2.561183501e-08)
5(1.567856366e-08 2.104764469e-08 2.617939541e-08 2.895456704e-08 2.913741946e-08)
5(1.974535062e-08 2.566240241e-08 3.081701355e-08 3.266705118e-08 3.125726597e-08)
5(2.392727535e-08 2.991971613e-08 3.446779875e-08 3.47094131e-08 3.149652345e-08)
5(2.778308654e-08 3.31635952e-08 3.630511789e-08 3.449665413e-08 2.952600725e-08)
5(3.072652239e-08 3.474544627e-08 3.578501574e-08 3.184416519e-08 2.554193741e-08)
5(3.221324667e-08 3.414359074e-08 3.260759085e-08 2.709240753e-08 2.013131995e-08)
5(3.181062922e-08 3.120913498e-08 2.71633144e-08 2.092133445e-08 1.425221052e-08)
5(2.928234277e-08 2.618948342e-08 2.044144416e-08 1.445504682e-08 8.909360435e-09)
5(2.491641643e-08 1.989049342e-08 1.366159514e-08 8.799810837e-09 4.808371137e-09)
5(1.934054239e-08 1.338019899e-08 7.909989035e-09 4.579492939e-09 2.210968965e-09)
5(1.344770468e-08 7.698731443e-09 3.837878249e-09 1.99202399e-09 8.529358373e-10)
5(8.132245494e-09 3.769316166e-09 1.50767544e-09 6.821064683e-10 2.508689414e-10)
5(4.0929762e-09 1.48096753e-09 4.480230101e-10 1.792245224e-10 6.288507556e-11)
5(1.578064163e-09 4.166147447e-10 9.542881676e-11 3.288230162e-11 1.104830255e-11)
5(5.026158096e-10 8.066603046e-11 1.277642127e-11 4.155662557e-12 1.185524549e-12)
5(9.381179966e-11 8.927611512e-12 8.577929897e-13 3.366584799e-13 1.063447577e-13)
5(8.59571663e-12 5.796962003e-13 3.652425988e-14 2.095533265e-14 3.923800034e-15)
5(5.502327423e-13 2.225384214e-12 -1.338974872e-15 1.389478709e-12 3.295337666e-17)
5(6.263951299e-13 2.324884086e-15 4.632267156e-12 6.334675117e-20 1.178845746e-19)
)


60
(
5(2.332768559e-13 2.252661656e-13 4.214926573e-13 4.351858072e-13 5.094863257e-13)
5(2.71698269e-13 3.136718685e-13 4.07956746e-13 4.471102184e-13 4.481589675e-13)
5(3.258891971e-13 4.180182711e-13 4.683641901e-13 5.275383824e-13 4.902757749e-13)
5(4.1446848e-13 5.526297263e-13 6.112158746e-13 6.879810175e-13 6.415590683e-13)
5(5.63890043e-13 7.492788777e-13 8.532414421e-13 9.503136201e-13 9.168368266e-13)
5(7.931616484e-13 1.039888275e-12 1.210730252e-12 1.338127683e-12 1.335004163e-12)
5(1.112463068e-12 1.445994648e-12 1.696208003e-12 1.866202387e-12 1.898303369e-12)
5(1.540123478e-12 2.008470517e-12 2.340901459e-12 2.571649695e-12 2.588992513e-12)
5(2.131651817e-12 2.778530149e-12 3.201014973e-12 3.509352641e-12 3.499186124e-12)
5(2.947033646e-12 3.823913421e-12 4.368146759e-12 4.750509971e-12 4.687647313e-12)
5(4.085970733e-12 5.228014496e-12 5.931058399e-12 6.372624184e-12 6.243464432e-12)
5(5.589881348e-12 7.085831354e-12 7.983302469e-12 8.451815512e-12 8.189445228e-12)
5(7.634561771e-12 9.51341329e-12 1.062567253e-11 1.108152277e-11 1.063047945e-11)
5(1.02822697e-11 1.264641852e-11 1.398374224e-11 1.438244658e-11 1.361720548e-11)
5(1.379639303e-11 1.667806544e-11 1.824281722e-11 1.85239153e-11 1.740722772e-11)
5(1.829844259e-11 2.182627652e-11 2.363386254e-11 2.37250887e-11 2.210952154e-11)
5(2.410807137e-11 2.838645632e-11 3.046200961e-11 3.030113088e-11 2.81956861e-11)
5(3.164062905e-11 3.67422825e-11 3.912297384e-11 3.866246026e-11 3.584719532e-11)
5(4.115379497e-11 4.734577399e-11 5.013170317e-11 4.935445584e-11 4.595751105e-11)
5(5.34867031e-11 6.081440914e-11 6.415584577e-11 6.304128253e-11 5.885314502e-11)
5(6.921300093e-11 7.794358952e-11 8.202262358e-11 8.061103681e-11 7.574320042e-11)
5(8.86887861e-11 9.964526006e-11 1.047967354e-10 1.032087375e-10 9.807480721e-11)
5(1.140578272e-10 1.27199772e-10 1.33964222e-10 1.322851347e-10 1.269611055e-10)
5(1.460170247e-10 1.621145372e-10 1.711816749e-10 1.698832347e-10 1.651117206e-10)
5(1.858776869e-10 2.061776488e-10 2.187019086e-10 2.186366905e-10 2.160201041e-10)
5(2.361680924e-10 2.618545718e-10 2.79666835e-10 2.820835365e-10 2.823112061e-10)
5(2.997985403e-10 3.324279698e-10 3.579644302e-10 3.655826049e-10 3.723485967e-10)
5(3.790259239e-10 4.221252901e-10 4.595399316e-10 4.769074639e-10 4.96212825e-10)
5(4.780888251e-10 5.367167146e-10 5.931625238e-10 6.281607427e-10 6.694784149e-10)
5(6.033345916e-10 6.854892027e-10 7.728342921e-10 8.382820013e-10 9.158072833e-10)
5(7.651083051e-10 8.82492384e-10 1.019232895e-09 1.136571785e-09 1.278730889e-09)
5(9.726199726e-10 1.148397926e-09 1.364343188e-09 1.565631864e-09 1.808057592e-09)
5(1.24558592e-09 1.514433546e-09 1.855509121e-09 2.189924137e-09 2.582987809e-09)
5(1.610630636e-09 2.025084284e-09 2.558641635e-09 3.096217868e-09 3.728415165e-09)
5(2.115619952e-09 2.745118085e-09 3.566128315e-09 4.397780395e-09 5.334191825e-09)
5(2.81451283e-09 3.761589923e-09 4.99631883e-09 6.233498179e-09 7.573261791e-09)
5(3.773693631e-09 5.182194381e-09 6.991470832e-09 8.757614446e-09 1.059311843e-08)
5(5.105727001e-09 7.132572228e-09 9.694678125e-09 1.210235219e-08 1.450390438e-08)
5(6.90194664e-09 9.733143296e-09 1.322757238e-08 1.635950308e-08 1.929768461e-08)
5(9.289006183e-09 1.308769525e-08 1.765716593e-08 2.149688355e-08 2.477032474e-08)
5(1.232782858e-08 1.724635327e-08 2.291333534e-08 2.731003424e-08 3.039563295e-08)
5(1.605406732e-08 2.212328016e-08 2.876511302e-08 3.332615625e-08 3.578375083e-08)
5(2.040393003e-08 2.747774228e-08 3.472842547e-08 3.883396344e-08 3.990754428e-08)
5(2.513543998e-08 3.287669602e-08 4.010328218e-08 4.294627052e-08 4.216714186e-08)
5(2.992667852e-08 3.77105609e-08 4.397463991e-08 4.480103914e-08 4.17862321e-08)
5(3.423382719e-08 4.124987541e-08 4.550718588e-08 4.37909767e-08 3.861123769e-08)
5(3.730527305e-08 4.276732044e-08 4.40486089e-08 3.980761905e-08 3.28710446e-08)
5(3.89857242e-08 4.171358864e-08 3.950604487e-08 3.334144932e-08 2.548604235e-08)
5(3.846171334e-08 3.796849708e-08 3.256553761e-08 2.534847171e-08 1.77308339e-08)
5(3.553103983e-08 3.193538135e-08 2.425060501e-08 1.715311899e-08 1.084311079e-08)
5(3.075930591e-08 2.441964219e-08 1.603537142e-08 1.017232203e-08 5.710841375e-09)
5(2.44200367e-08 1.68630383e-08 9.173416794e-09 5.124273618e-09 2.558196003e-09)
5(1.74372985e-08 9.976505093e-09 4.452525285e-09 2.087484468e-09 9.096737517e-10)
5(1.12319293e-08 5.043180641e-09 1.689967933e-09 6.845231327e-10 2.571917194e-10)