/*--------------------------------*- C++ -*----------------------------------*\
| =========                 |                                                 |
| \\      /  F ield         | OpenFOAM: The Open Source CFD Toolbox           |
|  \\    /   O peration     | Version:  2.3.1                                 |
|   \\  /    A nd           | Web:      www.OpenFOAM.org                      |
|    \\/     M anipulation  |                                                 |
\*---------------------------------------------------------------------------*/
FoamFile
{
    version     2.0;
    format      ascii;
    class       dictionary;
    location    "constant";
    object      CH2O;
}
// * * * * * * * * * * * * * * * * * * * * * * * * * * * * * * * * * * * * * //

CH2O_table
60
(

60
(
5(1.727850308e-08 7.28193523e-09 1.580484385e-08 9.278810096e-09 1.111749527e-08)
5(8.683246539e-09 1.711527435e-09 7.424853593e-09 4.846597022e-09 4.990439721e-09)
5(1.293272985e-08 3.212271929e-09 3.296298861e-09 2.073290011e-09 0)
5(3.40629458e-08 3.76701764e-09 3.482464602e-09 4.686118973e-10 2.103747786e-09)
5(4.840837575e-08 3.463861446e-09 3.80440257e-09 2.056183367e-09 1.452715998e-09)
5(4.724196057e-08 3.127544599e-09 1.70303111e-09 2.308765824e-09 1.258563263e-09)
5(4.903592787e-09 2.908539597e-09 2.293205122e-09 1.653096162e-09 2.513036612e-09)
5(2.762445387e-09 3.006343047e-09 3.502855956e-09 2.041538222e-09 8.370421353e-10)
5(6.011670445e-08 3.333503959e-09 3.137559516e-09 2.188097317e-09 1.404413989e-09)
5(9.231546249e-08 4.120245911e-09 4.039907472e-09 2.098239129e-09 1.585874536e-09)
5(1.020806886e-07 4.613804422e-09 4.162879777e-09 2.318815109e-09 1.710552307e-09)
5(4.184243159e-08 4.276021545e-09 3.820421781e-09 2.468534665e-09 1.66115885e-09)
5(4.689928414e-09 4.695000117e-09 3.92165911e-09 2.916449245e-09 1.916910994e-09)
5(5.847546918e-09 5.201477108e-09 4.348785494e-09 2.772124678e-09 1.910725087e-09)
5(5.668838316e-09 5.405480356e-09 4.488518916e-09 3.238493427e-09 2.023418101e-09)
5(1.065893152e-08 7.266999499e-09 5.450943993e-09 3.744485066e-09 2.277151629e-09)
5(1.121209235e-08 7.689113703e-09 6.193356402e-09 4.083992334e-09 2.636527084e-09)
5(9.532465735e-09 8.173693274e-09 6.375624777e-09 4.691366172e-09 3.008952216e-09)
5(8.715399062e-09 8.755967478e-09 7.184702751e-09 5.263947625e-09 3.576498592e-09)
5(1.028051022e-08 1.01544795e-08 8.54943533e-09 6.563821104e-09 4.033457229e-09)
5(1.159292694e-08 1.133455e-08 9.493460953e-09 7.516000561e-09 4.527046816e-09)
5(1.350728552e-08 1.319112352e-08 1.163837395e-08 7.707810653e-09 4.861455183e-09)
5(1.653436732e-08 1.61039771e-08 1.377232203e-08 1.0381175e-08 6.599912815e-09)
5(1.943060645e-08 2.05995226e-08 1.687789271e-08 1.293364172e-08 8.12975319e-09)
5(2.460587203e-08 2.732986932e-08 2.169114964e-08 1.731883221e-08 1.091267262e-08)
5(3.07017623e-08 3.732165101e-08 2.945073216e-08 2.40521826e-08 1.437493673e-08)
5(3.913047562e-08 4.558328731e-08 3.701943204e-08 3.284100686e-08 1.955930023e-08)
5(5.029125131e-08 5.54459856e-08 5.106693562e-08 4.493541984e-08 2.659443569e-08)
5(6.94916912e-08 7.620084918e-08 6.757519995e-08 6.000610463e-08 3.708119664e-08)
5(9.386371239e-08 1.065026918e-07 9.144722999e-08 7.781514693e-08 4.938143598e-08)
5(1.308134561e-07 1.483319935e-07 1.296493327e-07 1.104706255e-07 6.801287581e-08)
5(1.791976403e-07 1.993000845e-07 1.699071146e-07 1.372591469e-07 7.516386521e-08)
5(2.433280535e-07 2.725995163e-07 2.325218432e-07 1.807889571e-07 1.150932809e-07)
5(3.333736545e-07 3.698353587e-07 3.179562997e-07 2.2531935e-07 1.144745858e-07)
5(4.50308585e-07 4.768956948e-07 4.006724717e-07 2.757744034e-07 1.324508466e-07)
5(5.922248558e-07 6.308680646e-07 5.444994235e-07 3.293195612e-07 1.48410291e-07)
5(7.603530577e-07 7.281986736e-07 5.538631104e-07 3.317254122e-07 1.539703526e-07)
5(9.437202108e-07 8.951565201e-07 6.258108458e-07 3.61909644e-07 7.464984187e-08)
5(1.146481704e-06 9.995960654e-07 7.01178153e-07 3.276481113e-07 1.199298503e-07)
5(1.372702687e-06 1.086639729e-06 7.561660984e-07 3.015242128e-07 6.071620753e-10)
5(1.501500715e-06 1.043956442e-06 6.173069697e-07 2.256875943e-07 9.272404512e-10)
5(1.520245682e-06 9.683028144e-07 4.956282611e-07 1.371164115e-07 2.47315415e-16)
5(1.474859028e-06 7.7117308e-07 3.275251321e-07 2.18575679e-16 4.737533036e-16)
5(1.344948213e-06 6.355095079e-07 3.533681926e-07 4.187781711e-16 4.389928929e-09)
5(1.128066694e-06 4.179239731e-07 1.835663444e-07 7.563676611e-16 3.894895311e-10)
5(7.962985969e-07 2.684752714e-07 5.310314132e-08 1.400192183e-15 2.950472057e-15)
5(5.04967013e-07 1.236123407e-07 1.454145177e-08 8.41417966e-10 5.217496143e-15)
5(3.38234553e-07 2.023007479e-08 3.117745536e-09 4.367744337e-15 9.10593535e-15)
5(1.324186058e-07 8.330547537e-09 3.416243258e-10 7.48504326e-15 1.5581206e-14)
5(4.940489542e-08 1.577753156e-10 5.221841302e-15 1.256379467e-14 2.605015279e-14)
5(1.758677264e-08 3.752288077e-15 8.750344038e-15 2.086700177e-14 4.288935236e-14)
5(3.342497174e-09 6.236289828e-15 1.443409333e-14 3.395770787e-14 6.929283786e-14)
5(2.897777077e-11 1.02076851e-14 2.34065989e-14 5.4375274e-14 1.1008695e-13)
5(6.352468114e-15 1.634816545e-14 3.745825555e-14 8.555100862e-14 1.727821108e-13)
5(1.022145447e-14 2.582562987e-14 5.897758559e-14 1.329264838e-13 2.663363895e-13)
5(2.123059083e-14 4.02755544e-14 9.163620989e-14 2.025690371e-13 4.038003698e-13)
5(4.533875591e-14 6.231221048e-14 1.407665169e-13 3.043767739e-13 5.959584045e-13)
5(6.945660502e-14 1.110002469e-13 2.148957372e-13 4.489638378e-13 8.616174057e-13)
5(9.232584798e-14 1.780724042e-13 3.569010191e-13 5.439510681e-13 1.218593023e-12)
5(1.177380131e-13 2.731539242e-13 6.067945455e-13 1.36047162e-12 2.357073785e-12)
)


60
(
5(3.430272578e-08 2.038142656e-08 2.903732707e-08 1.945965625e-08 1.897198171e-08)
5(2.684830474e-08 2.099404011e-08 2.120872972e-08 1.651493066e-08 1.361313551e-08)
5(2.394169686e-08 2.170104474e-08 1.844995187e-08 1.552279467e-08 1.152388736e-08)
5(2.401132039e-08 2.26617971e-08 1.858908739e-08 1.577117689e-08 1.143309745e-08)
5(2.621136035e-08 2.398149123e-08 2.033845634e-08 1.673131045e-08 1.247117577e-08)
5(2.895405325e-08 2.543345742e-08 2.22183343e-08 1.787944205e-08 1.376247589e-08)
5(3.104505868e-08 2.676070871e-08 2.351595964e-08 1.877682421e-08 1.463363467e-08)
5(3.252418806e-08 2.812237074e-08 2.442431778e-08 1.961455005e-08 1.523490187e-08)
5(3.39567362e-08 2.966391441e-08 2.536983087e-08 2.058822291e-08 1.589576417e-08)
5(3.561339965e-08 3.142299683e-08 2.670857592e-08 2.182863098e-08 1.689516348e-08)
5(3.801225247e-08 3.345469197e-08 2.848945735e-08 2.337363086e-08 1.819892071e-08)
5(4.052496611e-08 3.584777101e-08 3.062752421e-08 2.522685262e-08 1.97872321e-08)
5(4.347326201e-08 3.856660386e-08 3.309266384e-08 2.740171812e-08 2.165653829e-08)
5(4.677220852e-08 4.171829423e-08 3.592145925e-08 2.991035829e-08 2.379585717e-08)
5(5.052728457e-08 4.539970682e-08 3.921434638e-08 3.289398799e-08 2.633489994e-08)
5(5.479242842e-08 4.966584903e-08 4.3088079e-08 3.64520059e-08 2.940692244e-08)
5(6.001007247e-08 5.472029014e-08 4.772803444e-08 4.07488041e-08 3.315252116e-08)
5(6.605902265e-08 6.078395982e-08 5.334388189e-08 4.599097221e-08 3.766158179e-08)
5(7.320905506e-08 6.812706889e-08 6.017806489e-08 5.242323621e-08 4.322587716e-08)
5(8.177263511e-08 7.698635388e-08 6.851274545e-08 6.037931811e-08 5.010164215e-08)
5(9.215381616e-08 8.787798598e-08 7.887431408e-08 7.035548976e-08 5.884633588e-08)
5(1.04858159e-07 1.013439444e-07 9.190234698e-08 8.295953927e-08 6.990302261e-08)
5(1.203408836e-07 1.183621965e-07 1.084281631e-07 9.922986979e-08 8.435820106e-08)
5(1.395408508e-07 1.40158012e-07 1.299432864e-07 1.20747669e-07 1.034531662e-07)
5(1.643776722e-07 1.683467e-07 1.581384054e-07 1.493346414e-07 1.292906126e-07)
5(1.96023317e-07 2.05615826e-07 1.957599525e-07 1.881294962e-07 1.645903068e-07)
5(2.377635457e-07 2.553168644e-07 2.468168947e-07 2.41093993e-07 2.129193793e-07)
5(2.931876808e-07 3.224683273e-07 3.164048811e-07 3.134668823e-07 2.786743064e-07)
5(3.680786403e-07 4.136036603e-07 4.115873448e-07 4.122882816e-07 3.692081554e-07)
5(4.688959865e-07 5.372131972e-07 5.412181916e-07 5.460888674e-07 4.91176483e-07)
5(6.066741121e-07 7.043145748e-07 7.169009018e-07 7.253222204e-07 6.528081768e-07)
5(7.923079672e-07 9.281036784e-07 9.495731582e-07 9.596993368e-07 8.619140701e-07)
5(1.039965694e-06 1.220724015e-06 1.253145696e-06 1.258819503e-06 1.125322233e-06)
5(1.36574066e-06 1.597638751e-06 1.637949906e-06 1.62885177e-06 1.439753967e-06)
5(1.786065929e-06 2.07125593e-06 2.112543442e-06 2.066387413e-06 1.801619475e-06)
5(2.314602141e-06 2.642456566e-06 2.671582599e-06 2.560020895e-06 2.190113361e-06)
5(2.956065973e-06 3.305941558e-06 3.297989593e-06 3.081078969e-06 2.576668122e-06)
5(3.703300537e-06 4.039198299e-06 3.955461703e-06 3.586432828e-06 2.917912986e-06)
5(4.530532066e-06 4.787776391e-06 4.583832182e-06 4.013443935e-06 3.146388055e-06)
5(5.386064331e-06 5.497531219e-06 5.108110355e-06 4.290429202e-06 3.192807422e-06)
5(6.191687933e-06 6.05992313e-06 5.432565519e-06 4.349812259e-06 3.013404384e-06)
5(6.835810022e-06 6.399834642e-06 5.497412607e-06 4.139218815e-06 2.623008314e-06)
5(7.228757274e-06 6.412172806e-06 5.241907422e-06 3.650193181e-06 2.087965696e-06)
5(7.25727969e-06 6.045164381e-06 4.672929744e-06 2.946155635e-06 1.506149695e-06)
5(6.854640537e-06 5.337249629e-06 3.842864578e-06 2.146835876e-06 9.681094757e-07)
5(6.038237953e-06 4.35557478e-06 2.870735945e-06 1.393711625e-06 5.436070967e-07)
5(4.910654161e-06 3.24575539e-06 1.905920685e-06 7.974552991e-07 2.616559783e-07)
5(3.626358296e-06 2.166752285e-06 1.104751518e-06 3.943717898e-07 1.0680779e-07)
5(2.400023056e-06 1.267539622e-06 5.466578596e-07 1.651684172e-07 3.707132685e-08)
5(1.376149536e-06 6.287229125e-07 2.284436155e-07 5.717131845e-08 1.12194989e-08)
5(6.716634834e-07 2.568519381e-07 7.70712947e-08 1.689216247e-08 2.951868256e-09)
5(2.594248622e-07 8.382857313e-08 2.130479423e-08 4.250359309e-09 6.918491061e-10)
5(8.143792757e-08 2.152475501e-08 4.890940077e-09 9.195925459e-10 1.437809887e-10)
5(1.752960701e-08 4.005686795e-09 8.539027375e-10 1.679104051e-10 2.788578164e-11)
5(2.609582226e-09 5.976605094e-10 1.20810799e-10 2.606720605e-11 5.678035546e-12)
5(2.286217906e-10 5.365383258e-11 1.408271946e-11 4.232343361e-12 2.469162722e-12)
5(1.380867865e-11 4.865188381e-12 2.051921563e-12 1.87538418e-12 2.359240315e-12)
5(1.133846137e-12 1.146474657e-12 1.395546122e-12 1.902137122e-12 2.759918698e-12)
5(6.641679497e-13 9.658340995e-13 1.457586239e-12 2.130694463e-12 3.335508242e-12)
5(5.376789478e-13 9.316297932e-13 9.057478672e-11 2.490853788e-12 4.080553092e-12)
)


60
(
5(5.826007935e-08 3.656345749e-08 4.685907404e-08 3.219694526e-08 2.886668003e-08)
5(5.309806213e-08 4.092288958e-08 3.834358488e-08 2.938025968e-08 2.289598522e-08)
5(5.162605231e-08 4.413103956e-08 3.604651678e-08 2.888235585e-08 2.090926098e-08)
5(5.370158206e-08 4.690022152e-08 3.73928167e-08 2.989804821e-08 2.134666526e-08)
5(5.849404066e-08 5.002183557e-08 4.070568714e-08 3.185412912e-08 2.310662525e-08)
5(6.453928228e-08 5.345570566e-08 4.433889542e-08 3.410665539e-08 2.53461862e-08)
5(6.951397994e-08 5.676552041e-08 4.71797629e-08 3.610072679e-08 2.71305753e-08)
5(7.347994585e-08 6.009415664e-08 4.953128671e-08 3.810596509e-08 2.867698058e-08)
5(7.718123561e-08 6.369422792e-08 5.200752209e-08 4.03827496e-08 3.044377678e-08)
5(8.182163546e-08 6.782546717e-08 5.52294657e-08 4.320862764e-08 3.269513682e-08)
5(8.742061669e-08 7.261635165e-08 5.920196212e-08 4.663220099e-08 3.561824026e-08)
5(9.380730605e-08 7.810452813e-08 6.395626093e-08 5.070780899e-08 3.915031243e-08)
5(1.006027322e-07 8.418529977e-08 6.939610074e-08 5.539407464e-08 4.322100745e-08)
5(1.083583173e-07 9.114278245e-08 7.558000074e-08 6.082649551e-08 4.788489352e-08)
5(1.17050149e-07 9.918977283e-08 8.26990516e-08 6.713868351e-08 5.337929119e-08)
5(1.273955054e-07 1.085354408e-07 9.104753213e-08 7.454678782e-08 5.980545901e-08)
5(1.386159842e-07 1.193707942e-07 1.007501946e-07 8.316899239e-08 6.734355774e-08)
5(1.518725368e-07 1.319539833e-07 1.121293103e-07 9.333887558e-08 7.632755882e-08)
5(1.673211355e-07 1.4651553e-07 1.25411462e-07 1.054399629e-07 8.695189896e-08)
5(1.851302921e-07 1.636095872e-07 1.411668219e-07 1.198167554e-07 9.957116914e-08)
5(2.06342394e-07 1.835561288e-07 1.598139117e-07 1.370761284e-07 1.147470495e-07)
5(2.301836367e-07 2.071305234e-07 1.821715606e-07 1.580389532e-07 1.337455974e-07)
5(2.585419146e-07 2.353841456e-07 2.08963864e-07 1.836575472e-07 1.570732478e-07)
5(2.921195962e-07 2.695433185e-07 2.419945787e-07 2.159548742e-07 1.868238078e-07)
5(3.324230306e-07 3.114988261e-07 2.834734017e-07 2.573468697e-07 2.254741699e-07)
5(3.806894637e-07 3.6402385e-07 3.366822906e-07 3.117631001e-07 2.767016662e-07)
5(4.406753974e-07 4.310072061e-07 4.059000454e-07 3.831548462e-07 3.451963397e-07)
5(5.168064629e-07 5.172125349e-07 4.964013006e-07 4.788576835e-07 4.371027857e-07)
5(6.125754372e-07 6.309094942e-07 6.177122332e-07 6.073307484e-07 5.619816909e-07)
5(7.388049722e-07 7.811349079e-07 7.805321808e-07 7.801026785e-07 7.305487233e-07)
5(9.034392029e-07 9.806881663e-07 9.976119017e-07 1.010342704e-06 9.514543275e-07)
5(1.121576738e-06 1.246039509e-06 1.28557474e-06 1.313413885e-06 1.24199161e-06)
5(1.409643342e-06 1.593314753e-06 1.662507712e-06 1.70473433e-06 1.609123757e-06)
5(1.787130281e-06 2.041556513e-06 2.145442082e-06 2.192559539e-06 2.063924039e-06)
5(2.271917329e-06 2.608635764e-06 2.746997754e-06 2.786098482e-06 2.599152812e-06)
5(2.884988635e-06 3.306079552e-06 3.470869609e-06 3.479623985e-06 3.206498563e-06)
5(3.643305593e-06 4.132541845e-06 4.307569828e-06 4.248613385e-06 3.853504699e-06)
5(4.530524109e-06 5.074228483e-06 5.222808629e-06 5.047634928e-06 4.485122832e-06)
5(5.549281417e-06 6.09178216e-06 6.155353806e-06 5.805927214e-06 5.018920317e-06)
5(6.63747448e-06 7.10803929e-06 7.0260718e-06 6.431620153e-06 5.362479958e-06)
5(7.719414562e-06 8.025273299e-06 7.721727815e-06 6.819556794e-06 5.423170136e-06)
5(8.700106097e-06 8.729550583e-06 8.120372812e-06 6.870524893e-06 5.1605115e-06)
5(9.435635023e-06 9.084241548e-06 8.122949843e-06 6.519616522e-06 4.590306457e-06)
5(9.781432615e-06 8.991131509e-06 7.678947977e-06 5.773705782e-06 3.779825929e-06)
5(9.649126284e-06 8.396465908e-06 6.786776138e-06 4.726335316e-06 2.854529665e-06)
5(8.973686374e-06 7.336607715e-06 5.5446051e-06 3.538836093e-06 1.942535316e-06)
5(7.790397204e-06 5.942814807e-06 4.123091468e-06 2.388048756e-06 1.177021915e-06)
5(6.250511069e-06 4.38674174e-06 2.75126163e-06 1.432458904e-06 6.212682762e-07)
5(4.564089875e-06 2.901717184e-06 1.613338679e-06 7.517275793e-07 2.820865576e-07)
5(2.969933504e-06 1.680455382e-06 8.168102218e-07 3.336606733e-07 1.083893346e-07)
5(1.682584481e-06 8.258580673e-07 3.466157288e-07 1.254206676e-07 3.457534147e-08)
5(7.90857044e-07 3.313182981e-07 1.184559197e-07 3.783108689e-08 9.54828125e-09)
5(2.943355421e-07 1.046019622e-07 3.198291364e-08 9.314628254e-09 2.192841514e-09)
5(7.973730978e-08 2.446873905e-08 6.310148262e-09 1.739772303e-09 4.142404475e-10)
5(1.534158392e-08 4.032043458e-09 9.461933694e-10 2.73077135e-10 7.105731733e-11)
5(1.71702875e-09 4.437181504e-10 9.597200563e-11 3.450500714e-11 1.25204434e-11)
5(1.143286751e-10 2.616077243e-11 9.979762063e-12 6.352221253e-12 5.898507233e-12)
5(4.781062176e-12 2.610664135e-12 3.912043711e-12 3.902759868e-12 5.884945668e-12)
5(2.273668767e-12 -2.49970339e-10 3.736897096e-12 -1.358131086e-10 6.517384391e-12)
5(1.841031713e-12 2.568750845e-12 1.996876403e-10 4.997091734e-12 7.276847536e-12)
)


60
(
5(9.026933441e-08 5.866377058e-08 7.033914662e-08 4.91931439e-08 4.166925988e-08)
5(9.061160198e-08 6.950023096e-08 6.215872293e-08 4.694328337e-08 3.512340796e-08)
5(9.302644567e-08 7.700733658e-08 6.109544634e-08 4.741081275e-08 3.333422506e-08)
5(9.84006158e-08 8.278467304e-08 6.449045534e-08 4.974382532e-08 3.454323002e-08)
5(1.076662594e-07 8.884673813e-08 7.043527726e-08 5.330412512e-08 3.763661876e-08)
5(1.186558202e-07 9.545862907e-08 7.672273614e-08 5.730167164e-08 4.143532872e-08)
5(1.280112324e-07 1.017597645e-07 8.19992297e-08 6.115828405e-08 4.474069856e-08)
5(1.358355628e-07 1.0829849e-07 8.674646897e-08 6.511760832e-08 4.779409884e-08)
5(1.43935093e-07 1.154226152e-07 9.180148122e-08 6.956244253e-08 5.130184781e-08)
5(1.532606316e-07 1.233891033e-07 9.809242419e-08 7.496310844e-08 5.571322342e-08)
5(1.638543566e-07 1.325453995e-07 1.057529666e-07 8.149943281e-08 6.126833319e-08)
5(1.761371663e-07 1.429187907e-07 1.148342008e-07 8.918667006e-08 6.778524386e-08)
5(1.898179985e-07 1.54705655e-07 1.252400466e-07 9.796325765e-08 7.53354413e-08)
5(2.045787576e-07 1.681019896e-07 1.369654163e-07 1.080359977e-07 8.408833485e-08)
5(2.211825928e-07 1.833890088e-07 1.503207549e-07 1.196888206e-07 9.389452723e-08)
5(2.403282322e-07 2.006128103e-07 1.656406595e-07 1.330996208e-07 1.054039916e-07)
5(2.625700235e-07 2.20489365e-07 1.834198512e-07 1.484715067e-07 1.18638422e-07)
5(2.869629092e-07 2.434042822e-07 2.040240988e-07 1.66349618e-07 1.33898097e-07)
5(3.160894244e-07 2.692848476e-07 2.273641849e-07 1.869703971e-07 1.517573671e-07)
5(3.478568957e-07 2.990481451e-07 2.543248016e-07 2.106691241e-07 1.721292851e-07)
5(3.847053286e-07 3.332497108e-07 2.848844169e-07 2.377964901e-07 1.959488877e-07)
5(4.278943056e-07 3.71542994e-07 3.201028164e-07 2.69611348e-07 2.247644809e-07)
5(4.757919774e-07 4.158725013e-07 3.612490437e-07 3.067062798e-07 2.582813105e-07)
5(5.275979597e-07 4.672167534e-07 4.097149432e-07 3.511698861e-07 2.99584249e-07)
5(5.892838809e-07 5.270287268e-07 4.662943275e-07 4.057791547e-07 3.501085632e-07)
5(6.598296003e-07 5.969341583e-07 5.350951426e-07 4.738624414e-07 4.152496101e-07)
5(7.419073257e-07 6.810119212e-07 6.206658734e-07 5.605985069e-07 4.998319865e-07)
5(8.389800194e-07 7.84577405e-07 7.284780685e-07 6.726580807e-07 6.100848504e-07)
5(9.561412894e-07 9.148128939e-07 8.672232615e-07 8.197711843e-07 7.567633709e-07)
5(1.100438419e-06 1.08102736e-06 1.048527988e-06 1.013583127e-06 9.511375106e-07)
5(1.282126648e-06 1.295744856e-06 1.287044992e-06 1.27013021e-06 1.209499412e-06)
5(1.514894498e-06 1.575844186e-06 1.600229596e-06 1.606728075e-06 1.546351095e-06)
5(1.814228767e-06 1.938878561e-06 2.007400307e-06 2.043138838e-06 1.978555998e-06)
5(2.200724981e-06 2.408282774e-06 2.530471405e-06 2.593151889e-06 2.516025773e-06)
5(2.696289433e-06 3.004668375e-06 3.188795823e-06 3.273467389e-06 3.170229999e-06)
5(3.321202369e-06 3.744804283e-06 3.991762532e-06 4.085965952e-06 3.924583036e-06)
5(4.096087452e-06 4.63470229e-06 4.94157489e-06 5.013081492e-06 4.764282116e-06)
5(5.032360676e-06 5.67471704e-06 6.010642412e-06 6.019540499e-06 5.634558429e-06)
5(6.115179879e-06 6.829032944e-06 7.153577758e-06 7.03707656e-06 6.452267983e-06)
5(7.31226112e-06 8.039779357e-06 8.286259989e-06 7.967973399e-06 7.102152768e-06)
5(8.568148238e-06 9.220609859e-06 9.288836061e-06 8.693767685e-06 7.469872201e-06)
5(9.76829776e-06 1.02379084e-05 1.002886262e-05 9.07804528e-06 7.479188711e-06)
5(1.080288931e-05 1.094788031e-05 1.036900348e-05 9.010641787e-06 7.062739621e-06)
5(1.150889121e-05 1.121001125e-05 1.019981151e-05 8.434031065e-06 6.264895839e-06)
5(1.175756537e-05 1.092206043e-05 9.465755838e-06 7.39062507e-06 5.16436135e-06)
5(1.143076613e-05 1.004707371e-05 8.209751459e-06 6.00480808e-06 3.903053771e-06)
5(1.049652784e-05 8.650661277e-06 6.57403996e-06 4.479848604e-06 2.676268129e-06)
5(9.037203786e-06 6.896134459e-06 4.806804255e-06 3.017387336e-06 1.631308057e-06)
5(7.199503876e-06 5.007726124e-06 3.146532361e-06 1.804153614e-06 8.754480106e-07)
5(5.234833343e-06 3.250933152e-06 1.798402609e-06 9.333228862e-07 4.022569048e-07)
5(3.411325594e-06 1.836715993e-06 8.851015019e-07 4.145030289e-07 1.554603637e-07)
5(1.926988799e-06 8.656252583e-07 3.619898695e-07 1.488807157e-07 4.882722878e-08)
5(8.950132405e-07 3.319487983e-07 1.168867832e-07 4.326864815e-08 1.27504174e-08)
5(3.246488767e-07 9.667245258e-08 2.773859629e-08 9.647227894e-09 2.641084822e-09)
5(8.866713063e-08 1.968722651e-08 4.525566285e-09 1.54505189e-09 4.274165955e-10)
5(1.428554861e-08 2.45254204e-09 5.128526604e-10 1.777578983e-10 6.212901306e-11)
5(9.840921167e-10 2.106322815e-10 3.625035252e-11 2.050251113e-11 1.334809813e-11)
5(7.003117133e-11 1.82549754e-11 8.16665587e-12 1.356260535e-11 1.039691056e-11)
5(5.584646377e-12 1.378406562e-09 -5.761262217e-12 1.160821507e-09 1.089736045e-11)
5(4.023928944e-12 5.738760861e-10 0 1.321729366e-11 1.162350248e-11)
)


60
(
5(1.309239302e-07 8.76105642e-08 9.99120056e-08 7.110929396e-08 5.791971307e-08)
5(1.406125431e-07 1.077877791e-07 9.346269141e-08 7.019317187e-08 5.117906428e-08)
5(1.494169235e-07 1.214992641e-07 9.481571467e-08 7.229781292e-08 4.997058284e-08)
5(1.599630549e-07 1.316593558e-07 1.013202545e-07 7.663368237e-08 5.244215145e-08)
5(1.751209342e-07 1.418200335e-07 1.108108753e-07 8.250958358e-08 5.741554216e-08)
5(1.92575591e-07 1.527667804e-07 1.206957907e-07 8.905774746e-08 6.344396174e-08)
5(2.080628659e-07 1.634413856e-07 1.294855842e-07 9.555510322e-08 6.901952431e-08)
5(2.215908824e-07 1.745676964e-07 1.378007879e-07 1.023663644e-07 7.43404374e-08)
5(2.35404203e-07 1.865717117e-07 1.466952747e-07 1.101169339e-07 8.049431249e-08)
5(2.51280493e-07 2.001766834e-07 1.575044239e-07 1.193659055e-07 8.80640946e-08)
5(2.691745467e-07 2.155437287e-07 1.705027423e-07 1.303981139e-07 9.746165603e-08)
5(2.898020706e-07 2.331104581e-07 1.858020698e-07 1.432358244e-07 1.083883855e-07)
5(3.123632764e-07 2.530375829e-07 2.032078888e-07 1.580702017e-07 1.210771141e-07)
5(3.384447937e-07 2.754201752e-07 2.230809457e-07 1.749931043e-07 1.3529778e-07)
5(3.660467269e-07 3.009176439e-07 2.45609721e-07 1.943784729e-07 1.518038792e-07)
5(3.977321341e-07 3.29716732e-07 2.715123124e-07 2.165459277e-07 1.706239995e-07)
5(4.346319843e-07 3.62707485e-07 3.007485558e-07 2.418437231e-07 1.920566685e-07)
5(4.758287229e-07 4.001121933e-07 3.339562267e-07 2.706584147e-07 2.162889913e-07)
5(5.225745413e-07 4.422146442e-07 3.717182334e-07 3.028834658e-07 2.439438909e-07)
5(5.754889009e-07 4.900483424e-07 4.142704531e-07 3.394975318e-07 2.754482779e-07)
5(6.348898364e-07 5.434371489e-07 4.619595335e-07 3.809079519e-07 3.110607974e-07)
5(7.006880615e-07 6.029767039e-07 5.157213084e-07 4.274758331e-07 3.525293629e-07)
5(7.745965488e-07 6.6969385e-07 5.759391263e-07 4.805581102e-07 3.992223481e-07)
5(8.569278777e-07 7.4441901e-07 6.436841331e-07 5.414025373e-07 4.550483256e-07)
5(9.475118668e-07 8.281940786e-07 7.208557292e-07 6.123908068e-07 5.199644484e-07)
5(1.046919592e-06 9.22978913e-07 8.105576909e-07 6.968503923e-07 6.00421432e-07)
5(1.15748023e-06 1.028395932e-06 9.158138744e-07 7.996350801e-07 6.996679164e-07)
5(1.283424893e-06 1.152929812e-06 1.041474828e-06 9.267553608e-07 8.252289553e-07)
5(1.426702506e-06 1.30133251e-06 1.195875057e-06 1.087893775e-06 9.88161206e-07)
5(1.592616138e-06 1.481600562e-06 1.390355549e-06 1.29473209e-06 1.200214081e-06)
5(1.79039282e-06 1.705564655e-06 1.639161183e-06 1.562754059e-06 1.477515534e-06)
5(2.030824868e-06 1.987099119e-06 1.958005291e-06 1.912670034e-06 1.840626853e-06)
5(2.329302661e-06 2.347213852e-06 2.370421445e-06 2.363605351e-06 2.30128352e-06)
5(2.705364633e-06 2.808765469e-06 2.900055332e-06 2.936700786e-06 2.884673011e-06)
5(3.181994712e-06 3.39133452e-06 3.56515938e-06 3.64982665e-06 3.599640179e-06)
5(3.783572639e-06 4.119537045e-06 4.388182128e-06 4.513789826e-06 4.448175955e-06)
5(4.527711371e-06 5.007281121e-06 5.37833538e-06 5.524799116e-06 5.418387509e-06)
5(5.429513253e-06 6.060843757e-06 6.521968457e-06 6.660463536e-06 6.467629593e-06)
5(6.499380839e-06 7.268485932e-06 7.78476453e-06 7.861396951e-06 7.519239957e-06)
5(7.716184247e-06 8.581244142e-06 9.091962592e-06 9.039147352e-06 8.457754236e-06)
5(9.035764006e-06 9.92689463e-06 1.034501547e-05 1.007427481e-05 9.151794261e-06)
5(1.037938074e-05 1.118832144e-05 1.14035778e-05 1.081176363e-05 9.494415549e-06)
5(1.163909982e-05 1.222972098e-05 1.210732185e-05 1.110489916e-05 9.37324597e-06)
5(1.266945779e-05 1.288955523e-05 1.231737813e-05 1.084891433e-05 8.765781131e-06)
5(1.332138205e-05 1.302115425e-05 1.190062939e-05 1.000460497e-05 7.695354641e-06)
5(1.345714315e-05 1.253890948e-05 1.086709899e-05 8.647980475e-06 6.284829138e-06)
5(1.299866077e-05 1.141830375e-05 9.261772509e-06 6.943029512e-06 4.717316042e-06)
5(1.19221331e-05 9.757309144e-06 7.285227463e-06 5.110148354e-06 3.2087609e-06)
5(1.028220147e-05 7.723531202e-06 5.224047095e-06 3.390761452e-06 1.943613246e-06)
5(8.264034062e-06 5.580384441e-06 3.354047134e-06 1.99858794e-06 1.025419703e-06)
5(6.103478025e-06 3.602261904e-06 1.881928919e-06 1.015764433e-06 4.638501736e-07)
5(4.067571383e-06 2.011766579e-06 8.925813324e-07 4.349240441e-07 1.775633793e-07)
5(2.379443883e-06 9.596147224e-07 3.45292691e-07 1.478747728e-07 5.171402293e-08)
5(1.166642885e-06 3.69849394e-07 1.019030589e-07 3.880048334e-08 1.290574344e-08)
5(4.431348228e-07 1.031617862e-07 2.17279622e-08 7.123231649e-09 2.251276272e-09)
5(1.390142963e-07 1.989038559e-08 2.923689062e-09 9.065969465e-10 2.480472512e-10)
5(2.609823259e-08 2.203457723e-09 2.063146112e-10 8.474677918e-11 3.590889581e-11)
5(2.438793345e-09 1.491712691e-10 2.008880566e-11 1.892825149e-11 1.683143021e-11)
5(1.671624478e-10 9.059796779e-10 1.129661289e-11 5.055665977e-10 1.663335591e-11)
5(2.008015582e-10 9.306370054e-12 9.46097058e-10 1.315429054e-11 1.684434544e-11)
)


60
(
5(1.80325084e-07 1.237515007e-07 1.358621681e-07 9.847961733e-08 7.802335363e-08)
5(2.034964688e-07 1.563397649e-07 1.327749952e-07 9.974341178e-08 7.167198573e-08)
5(2.211852723e-07 1.783047736e-07 1.378722818e-07 1.042648067e-07 7.154345677e-08)
5(2.387036657e-07 1.940610235e-07 1.485843577e-07 1.113482793e-07 7.59725728e-08)
5(2.616152994e-07 2.094791554e-07 1.625738349e-07 1.203246574e-07 8.35072409e-08)
5(2.873646705e-07 2.261644325e-07 1.770785961e-07 1.303262457e-07 9.246756385e-08)
5(3.10251886e-07 2.425239302e-07 1.905731898e-07 1.40431936e-07 1.01173929e-07)
5(3.312505021e-07 2.596146929e-07 2.036487106e-07 1.511974342e-07 1.096588284e-07)
5(3.528321767e-07 2.782627346e-07 2.17858137e-07 1.634599211e-07 1.19500233e-07)
5(3.772234993e-07 2.990926069e-07 2.348031442e-07 1.779858036e-07 1.314610349e-07)
5(4.050407604e-07 3.229126755e-07 2.550933149e-07 1.951876088e-07 1.461226153e-07)
5(4.359285921e-07 3.498277708e-07 2.787076212e-07 2.151908518e-07 1.630777409e-07)
5(4.710783272e-07 3.804278189e-07 3.057731794e-07 2.381918397e-07 1.827137727e-07)
5(5.094073448e-07 4.14925528e-07 3.363734662e-07 2.644302625e-07 2.047081303e-07)
5(5.534675969e-07 4.541899685e-07 3.712580438e-07 2.943603239e-07 2.301782586e-07)
5(6.025245153e-07 4.98629809e-07 4.108923074e-07 3.282124949e-07 2.586260966e-07)
5(6.580586508e-07 5.488008049e-07 4.557878493e-07 3.666694712e-07 2.915098325e-07)
5(7.214462533e-07 6.057792085e-07 5.065561661e-07 4.099523885e-07 3.27898986e-07)
5(7.915464421e-07 6.69483742e-07 5.634211653e-07 4.587502352e-07 3.694982104e-07)
5(8.718788439e-07 7.407240749e-07 6.270797851e-07 5.130869572e-07 4.155173008e-07)
5(9.609524361e-07 8.201738323e-07 6.976055647e-07 5.733852063e-07 4.66982557e-07)
5(1.057734574e-06 9.074826568e-07 7.752205777e-07 6.402986599e-07 5.254313643e-07)
5(1.167319162e-06 1.003728164e-06 8.614535081e-07 7.142606624e-07 5.902391453e-07)
5(1.286204161e-06 1.109183348e-06 9.560605575e-07 7.969638604e-07 6.640499975e-07)
5(1.41349322e-06 1.223664027e-06 1.060194726e-06 8.901877778e-07 7.492378285e-07)
5(1.552752335e-06 1.348586409e-06 1.176678231e-06 9.960787903e-07 8.472824567e-07)
5(1.704178811e-06 1.486819553e-06 1.307288693e-06 1.11904286e-06 9.645746003e-07)
5(1.866252014e-06 1.640255241e-06 1.456343811e-06 1.264698768e-06 1.107935097e-06)
5(2.040583511e-06 1.812352006e-06 1.630393495e-06 1.440881401e-06 1.285436973e-06)
5(2.235772729e-06 2.010777875e-06 1.840154227e-06 1.658973335e-06 1.510013992e-06)
5(2.456381042e-06 2.246919815e-06 2.097411948e-06 1.934793003e-06 1.800351014e-06)
5(2.709691857e-06 2.532689398e-06 2.41859259e-06 2.284890628e-06 2.171434011e-06)
5(3.008296562e-06 2.88445394e-06 2.825050633e-06 2.733137502e-06 2.645484704e-06)
5(3.367239288e-06 3.322574471e-06 3.338511192e-06 3.302145038e-06 3.251019334e-06)
5(3.815470849e-06 3.87217592e-06 3.985421893e-06 4.014032184e-06 3.991489832e-06)
5(4.36764131e-06 4.559112062e-06 4.788598854e-06 4.887576618e-06 4.886138272e-06)
5(5.049768944e-06 5.404226295e-06 5.766141423e-06 5.930401163e-06 5.930417701e-06)
5(5.885323836e-06 6.421644698e-06 6.918126577e-06 7.125084928e-06 7.096982017e-06)
5(6.884957973e-06 7.604527199e-06 8.221976118e-06 8.435675452e-06 8.321238028e-06)
5(8.049323894e-06 8.930788261e-06 9.629764223e-06 9.786242636e-06 9.495519977e-06)
5(9.348438221e-06 1.035186771e-05 1.104869144e-05 1.106622911e-05 1.047163892e-05)
5(1.073339706e-05 1.177079988e-05 1.23599256e-05 1.21199491e-05 1.116626591e-05)
5(1.21151025e-05 1.306191414e-05 1.34033933e-05 1.278971478e-05 1.139337319e-05)
5(1.338204513e-05 1.407558886e-05 1.401491426e-05 1.292947214e-05 1.109469753e-05)
5(1.440544763e-05 1.466092952e-05 1.402974713e-05 1.243709814e-05 1.022419629e-05)
5(1.50141656e-05 1.468206871e-05 1.337816863e-05 1.130573987e-05 8.853696346e-06)
5(1.504661569e-05 1.404965754e-05 1.204190972e-05 9.635395302e-06 7.121533357e-06)
5(1.454812817e-05 1.27547359e-05 1.013343918e-05 7.621851288e-06 5.26489306e-06)
5(1.339213386e-05 1.089634722e-05 7.895996169e-06 5.518334396e-06 3.518328501e-06)
5(1.164478762e-05 8.664616096e-06 5.609885171e-06 3.589218953e-06 2.085120835e-06)
5(9.535768486e-06 6.322977722e-06 3.565214149e-06 2.060276012e-06 1.073739156e-06)
5(7.223668794e-06 4.185710926e-06 1.973743286e-06 1.011170042e-06 4.702479528e-07)
5(4.961576628e-06 2.400759186e-06 9.318613988e-07 4.046233528e-07 1.656836149e-07)
5(3.094965565e-06 1.181550795e-06 3.470167199e-07 1.311577894e-07 4.670968954e-08)