/*--------------------------------*- C++ -*----------------------------------*\
| =========                 |                                                 |
| \\      /  F ield         | OpenFOAM: The Open Source CFD Toolbox           |
|  \\    /   O peration     | Version:  2.3.1                                 |
|   \\  /    A nd           | Web:      www.OpenFOAM.org                      |
|    \\/     M anipulation  |                                                 |
\*---------------------------------------------------------------------------*/
FoamFile
{
    version     2.0;
    format      ascii;
    class       dictionary;
    location    "constant";
    object      CH3;
}
// * * * * * * * * * * * * * * * * * * * * * * * * * * * * * * * * * * * * * //

CH3_table
60
(

60
(
5(1.030115915e-09 5.249224948e-10 8.682440363e-10 5.369512828e-10 6.062301656e-10)
5(6.326603555e-10 1.699474236e-10 4.903359626e-10 3.28173632e-10 3.035809306e-10)
5(1.096651204e-08 3.060725474e-10 2.897993475e-10 1.802527553e-10 0)
5(2.995382298e-08 3.747155001e-10 3.352136728e-10 7.750578506e-11 1.893690384e-10)
5(3.875764866e-08 3.771304012e-10 3.71990803e-10 2.077431905e-10 1.414896392e-10)
5(3.616167128e-08 3.781359417e-10 1.990756467e-10 2.404239629e-10 1.240904042e-10)
5(6.017988358e-10 3.96086245e-10 2.730760696e-10 2.010189214e-10 2.479253864e-10)
5(4.267939672e-10 4.569621612e-10 4.415320478e-10 2.699757968e-10 1.100866984e-10)
5(4.543461767e-08 5.576227985e-10 4.982918079e-10 3.242109162e-10 1.943829329e-10)
5(7.24339368e-08 8.798989352e-10 6.893405593e-10 3.599829201e-10 2.466875981e-10)
5(8.044124015e-08 1.131698174e-09 7.683997458e-10 4.407603234e-10 2.909736706e-10)
5(2.934238075e-08 9.37164051e-10 7.675258472e-10 4.987572625e-10 3.220101876e-10)
5(1.132768111e-09 1.113927837e-09 8.493180456e-10 6.323099671e-10 3.949272003e-10)
5(1.480941504e-09 1.328925221e-09 1.01945253e-09 6.725881485e-10 4.385033134e-10)
5(1.594853738e-09 1.505018348e-09 1.152523842e-09 8.400085276e-10 5.102965092e-10)
5(4.768756771e-09 2.426682014e-09 1.569029063e-09 1.07508587e-09 6.287508199e-10)
5(4.983602158e-09 2.655690627e-09 1.923994322e-09 1.234768383e-09 7.698695821e-10)
5(3.766837841e-09 2.901761698e-09 1.997606798e-09 1.483005023e-09 9.40146748e-10)
5(3.149528304e-09 3.174071442e-09 2.379127952e-09 1.770932868e-09 1.224272317e-09)
5(3.873504808e-09 3.752885642e-09 2.966626094e-09 2.299579113e-09 1.464197558e-09)
5(4.610872572e-09 4.460173946e-09 3.512476362e-09 2.797004701e-09 1.715404833e-09)
5(5.630529925e-09 5.443086867e-09 4.557532072e-09 3.130538617e-09 1.992448257e-09)
5(7.140993109e-09 6.942506801e-09 5.681780731e-09 4.371556437e-09 2.819347668e-09)
5(8.844641811e-09 9.233932007e-09 7.310743577e-09 5.788518662e-09 3.722059673e-09)
5(1.176282815e-08 1.332351405e-08 9.915460517e-09 8.204509731e-09 5.337370171e-09)
5(1.540039706e-08 1.987872129e-08 1.420947699e-08 1.209375834e-08 7.585004426e-09)
5(2.059256429e-08 2.54458697e-08 1.937132566e-08 1.775384785e-08 1.118530591e-08)
5(2.820384645e-08 3.194546749e-08 2.856909974e-08 2.628452253e-08 1.657963748e-08)
5(4.109680165e-08 4.688097627e-08 4.108887077e-08 3.825354515e-08 2.516072249e-08)
5(5.919114731e-08 6.988705248e-08 6.031786635e-08 5.431270185e-08 3.651009162e-08)
5(8.756278915e-08 1.038482285e-07 9.145623626e-08 8.264693946e-08 5.416418484e-08)
5(1.278909234e-07 1.49600371e-07 1.296673178e-07 1.118948248e-07 6.625595492e-08)
5(1.848822174e-07 2.172474901e-07 1.888854935e-07 1.573428526e-07 1.055786176e-07)
5(2.676369961e-07 3.106388118e-07 2.725187549e-07 2.091640839e-07 1.151737657e-07)
5(3.799962054e-07 4.225796204e-07 3.644429059e-07 2.706706398e-07 1.382710888e-07)
5(5.236064748e-07 5.806449316e-07 5.123749994e-07 3.389841611e-07 1.628974141e-07)
5(7.005754455e-07 7.091629648e-07 5.617583722e-07 3.620342515e-07 1.792866078e-07)
5(9.023114694e-07 8.976761585e-07 6.610066108e-07 4.078928093e-07 9.530348878e-08)
5(1.128641018e-06 1.038937039e-06 7.61105465e-07 3.846044935e-07 1.488966423e-07)
5(1.376707247e-06 1.159343532e-06 8.386688638e-07 3.622277534e-07 8.419380221e-10)
5(1.544316106e-06 1.151070469e-06 7.156865005e-07 2.779819201e-07 1.269821299e-09)
5(1.604705194e-06 1.090063048e-06 5.887651669e-07 1.69370163e-07 2.4430525e-24)
5(1.58260675e-06 8.917831172e-07 3.979995758e-07 1.05735284e-25 3.897113216e-25)
5(1.456565973e-06 7.372300128e-07 4.135155648e-07 3.22643021e-25 4.526906288e-09)
5(1.227977923e-06 4.903801051e-07 2.160404727e-07 9.186450224e-25 3.571706931e-10)
5(8.781837574e-07 3.122504482e-07 6.442123617e-08 2.690831436e-24 9.644021759e-24)
5(5.593732206e-07 1.425918405e-07 1.783603704e-08 8.798871564e-10 2.625512719e-23)
5(3.737746371e-07 2.463135277e-08 3.793838794e-09 1.974968863e-23 6.965135985e-23)
5(1.459354195e-07 1.004173219e-08 4.121160404e-10 5.071874817e-23 1.784494095e-22)
5(5.418490122e-08 1.856743694e-10 2.781726134e-23 1.258282815e-22 4.397427543e-22)
5(1.933503906e-08 1.606591352e-23 6.857669869e-23 3.056269459e-22 1.053181763e-21)
5(3.681147501e-09 3.906186643e-23 1.648431388e-22 7.169903833e-22 2.4392283e-21)
5(3.468871867e-11 9.267101525e-23 3.842225989e-22 1.635018097e-21 5.489627407e-21)
5(4.162081942e-23 2.111575334e-22 8.753764523e-22 3.616789775e-21 1.208692453e-20)
5(9.575084586e-23 4.706186073e-22 1.937695126e-21 7.824621048e-21 2.578477536e-20)
5(6.046446853e-22 1.023874418e-21 4.192292815e-21 1.637463627e-20 5.346524306e-20)
5(2.152218929e-21 2.198122181e-21 8.892732563e-21 3.341683966e-20 1.057555959e-19)
5(3.716080714e-21 7.387012987e-21 1.86608249e-20 6.606822542e-20 2.022887351e-19)
5(5.16288986e-21 1.570114067e-20 4.887819067e-20 9.308935098e-20 3.696971143e-19)
5(6.87103716e-21 2.91097069e-20 1.144782105e-19 4.585862884e-19 1.175989218e-18)
)


60
(
5(1.804060345e-09 1.122588585e-09 1.508856798e-09 1.029546063e-09 1.03970948e-09)
5(1.483452401e-09 1.180602314e-09 1.138710437e-09 8.979889962e-10 7.482927937e-10)
5(1.402808391e-09 1.280541551e-09 1.04095239e-09 8.872434339e-10 6.596338312e-10)
5(1.497145567e-09 1.432688076e-09 1.120136524e-09 9.717078127e-10 7.036152321e-10)
5(1.754988298e-09 1.649980756e-09 1.331361292e-09 1.134263675e-09 8.507980846e-10)
5(2.107893685e-09 1.927968348e-09 1.606417481e-09 1.35473528e-09 1.062995311e-09)
5(2.493002721e-09 2.251788121e-09 1.895827455e-09 1.595995959e-09 1.283536826e-09)
5(2.901343674e-09 2.634729664e-09 2.203980174e-09 1.87429114e-09 1.513446369e-09)
5(3.372357923e-09 3.094052007e-09 2.562028947e-09 2.209536307e-09 1.782108976e-09)
5(3.933616169e-09 3.638871217e-09 3.010017283e-09 2.617218144e-09 2.131629964e-09)
5(4.658189426e-09 4.285928778e-09 3.571625166e-09 3.114415209e-09 2.56065891e-09)
5(5.487578858e-09 5.059528705e-09 4.246819116e-09 3.711636292e-09 3.078085539e-09)
5(6.473918191e-09 5.964136061e-09 5.044384325e-09 4.419687717e-09 3.695583729e-09)
5(7.625637347e-09 7.024643922e-09 5.978132116e-09 5.240588024e-09 4.407850228e-09)
5(8.961839269e-09 8.270081178e-09 7.068517384e-09 6.211851442e-09 5.248870739e-09)
5(1.049827165e-08 9.709522251e-09 8.340329355e-09 7.356998435e-09 6.257169574e-09)
5(1.23478757e-08 1.139683593e-08 9.842705131e-09 8.721267442e-09 7.47670925e-09)
5(1.447671701e-08 1.339173287e-08 1.16344732e-08 1.036782665e-08 8.939024228e-09)
5(1.69644058e-08 1.576974617e-08 1.378610764e-08 1.237282158e-08 1.074689678e-08)
5(1.989363185e-08 1.860138986e-08 1.638673959e-08 1.485114837e-08 1.299539987e-08)
5(2.338912327e-08 2.204847239e-08 1.960584102e-08 1.798371452e-08 1.59099258e-08)
5(2.761013837e-08 2.630161005e-08 2.367562096e-08 2.201460004e-08 1.969106743e-08)
5(3.271396469e-08 3.171972529e-08 2.892834746e-08 2.738844036e-08 2.482523842e-08)
5(3.905222037e-08 3.879315386e-08 3.59697946e-08 3.482955015e-08 3.197359416e-08)
5(4.735881454e-08 4.828024895e-08 4.56403506e-08 4.531509876e-08 4.228821647e-08)
5(5.82329979e-08 6.142296606e-08 5.931337789e-08 6.05808054e-08 5.749382776e-08)
5(7.317593961e-08 8.005965108e-08 7.924423015e-08 8.313063898e-08 8.01200205e-08)
5(9.413083217e-08 1.070486916e-07 1.086452154e-07 1.166662378e-07 1.136231489e-07)
5(1.243023463e-07 1.465674187e-07 1.522677092e-07 1.664928198e-07 1.639089432e-07)
5(1.678141887e-07 2.044554317e-07 2.167409503e-07 2.398286706e-07 2.376634621e-07)
5(2.316470097e-07 2.886534477e-07 3.111460965e-07 3.460809746e-07 3.433677428e-07)
5(3.237269255e-07 4.096767662e-07 4.460050631e-07 4.958735278e-07 4.912034411e-07)
5(4.548583309e-07 5.78991317e-07 6.346646956e-07 7.010976314e-07 6.912931084e-07)
5(6.383348976e-07 8.111231097e-07 8.904039521e-07 9.725396909e-07 9.477823279e-07)
5(8.886083105e-07 1.119794796e-06 1.225555877e-06 1.315195607e-06 1.263935794e-06)
5(1.22000508e-06 1.513206468e-06 1.644465834e-06 1.727029886e-06 1.62766311e-06)
5(1.642519244e-06 1.994754493e-06 2.142255148e-06 2.191000032e-06 2.017635535e-06)
5(2.157457197e-06 2.553913557e-06 2.69653018e-06 2.674093234e-06 2.394475449e-06)
5(2.753084282e-06 3.157762905e-06 3.263235192e-06 3.122382443e-06 2.692973497e-06)
5(3.397473891e-06 3.762070177e-06 3.77811959e-06 3.465610817e-06 2.838030672e-06)
5(4.035839574e-06 4.285105838e-06 4.156079449e-06 3.630999955e-06 2.771045303e-06)
5(4.58495311e-06 4.654833098e-06 4.32807286e-06 3.554555893e-06 2.484649403e-06)
5(4.966755029e-06 4.777512472e-06 4.227385089e-06 3.211492069e-06 2.026610565e-06)
5(5.088697494e-06 4.596148506e-06 3.841155691e-06 2.645568931e-06 1.489814604e-06)
5(4.886619599e-06 4.121820049e-06 3.205776126e-06 1.958520114e-06 9.692702373e-07)
5(4.361151619e-06 3.403761677e-06 2.422061716e-06 1.285843752e-06 5.475495296e-07)
5(3.580867711e-06 2.554360996e-06 1.619582988e-06 7.391629134e-07 2.633267122e-07)
5(2.661891714e-06 1.711125662e-06 9.414065347e-07 3.649180607e-07 1.069651504e-07)
5(1.767125959e-06 1.001872e-06 4.647698022e-07 1.51918491e-07 3.700481081e-08)
5(1.013026638e-06 4.95185517e-07 1.931271439e-07 5.219954386e-08 1.125531628e-08)
5(4.929907682e-07 2.008685379e-07 6.445634425e-08 1.541916301e-08 3.011316871e-09)
5(1.887537619e-07 6.499475212e-08 1.772171316e-08 3.928837408e-09 7.264825475e-10)
5(5.876280184e-08 1.653600328e-08 4.084118498e-09 8.712400503e-10 1.544009216e-10)
5(1.24988856e-08 3.077589823e-09 7.306157606e-10 1.639999408e-10 2.93210273e-11)
5(1.852182002e-09 4.652395171e-10 1.061333941e-10 2.499436736e-11 4.442149237e-12)
5(1.639139744e-10 4.282428942e-11 1.177310841e-11 2.799295857e-12 5.341787852e-13)
5(9.692858994e-12 3.201932223e-12 6.825865981e-13 2.059695756e-13 3.663311667e-14)
5(2.840719375e-13 9.823782517e-14 2.229436199e-14 1.456792478e-14 1.166239641e-15)
5(1.247065921e-15 -1.141119065e-14 1.964738641e-14 -1.150081113e-14 8.552324783e-18)
5(3.463685845e-20 1.005308263e-19 5.530227906e-11 6.52687844e-19 1.74269936e-18)
)


60
(
5(2.903511913e-09 1.888359508e-09 2.437184072e-09 1.723769375e-09 1.615653384e-09)
5(2.714194432e-09 2.158629301e-09 2.029277933e-09 1.607320368e-09 1.290068615e-09)
5(2.759879795e-09 2.456338541e-09 1.990225347e-09 1.666945977e-09 1.233280249e-09)
5(3.061688073e-09 2.819877477e-09 2.222975398e-09 1.879737873e-09 1.375836725e-09)
5(3.621426533e-09 3.304694084e-09 2.671935282e-09 2.235320539e-09 1.680198946e-09)
5(4.40015094e-09 3.927040594e-09 3.26333037e-09 2.70659467e-09 2.116788002e-09)
5(5.275396048e-09 4.671426389e-09 3.915974881e-09 3.247030794e-09 2.596908581e-09)
5(6.241053976e-09 5.551620832e-09 4.637662535e-09 3.883291113e-09 3.129326813e-09)
5(7.347509812e-09 6.60383751e-09 5.488449849e-09 4.646161694e-09 3.762387465e-09)
5(8.727961233e-09 7.871469171e-09 6.547152623e-09 5.581590262e-09 4.541548977e-09)
5(1.04147641e-08 9.398773509e-09 7.846320966e-09 6.711744731e-09 5.508800369e-09)
5(1.245582e-08 1.120537213e-08 9.408729433e-09 8.061999996e-09 6.672868853e-09)
5(1.478865189e-08 1.32968737e-08 1.124096605e-08 9.634090497e-09 8.028617546e-09)
5(1.752580158e-08 1.574019325e-08 1.33671006e-08 1.146582279e-08 9.593521153e-09)
5(2.071609661e-08 1.858532224e-08 1.583657548e-08 1.359307712e-08 1.144283244e-08)
5(2.449338898e-08 2.189518104e-08 1.871254215e-08 1.607725778e-08 1.360431663e-08)
5(2.869614893e-08 2.570844123e-08 2.203856873e-08 1.895963388e-08 1.615008453e-08)
5(3.358350311e-08 3.010588778e-08 2.589557966e-08 2.23376476e-08 1.919292179e-08)
5(3.922281111e-08 3.514312688e-08 3.036805467e-08 2.633780596e-08 2.282143911e-08)
5(4.565945649e-08 4.09719227e-08 3.561729244e-08 3.108803177e-08 2.717283234e-08)
5(5.314831046e-08 4.769761739e-08 4.179493354e-08 3.680543187e-08 3.246998741e-08)
5(6.155798811e-08 5.557149596e-08 4.916933001e-08 4.379996244e-08 3.923104563e-08)
5(7.134782286e-08 6.494617166e-08 5.804190471e-08 5.248212035e-08 4.771592581e-08)
5(8.287425005e-08 7.629850772e-08 6.909573872e-08 6.36926813e-08 5.890962092e-08)
5(9.660601728e-08 9.039837167e-08 8.329735018e-08 7.861853421e-08 7.413447185e-08)
5(1.131689258e-07 1.084667564e-07 1.021734685e-07 9.922430648e-08 9.551792231e-08)
5(1.340796874e-07 1.323615324e-07 1.279764715e-07 1.280575441e-07 1.261485267e-07)
5(1.613844425e-07 1.647394209e-07 1.639331205e-07 1.695688517e-07 1.70495751e-07)
5(1.973319349e-07 2.100865818e-07 2.156136606e-07 2.297665404e-07 2.357277064e-07)
5(2.47290093e-07 2.74219297e-07 2.903041467e-07 3.173317825e-07 3.311843312e-07)
5(3.166345758e-07 3.655835299e-07 3.97743359e-07 4.434358158e-07 4.661162283e-07)
5(4.14603812e-07 4.957605419e-07 5.51073821e-07 6.22017033e-07 6.573606413e-07)
5(5.525542464e-07 6.779911706e-07 7.663662738e-07 8.691550282e-07 9.167925778e-07)
5(7.449785674e-07 9.286095567e-07 1.060673211e-06 1.198824591e-06 1.26015711e-06)
5(1.006639966e-06 1.264908519e-06 1.450635217e-06 1.625730808e-06 1.691233692e-06)
5(1.356480458e-06 1.702215287e-06 1.948312535e-06 2.155062179e-06 2.212727895e-06)
5(1.811202813e-06 2.248860767e-06 2.556766469e-06 2.77768828e-06 2.80210825e-06)
5(2.369536593e-06 2.903513794e-06 3.260679182e-06 3.465221513e-06 3.419594707e-06)
5(3.040617829e-06 3.646253577e-06 4.021704405e-06 4.16371389e-06 3.991728495e-06)
5(3.790036088e-06 4.429108575e-06 4.778270822e-06 4.794107217e-06 4.428492661e-06)
5(4.573201894e-06 5.182636862e-06 5.439560642e-06 5.258102624e-06 4.628640044e-06)
5(5.321475307e-06 5.813899795e-06 5.897848403e-06 5.454959994e-06 4.531753508e-06)
5(5.932775164e-06 6.212449932e-06 6.054044334e-06 5.306969577e-06 4.127037568e-06)
5(6.294907916e-06 6.286438477e-06 5.843510895e-06 4.795653484e-06 3.461717355e-06)
5(6.3301786e-06 5.977066639e-06 5.250135877e-06 3.988964893e-06 2.648699968e-06)
5(5.978639784e-06 5.294898388e-06 4.344320321e-06 3.020616587e-06 1.816429087e-06)
5(5.250514097e-06 4.330357896e-06 3.258249654e-06 2.050404495e-06 1.102446798e-06)
5(4.248674151e-06 3.21608983e-06 2.184465242e-06 1.230530312e-06 5.796591716e-07)
5(3.118416998e-06 2.134877725e-06 1.280970591e-06 6.440008869e-07 2.607408911e-07)
5(2.033891227e-06 1.236635317e-06 6.456931964e-07 2.82739107e-07 9.886076936e-08)
5(1.15160859e-06 6.054209608e-07 2.716246431e-07 1.049324807e-07 3.11991058e-08)
5(5.397690213e-07 2.408117567e-07 9.144622039e-08 3.121393382e-08 8.600821229e-09)
5(1.997199653e-07 7.50103992e-08 2.429515739e-08 7.616314665e-09 1.996076871e-09)
5(5.350306199e-08 1.728677216e-08 4.731610733e-09 1.431670229e-09 3.827847544e-10)
5(1.017619831e-08 2.803755825e-09 7.067602547e-10 2.262747359e-10 6.366016331e-11)
5(1.111149496e-09 3.041066159e-10 7.058359403e-11 2.625561958e-11 7.374028085e-12)
5(7.170809184e-11 1.611962313e-11 4.846698391e-12 1.791297355e-12 5.270720132e-13)
5(1.392394817e-12 -1.720014274e-13 1.512130761e-13 -3.251940758e-13 2.085837483e-14)
5(8.795159353e-15 -1.261983619e-10 4.345419548e-14 -7.224659343e-11 1.049949011e-16)
5(1.979225262e-18 3.515015531e-19 1.217469475e-10 1.423549444e-18 3.267298017e-18)
)


60
(
5(4.371095922e-09 2.970582506e-09 3.699786576e-09 2.693073125e-09 2.360217411e-09)
5(4.465484474e-09 3.604826075e-09 3.328948156e-09 2.633594033e-09 2.024344066e-09)
5(4.792926729e-09 4.235742913e-09 3.430876498e-09 2.82491345e-09 2.038339961e-09)
5(5.424301742e-09 4.941371385e-09 3.930146976e-09 3.252205037e-09 2.334048466e-09)
5(6.476403732e-09 5.854456506e-09 4.77023879e-09 3.913962472e-09 2.893567378e-09)
5(7.909402495e-09 7.025795549e-09 5.855174394e-09 4.784052934e-09 3.684106831e-09)
5(9.540897954e-09 8.429166937e-09 7.092749357e-09 5.825189297e-09 4.588359645e-09)
5(1.136977996e-08 1.011231189e-08 8.506184879e-09 7.055172109e-09 5.60620448e-09)
5(1.354043294e-08 1.213699319e-08 1.017762937e-08 8.529388326e-09 6.827855306e-09)
5(1.621659443e-08 1.457769713e-08 1.223943639e-08 1.0327649e-08 8.332001886e-09)
5(1.944731072e-08 1.749685732e-08 1.475211625e-08 1.250304153e-08 1.017980631e-08)
5(2.332028971e-08 2.094702633e-08 1.777430004e-08 1.508199037e-08 1.236269968e-08)
5(2.788101749e-08 2.498829015e-08 2.132219145e-08 1.807692689e-08 1.492388213e-08)
5(3.309569908e-08 2.968879976e-08 2.540715923e-08 2.154313916e-08 1.790434876e-08)
5(3.917600792e-08 3.511764886e-08 3.011100729e-08 2.555923741e-08 2.130681297e-08)
5(4.62131576e-08 4.130962161e-08 3.552257756e-08 3.02016411e-08 2.53177424e-08)
5(5.439048993e-08 4.845561178e-08 4.178786947e-08 3.555928863e-08 2.999467134e-08)
5(6.350522541e-08 5.665293553e-08 4.901976014e-08 4.17955983e-08 3.546170512e-08)
5(7.418730413e-08 6.590514898e-08 5.724356489e-08 4.90331328e-08 4.196043203e-08)
5(8.587111053e-08 7.646124511e-08 6.671024523e-08 5.740289857e-08 4.95085062e-08)
5(9.928066618e-08 8.851842459e-08 7.75007714e-08 6.709274396e-08 5.847189083e-08)
5(1.148451411e-07 1.020607531e-07 8.995139972e-08 7.852203587e-08 6.951339504e-08)
5(1.320346125e-07 1.176600089e-07 1.045520107e-07 9.202920072e-08 8.255213473e-08)
5(1.506383143e-07 1.357400626e-07 1.21840891e-07 1.084435865e-07 9.898683282e-08)
5(1.726786253e-07 1.568972844e-07 1.423464655e-07 1.290056165e-07 1.196529377e-07)
5(1.978738977e-07 1.819573316e-07 1.677347645e-07 1.554476346e-07 1.473435519e-07)
5(2.274370568e-07 2.126569836e-07 2.002421393e-07 1.905858041e-07 1.852010389e-07)
5(2.628769822e-07 2.516312921e-07 2.429778645e-07 2.385374392e-07 2.376653003e-07)
5(3.068608366e-07 3.027372022e-07 3.009849257e-07 3.055854182e-07 3.122928792e-07)
5(3.63001059e-07 3.714513324e-07 3.816185695e-07 4.00310506e-07 4.186451986e-07)
5(4.370637417e-07 4.656423669e-07 4.950215451e-07 5.349083516e-07 5.706821549e-07)
5(5.373025748e-07 5.964490897e-07 6.543280644e-07 7.244025825e-07 7.835890827e-07)
5(6.738160901e-07 7.771930119e-07 8.761155641e-07 9.871155878e-07 1.07599148e-06)
5(8.60739073e-07 1.025637613e-06 1.179794037e-06 1.341031137e-06 1.463807684e-06)
5(1.11447562e-06 1.360476217e-06 1.58569581e-06 1.806064028e-06 1.966443839e-06)
5(1.45204357e-06 1.79963348e-06 2.110529139e-06 2.394353198e-06 2.580635548e-06)
5(1.892810265e-06 2.356784377e-06 2.765854306e-06 3.105108432e-06 3.305671766e-06)
5(2.452119613e-06 3.040537235e-06 3.545037781e-06 3.920747074e-06 4.102924347e-06)
5(3.129043603e-06 3.83817939e-06 4.422947526e-06 4.795432715e-06 4.905785144e-06)
5(3.910526413e-06 4.71769132e-06 5.343453445e-06 5.652779835e-06 5.610751163e-06)
5(4.76650704e-06 5.620027011e-06 6.217432874e-06 6.389397543e-06 6.102879519e-06)
5(5.628315116e-06 6.451723732e-06 6.933353434e-06 6.879001637e-06 6.290176687e-06)
5(6.416077019e-06 7.101150981e-06 7.367763599e-06 7.007497103e-06 6.084306025e-06)
5(7.014442805e-06 7.45118884e-06 7.415191372e-06 6.702100858e-06 5.501852215e-06)
5(7.32274514e-06 7.405764519e-06 7.011498793e-06 5.973618823e-06 4.601620896e-06)
5(7.245049034e-06 6.921611935e-06 6.16805889e-06 4.916667205e-06 3.511229158e-06)
5(6.743384104e-06 6.03695437e-06 4.990543805e-06 3.699628774e-06 2.416991884e-06)
5(5.864782865e-06 4.850188265e-06 3.676303056e-06 2.499466912e-06 1.47193031e-06)
5(4.70733024e-06 3.538162477e-06 2.413748811e-06 1.492532562e-06 7.855057529e-07)
5(3.437241128e-06 2.302907645e-06 1.374717969e-06 7.66359037e-07 3.567123413e-07)
5(2.24325871e-06 1.3013585e-06 6.731475417e-07 3.371498714e-07 1.356068416e-07)
5(1.267440609e-06 6.097973637e-07 2.725216592e-07 1.191395943e-07 4.187009231e-08)
5(5.871774095e-07 2.321607108e-07 8.671256866e-08 3.399129585e-08 1.081178821e-08)
5(2.116412374e-07 6.687298418e-08 2.01878026e-08 7.466295717e-09 2.234583942e-09)
5(5.765586687e-08 1.341271913e-08 3.230484783e-09 1.18581402e-09 3.595980145e-10)
5(9.130134177e-09 1.643211499e-09 3.569979324e-10 1.321811083e-10 4.617625821e-11)
5(6.124121672e-10 1.366324163e-10 2.062731969e-11 9.677490382e-12 3.161145998e-12)
5(4.032955158e-11 7.403698624e-12 6.695815401e-13 2.946341232e-12 1.156997081e-13)
5(4.640970923e-13 6.641062913e-10 -6.314378559e-12 5.835472778e-10 1.027461868e-15)
5(1.10023118e-14 1.342127314e-12 0 3.129447588e-14 5.299364954e-18)
)


60
(
5(6.231936473e-09 4.411463946e-09 5.31205102e-09 3.954510145e-09 3.28469765e-09)
5(6.794072288e-09 5.568889123e-09 5.072974863e-09 4.008306789e-09 2.977649805e-09)
5(7.56074464e-09 6.674353322e-09 5.4182085e-09 4.40503976e-09 3.114395781e-09)
5(8.678905618e-09 7.86156398e-09 6.306168259e-09 5.147130357e-09 3.638998791e-09)
5(1.038925119e-08 9.366433024e-09 7.6944034e-09 6.2461688e-09 4.569789903e-09)
5(1.269447181e-08 1.130812807e-08 9.470904559e-09 7.690188187e-09 5.864490762e-09)
5(1.536725768e-08 1.364171163e-08 1.154725502e-08 9.435991907e-09 7.389914487e-09)
5(1.842329395e-08 1.6461938e-08 1.395931169e-08 1.152911078e-08 9.128110971e-09)
5(2.205382189e-08 1.983895831e-08 1.681249051e-08 1.404914121e-08 1.122444965e-08)
5(2.649277003e-08 2.390942457e-08 2.031510661e-08 1.710364645e-08 1.377130978e-08)
5(3.185613575e-08 2.879100721e-08 2.457434042e-08 2.077390977e-08 1.691361604e-08)
5(3.830922981e-08 3.455531723e-08 2.966248747e-08 2.510630836e-08 2.059334448e-08)
5(4.577617793e-08 4.130484845e-08 3.559109715e-08 3.015998969e-08 2.491463279e-08)
5(5.46155802e-08 4.909554855e-08 4.245917094e-08 3.599246361e-08 2.9842272e-08)
5(6.455219074e-08 5.807466828e-08 5.034304021e-08 4.272380679e-08 3.562442022e-08)
5(7.603849309e-08 6.832719218e-08 5.942555064e-08 5.049387922e-08 4.232682835e-08)
5(8.941430993e-08 8.008121031e-08 6.979145936e-08 5.944439293e-08 5.013279848e-08)
5(1.044474545e-07 9.345932523e-08 8.162230471e-08 6.973475836e-08 5.913076202e-08)
5(1.215068969e-07 1.085627397e-07 9.513048924e-08 8.147998052e-08 6.96658873e-08)
5(1.407465692e-07 1.256954857e-07 1.104966945e-07 9.499303638e-08 8.194846511e-08)
5(1.623254493e-07 1.44914585e-07 1.279180363e-07 1.105243002e-07 9.619912662e-08)
5(1.862774898e-07 1.664861004e-07 1.477382559e-07 1.28304611e-07 1.131089359e-07)
5(2.130979902e-07 1.907872894e-07 1.702171289e-07 1.488634926e-07 1.325359327e-07)
5(2.430807181e-07 2.182373767e-07 1.958517598e-07 1.728086437e-07 1.562743974e-07)
5(2.763966346e-07 2.493113041e-07 2.254534076e-07 2.012059624e-07 1.843449733e-07)
5(3.130711387e-07 2.847513528e-07 2.603242711e-07 2.356659807e-07 2.200448463e-07)
5(3.544552203e-07 3.25079803e-07 3.020567474e-07 2.787054993e-07 2.656384653e-07)
5(4.020573385e-07 3.734364774e-07 3.533081153e-07 3.339789646e-07 3.258621216e-07)
5(4.573221359e-07 4.326652602e-07 4.186527489e-07 4.073915586e-07 4.083188859e-07)
5(5.226832998e-07 5.073352501e-07 5.048508333e-07 5.070506394e-07 5.224269345e-07)
5(6.035870392e-07 6.043954647e-07 6.21193167e-07 6.444716087e-07 6.818066808e-07)
5(7.061932242e-07 7.330981248e-07 7.796353781e-07 8.355955461e-07 9.047232204e-07)
5(8.396312045e-07 9.072259034e-07 9.974803916e-07 1.098299003e-06 1.206844538e-06)
5(1.016742974e-06 1.143286772e-06 1.294568412e-06 1.453761944e-06 1.613789329e-06)
5(1.253277072e-06 1.458700527e-06 1.690859484e-06 1.923532249e-06 2.143237932e-06)
5(1.568317994e-06 1.874701387e-06 2.209374242e-06 2.526051495e-06 2.808386547e-06)
5(1.977601716e-06 2.409363038e-06 2.867123062e-06 3.270543157e-06 3.61216092e-06)
5(2.497018097e-06 3.075664562e-06 3.667340688e-06 4.151824407e-06 4.532209555e-06)
5(3.141764641e-06 3.875381965e-06 4.596632099e-06 5.136071034e-06 5.507597914e-06)
5(3.906778763e-06 4.787325569e-06 5.611366248e-06 6.159479161e-06 6.446410321e-06)
5(4.772701448e-06 5.76773399e-06 6.640699061e-06 7.123899942e-06 7.223320025e-06)
5(5.692052787e-06 6.739594542e-06 7.576358177e-06 7.897031389e-06 7.723211031e-06)
5(6.596818639e-06 7.601222425e-06 8.286428816e-06 8.340012365e-06 7.820699758e-06)
5(7.388103547e-06 8.227144914e-06 8.642369101e-06 8.337822831e-06 7.466282322e-06)
5(7.957371249e-06 8.499611878e-06 8.524283595e-06 7.835901889e-06 6.659189253e-06)
5(8.199470843e-06 8.332769206e-06 7.90804693e-06 6.871306504e-06 5.500820545e-06)
5(8.048086283e-06 7.694796028e-06 6.821088808e-06 5.578371954e-06 4.157746903e-06)
5(7.474010024e-06 6.642645737e-06 5.410043472e-06 4.127224366e-06 2.834190691e-06)
5(6.503647233e-06 5.294628735e-06 3.897522365e-06 2.743257962e-06 1.711335895e-06)
5(5.257330556e-06 3.844376612e-06 2.506255886e-06 1.614193157e-06 8.963265614e-07)
5(3.895804391e-06 2.487603313e-06 1.403166545e-06 8.151684787e-07 4.006064028e-07)
5(2.599909056e-06 1.384236734e-06 6.615463525e-07 3.454064766e-07 1.507882253e-07)
5(1.520953396e-06 6.591920056e-07 2.537415906e-07 1.155154437e-07 4.298282286e-08)
5(7.441052532e-07 2.532685295e-07 7.391407875e-08 2.971591561e-08 1.05603118e-08)
5(2.809212972e-07 7.000808767e-08 1.549509534e-08 5.346571805e-09 1.811612682e-09)
5(8.820123437e-08 1.339250479e-08 2.048332385e-09 6.635007318e-10 1.887811969e-10)
5(1.633909672e-08 1.471824775e-09 1.360969125e-10 5.281037554e-11 1.65628483e-11)
5(1.498217891e-09 9.560210658e-11 5.752495773e-12 3.35746673e-12 5.905060998e-13)
5(9.703396637e-11 4.18830522e-10 -1.966446992e-13 2.4419363e-10 4.742114715e-15)
5(1.165809634e-10 3.997202128e-13 5.80412981e-10 4.893965574e-18 7.902470458e-18)
)


60
(
5(8.493895944e-09 6.229800825e-09 7.280527559e-09 5.519361586e-09 4.396393124e-09)
5(9.72363253e-09 8.075380242e-09 7.276419179e-09 5.740336581e-09 4.158874315e-09)
5(1.106442149e-08 9.798608521e-09 7.980586984e-09 6.415866669e-09 4.472655791e-09)
5(1.283569724e-08 1.161357019e-08 9.392540531e-09 7.576195336e-09 5.348241933e-09)
5(1.542062998e-08 1.388074444e-08 1.147615091e-08 9.258583537e-09 6.781073245e-09)
5(1.883364501e-08 1.679432702e-08 1.415021826e-08 1.14735873e-08 8.742797713e-09)
5(2.284339241e-08 2.032953292e-08 1.732150468e-08 1.41660005e-08 1.112112058e-08)
5(2.746050087e-08 2.461519709e-08 2.103951405e-08 1.740944927e-08 1.3824157e-08)
5(3.3001189e-08 2.978420893e-08 2.54737221e-08 2.132694034e-08 1.710342702e-08)
5(3.970671151e-08 3.598884581e-08 3.089647779e-08 2.606393964e-08 2.110109088e-08)
5(4.788799047e-08 4.340303239e-08 3.74604815e-08 3.174535235e-08 2.596798501e-08)
5(5.743849652e-08 5.213742004e-08 4.525227289e-08 3.84385639e-08 3.168020933e-08)
5(6.881154666e-08 6.233703437e-08 5.434600601e-08 4.623190541e-08 3.836568362e-08)
5(8.180967119e-08 7.409781682e-08 6.481854122e-08 5.522742874e-08 4.601454964e-08)
5(9.702232656e-08 8.766168505e-08 7.686804144e-08 6.558461812e-08 5.498749235e-08)
5(1.143078623e-07 1.031684735e-07 9.06684507e-08 7.746046449e-08 6.525497189e-08)
5(1.340349265e-07 1.208256518e-07 1.064392362e-07 9.11193914e-08 7.73657017e-08)
5(1.56563222e-07 1.409117668e-07 1.244274185e-07 1.067870335e-07 9.116579229e-08)
5(1.81722633e-07 1.635383801e-07 1.448561519e-07 1.247654118e-07 1.074354898e-07)
5(2.104224262e-07 1.890010899e-07 1.680167928e-07 1.452524062e-07 1.259503893e-07)
5(2.423764704e-07 2.176149796e-07 1.941212091e-07 1.685403661e-07 1.473543597e-07)
5(2.773368828e-07 2.49486476e-07 2.234412382e-07 1.949811101e-07 1.723170968e-07)
5(3.169364084e-07 2.850565164e-07 2.565452244e-07 2.249341235e-07 2.007208873e-07)
5(3.604750505e-07 3.246023969e-07 2.936415821e-07 2.591095484e-07 2.337901705e-07)
5(4.07773799e-07 3.683243745e-07 3.35322169e-07 2.983510211e-07 2.727592311e-07)
5(4.600637167e-07 4.168923092e-07 3.827093275e-07 3.438286873e-07 3.184410841e-07)
5(5.17779986e-07 4.714742006e-07 4.369163745e-07 3.97710623e-07 3.744229767e-07)
5(5.808702927e-07 5.332791053e-07 5.001720901e-07 4.631381796e-07 4.449399981e-07)
5(6.503451638e-07 6.042796673e-07 5.760678404e-07 5.44987158e-07 5.358389707e-07)
5(7.29488038e-07 6.884322557e-07 6.705133708e-07 6.506904118e-07 6.56496641e-07)
5(8.216444795e-07 7.918075328e-07 7.913151173e-07 7.909899787e-07 8.214378087e-07)
5(9.309080911e-07 9.222254592e-07 9.497968369e-07 9.794346974e-07 1.045028551e-06)
5(1.064996677e-06 1.090656172e-06 1.161265904e-06 1.235017508e-06 1.348525618e-06)
5(1.233624921e-06 1.311433231e-06 1.443718969e-06 1.579069127e-06 1.761537252e-06)
5(1.454133976e-06 1.602937052e-06 1.819756469e-06 2.035051185e-06 2.2935861e-06)
5(1.739229393e-06 1.986187996e-06 2.312764181e-06 2.626039906e-06 2.974223074e-06)
5(2.10731561e-06 2.481672664e-06 2.944645022e-06 3.369726622e-06 3.812565394e-06)
5(2.579695435e-06 3.106676539e-06 3.727233264e-06 4.267364509e-06 4.798739797e-06)
5(3.168882003e-06 3.868059224e-06 4.656598794e-06 5.303201899e-06 5.890513656e-06)
5(3.883855273e-06 4.76086708e-06 5.709249143e-06 6.427730338e-06 7.005406758e-06)
5(4.712591021e-06 5.759277088e-06 6.827196477e-06 7.557414019e-06 8.012027714e-06)
5(5.629975325e-06 6.804578422e-06 7.922088573e-06 8.568239541e-06 8.819740066e-06)
5(6.584536994e-06 7.810538346e-06 8.869817874e-06 9.315523249e-06 9.245065531e-06)
5(7.500700511e-06 8.665262877e-06 9.528459413e-06 9.65466964e-06 9.206955476e-06)
5(8.291191561e-06 9.251236411e-06 9.758506891e-06 9.480484703e-06 8.63592045e-06)
5(8.836042271e-06 9.454441354e-06 9.474634783e-06 8.75927292e-06 7.579089928e-06)
5(9.015163776e-06 9.194748523e-06 8.648558282e-06 7.556068043e-06 6.151145668e-06)
5(8.847203698e-06 8.450570781e-06 7.352657304e-06 6.030642023e-06 4.567153565e-06)
5(8.234437214e-06 7.285208832e-06 5.772179482e-06 4.386489881e-06 3.054191446e-06)
5(7.214645429e-06 5.836532971e-06 4.11283477e-06 2.85112909e-06 1.801938501e-06)
5(5.941585157e-06 4.271796128e-06 2.614191443e-06 1.631243854e-06 9.195109357e-07)
5(4.51198572e-06 2.839087673e-06 1.444122038e-06 7.960045714e-07 3.984359612e-07)
5(3.10017808e-06 1.62229551e-06 6.802226141e-07 3.151925473e-07 1.377893375e-07)