/*--------------------------------*- C++ -*----------------------------------*\
| =========                 |                                                 |
| \\      /  F ield         | OpenFOAM: The Open Source CFD Toolbox           |
|  \\    /   O peration     | Version:  2.3.1                                 |
|   \\  /    A nd           | Web:      www.OpenFOAM.org                      |
|    \\/     M anipulation  |                                                 |
\*---------------------------------------------------------------------------*/
FoamFile
{
    version     2.0;
    format      ascii;
    class       dictionary;
    location    "constant";
    object      CH3OCH2;
}
// * * * * * * * * * * * * * * * * * * * * * * * * * * * * * * * * * * * * * //

CH3OCH2_table
60
(

60
(
5(5.860149921e-14 1.283716577e-14 5.522924857e-14 2.29955868e-14 3.613800428e-14)
5(1.61675265e-14 1.120979299e-15 1.48891891e-14 8.120905474e-15 9.544946591e-15)
5(0 2.376265436e-15 2.911628723e-15 1.551045655e-15 0)
5(0 2.244761245e-15 1.901734778e-15 0 4.661616718e-16)
5(0 1.390874428e-15 2.131388415e-15 7.385852236e-16 2.500110292e-16)
5(1.522296432e-15 8.338833666e-16 4.403472113e-16 9.022523606e-16 4.635005471e-16)
5(1.349947429e-15 5.112736034e-16 6.820620562e-16 3.68148712e-16 1.086724215e-15)
5(3.067344124e-16 3.700326155e-16 8.384207245e-16 3.423489414e-16 1.068803738e-16)
5(2.06816602e-15 2.963512158e-16 4.80677653e-16 2.252867783e-16 1.433287451e-16)
5(1.346509626e-15 3.367750918e-16 4.491536447e-16 1.205630199e-16 8.687170433e-17)
5(1.542238749e-15 2.984081922e-16 2.844320876e-16 9.081180576e-17 4.744056083e-17)
5(5.023476369e-16 5.582630055e-17 1.139701224e-16 2.426381234e-17 2.596531551e-17)
5(4.666850332e-17 2.669045651e-17 2.845622225e-17 1.242027978e-17 8.015346534e-18)
5(2.897823438e-17 1.30677285e-17 1.336880558e-17 4.348284464e-18 2.991574697e-18)
5(1.138340458e-17 5.937119838e-18 5.683709375e-18 2.328571314e-18 1.287873206e-18)
5(9.722133843e-18 1.230533255e-16 5.544074658e-18 3.863395273e-18 9.661680608e-19)
5(7.18196256e-18 8.910716141e-17 4.361359942e-18 1.617663636e-18 3.56003857e-19)
5(3.513522649e-18 5.47529548e-17 8.829048977e-19 3.50252155e-19 1.893840129e-19)
5(9.510519068e-19 2.029978067e-17 4.508399712e-19 1.832910831e-19 1.584723357e-19)
5(5.938801887e-19 3.171653855e-19 2.691201914e-19 1.179226425e-19 9.370859469e-20)
5(3.360177456e-19 1.832417107e-19 1.377735844e-19 6.262579864e-20 2.875820836e-20)
5(2.010580798e-19 1.001527614e-19 9.210050019e-20 2.601480729e-20 1.16802567e-20)
5(1.348427054e-19 6.492828335e-20 5.469580014e-20 1.892402558e-20 8.199564796e-21)
5(8.27297242e-20 4.787223371e-20 3.1794526e-20 1.259340524e-20 4.982032537e-21)
5(6.430578573e-20 4.346333832e-20 2.466923593e-20 1.11386369e-20 4.342740932e-21)
5(5.312774793e-20 5.062453952e-20 2.519940937e-20 1.303802307e-20 4.542780121e-21)
5(4.793285701e-20 5.023189018e-20 2.725011308e-20 1.808432574e-20 6.410385408e-21)
5(5.570546557e-20 5.27206852e-20 4.102289982e-20 2.877769124e-20 1.026835475e-20)
5(8.466127556e-20 8.631604513e-20 6.367179107e-20 4.722780778e-20 1.848603689e-20)
5(1.346403281e-19 1.537453498e-19 1.0875955e-19 7.643401783e-20 3.145057107e-20)
5(2.384845393e-19 2.80975058e-19 2.06773044e-19 1.470542292e-19 5.793519279e-20)
5(4.220926992e-19 4.896856709e-19 3.47021332e-19 2.253271388e-19 7.222278732e-20)
5(7.482413148e-19 8.893742152e-19 6.327058807e-19 3.84747589e-19 1.62154257e-19)
5(1.355750763e-18 1.587942809e-18 1.149997752e-18 5.912251813e-19 1.618799702e-19)
5(2.395100675e-18 2.577049403e-18 1.802038234e-18 8.726512565e-19 2.180796706e-19)
5(4.024451521e-18 4.357897391e-18 3.189782171e-18 1.221733599e-18 2.710523519e-19)
5(6.442350948e-18 5.767368616e-18 3.349288081e-18 1.23454148e-18 2.850029065e-19)
5(9.631182392e-18 8.425542354e-18 4.190803455e-18 1.441911489e-18 7.994218689e-20)
5(1.373864287e-17 1.026140248e-17 5.132551443e-18 1.169732008e-18 1.844602361e-19)
5(1.889008248e-17 1.175986151e-17 5.679580969e-18 9.588800097e-19 1.958518599e-22)
5(2.190138576e-17 1.066370454e-17 3.701284351e-18 5.324854918e-19 2.383286621e-22)
5(2.183030557e-17 8.931760401e-18 2.3241783e-18 2.864033369e-19 6.775294869e-45)
5(1.983763716e-17 5.514327033e-18 1.017779448e-18 1.813078087e-46 1.373312732e-45)
5(1.586826156e-17 3.54421683e-18 1.114443246e-18 9.596999074e-46 7.006344849e-21)
5(1.070343283e-17 1.470204558e-18 3.276382528e-19 4.833753588e-45 4.926677273e-22)
5(5.180878836e-18 5.886002057e-19 2.555471619e-20 2.641835781e-44 1.833089529e-43)
5(1.997406128e-18 1.389728819e-19 6.127174743e-21 3.16686133e-21 8.341229503e-43)
5(9.085331067e-19 3.757555136e-21 3.018085612e-21 5.478018465e-43 3.71597309e-42)
5(1.28374818e-19 6.06665197e-22 6.899839485e-22 2.204808256e-42 1.566757333e-41)
5(1.730406164e-20 1.458525088e-23 8.528711248e-43 8.826240723e-42 6.132186504e-41)
5(2.262005837e-21 3.564795866e-43 3.365504247e-42 3.401452431e-41 2.298480183e-40)
5(2.660757975e-22 1.376328178e-42 1.282946121e-41 1.246960087e-40 8.327492273e-40)
5(1.110093935e-25 5.082583112e-42 4.660280571e-41 4.385561864e-40 2.864267158e-39)
5(1.472587353e-42 1.804251641e-41 1.63327216e-40 1.462021357e-39 9.540509265e-39)
5(5.240692571e-42 6.166044202e-41 5.494853922e-40 4.768976605e-39 3.030000985e-38)
5(2.350597361e-40 2.014140175e-40 1.782804235e-39 1.468242629e-38 9.209410283e-38)
5(1.048436638e-39 6.451968041e-40 5.604893071e-39 4.351953638e-38 2.59941451e-37)
5(1.876559167e-39 5.910795507e-39 1.735583843e-38 1.229443111e-37 6.980781067e-37)
5(2.616498413e-39 1.532027438e-38 8.647204676e-38 2.057595691e-37 1.744301799e-36)
5(3.571442877e-39 3.324117459e-38 0 2.358827505e-36 1.016713636e-35)
)


60
(
5(2.56499308e-13 8.579198764e-14 1.944550354e-13 9.11461246e-14 9.494710702e-14)
5(1.449419365e-13 8.539399336e-14 9.780720426e-14 6.379409427e-14 5.113778151e-14)
5(1.003281315e-13 7.978607784e-14 6.779831392e-14 5.206238264e-14 3.607005496e-14)
5(8.451510242e-14 7.279060776e-14 5.95180556e-14 4.688449037e-14 3.202556317e-14)
5(8.356814424e-14 6.637403434e-14 5.943099021e-14 4.396378346e-14 3.183474641e-14)
5(8.03419139e-14 5.876511429e-14 5.694581972e-14 4.061429995e-14 3.084581077e-14)
5(7.211755293e-14 4.937497485e-14 5.01975527e-14 3.348781462e-14 2.633015846e-14)
5(6.134764289e-14 3.951658122e-14 3.879524042e-14 2.490908753e-14 1.959906202e-14)
5(4.89359269e-14 2.907525238e-14 2.707115501e-14 1.624480352e-14 1.245577837e-14)
5(3.371983031e-14 1.811446523e-14 1.637227743e-14 8.700265769e-15 6.405414372e-15)
5(2.164899032e-14 9.45896467e-15 8.261751716e-15 3.856113441e-15 2.63450911e-15)
5(1.145089216e-14 4.654962959e-15 3.741688648e-15 1.6300035e-15 1.008073921e-15)
5(6.068001782e-15 2.3555908e-15 1.754773561e-15 7.454109948e-16 4.303450302e-16)
5(3.297755388e-15 1.271589476e-15 8.871230746e-16 3.677928691e-16 2.022982274e-16)
5(1.893847772e-15 7.245519939e-16 4.76341626e-16 1.925578254e-16 1.007158473e-16)
5(1.126374691e-15 4.271983281e-16 2.665194673e-16 1.050989748e-16 5.237824114e-17)
5(7.057565293e-16 2.60426033e-16 1.540816096e-16 5.910334336e-17 2.807817421e-17)
5(4.570216e-16 1.631035883e-16 9.198189627e-17 3.424630133e-17 1.56202844e-17)
5(3.011015913e-16 1.052199563e-16 5.623857068e-17 2.026356383e-17 8.815318411e-18)
5(2.040849467e-16 6.891995432e-17 3.506378281e-17 1.218888575e-17 5.069998785e-18)
5(1.395862736e-16 4.556673158e-17 2.206157894e-17 7.425530966e-18 2.970005187e-18)
5(9.771182635e-17 3.030778221e-17 1.400008723e-17 4.548395284e-18 1.784542762e-18)
5(6.977995165e-17 2.037615329e-17 8.966359577e-18 2.829811447e-18 1.094720035e-18)
5(4.805300105e-17 1.364107006e-17 5.757958676e-18 1.81533917e-18 7.206189486e-19)
5(3.386489241e-17 9.235888863e-18 3.777969987e-18 1.232570566e-18 5.302565492e-19)
5(2.374419905e-17 6.283178296e-18 2.553359393e-18 9.403100918e-19 4.758763723e-19)
5(1.662626457e-17 4.405457137e-18 1.88607132e-18 8.714134097e-19 5.398942557e-19)
5(1.194419526e-17 3.302009118e-18 1.645917095e-18 1.023169009e-18 7.447057958e-19)
5(8.73840816e-18 2.8595611e-18 1.805289511e-18 1.455383648e-18 1.164803201e-18)
5(6.811199663e-18 3.082349252e-18 2.45933895e-18 2.321686374e-18 1.950768391e-18)
5(6.084678221e-18 4.107851874e-18 3.849800644e-18 3.91207106e-18 3.337453054e-18)
5(6.652195883e-18 6.308752041e-18 6.413292599e-18 6.690854436e-18 5.723670775e-18)
5(8.85457536e-18 1.031557392e-17 1.088532293e-17 1.136023503e-17 9.682043896e-18)
5(1.339836584e-17 1.717161367e-17 1.832370622e-17 1.884692554e-17 1.571465688e-17)
5(2.152854103e-17 2.833876842e-17 3.013760725e-17 3.009128414e-17 2.444373335e-17)
5(3.489654516e-17 4.545020461e-17 4.76890414e-17 4.57976284e-17 3.585689404e-17)
5(5.567429822e-17 7.014156421e-17 7.18662942e-17 6.570572466e-17 4.9189568e-17)
5(8.553283328e-17 1.031180435e-16 1.02074768e-16 8.80160935e-17 6.237874421e-17)
5(1.254359493e-16 1.425663489e-16 1.351425546e-16 1.087709787e-16 7.158183721e-17)
5(1.73588744e-16 1.845217883e-16 1.651020558e-16 1.224102188e-16 7.260816449e-17)
5(2.243455752e-16 2.198482145e-16 1.83418157e-16 1.236426855e-16 6.377129024e-17)
5(2.67186972e-16 2.398891531e-16 1.839587535e-16 1.097961884e-16 4.747750644e-17)
5(2.911280321e-16 2.352334954e-16 1.634393727e-16 8.359170371e-17 2.957008338e-17)
5(2.856177534e-16 2.039426164e-16 1.265572799e-16 5.322935584e-17 1.500001976e-17)
5(2.477855071e-16 1.546498425e-16 8.321457028e-17 2.755423981e-17 6.025054528e-18)
5(1.868429406e-16 1.000171995e-16 4.508709288e-17 1.128733214e-17 1.829120498e-18)
5(1.200740051e-16 5.377700417e-17 1.925468001e-17 3.572696395e-18 4.07209287e-19)
5(6.347410691e-17 2.316500471e-17 6.251415729e-18 8.403314377e-19 6.524541896e-20)
5(2.702921874e-17 7.655667577e-18 1.473670949e-18 1.412964434e-19 7.542187811e-21)
5(8.554922385e-18 1.813893041e-18 2.4721532e-19 1.621986916e-20 6.718539921e-22)
5(1.977239304e-18 2.90928062e-19 2.691606309e-20 1.367381451e-21 4.700945274e-23)
5(2.823851461e-19 2.976685554e-20 1.979721287e-21 8.473419746e-23 2.57739893e-24)
5(2.861652457e-20 1.885666456e-21 1.014363397e-22 3.932384414e-24 1.078326348e-25)
5(1.269344002e-21 6.338391257e-23 3.070410147e-24 1.308551297e-25 3.756523069e-27)
5(2.727712074e-23 1.378647768e-24 6.120535954e-26 6.255639399e-27 1.13634233e-28)
5(1.997315826e-25 -1.132614779e-24 1.101440162e-27 9.114217065e-25 5.75071722e-30)
5(6.932442908e-28 -1.033608122e-22 -3.366382753e-26 2.381637967e-22 3.619815497e-31)
5(1.564713239e-30 4.824295229e-21 -2.134470701e-25 5.283591437e-20 1.29661632e-32)
5(3.901063412e-33 -1.600101371e-19 -4.511404873e-22 -7.538409667e-20 1.141985378e-34)
5(8.775081095e-38 4.164223721e-37 0 6.591413525e-36 2.742709406e-35)
)


60
(
5(8.021642272e-13 2.992664906e-13 5.220394161e-13 2.505110832e-13 2.0429718e-13)
5(6.361168628e-13 3.5864664e-13 3.376121476e-13 2.026817212e-13 1.320974304e-13)
5(5.415082378e-13 3.775028404e-13 2.774149558e-13 1.826367696e-13 1.06378904e-13)
5(5.131920448e-13 3.695587148e-13 2.672397465e-13 1.747242154e-13 1.008462759e-13)
5(5.098239006e-13 3.534262394e-13 2.70631162e-13 1.69438736e-13 1.003959489e-13)
5(5.141348446e-13 3.312066639e-13 2.66151274e-13 1.591818425e-13 9.752583431e-14)
5(4.861251251e-13 2.964542237e-13 2.393554541e-13 1.37560047e-13 8.483398693e-14)
5(4.309079217e-13 2.479999975e-13 1.961153636e-13 1.076727034e-13 6.512857187e-14)
5(3.484629947e-13 1.868750338e-13 1.423124547e-13 7.292637877e-14 4.301671973e-14)
5(2.580086571e-13 1.212219599e-13 8.896070369e-14 4.044381146e-14 2.244328896e-14)
5(1.682265441e-13 6.583554847e-14 4.546540307e-14 1.820982563e-14 9.438866828e-15)
5(9.301770145e-14 3.282332488e-14 2.072548951e-14 7.594842237e-15 3.534450069e-15)
5(4.954359923e-14 1.666666545e-14 9.698438246e-15 3.436979185e-15 1.495615218e-15)
5(2.788120048e-14 9.047896719e-15 4.940536591e-15 1.713106861e-15 7.126711388e-16)
5(1.622841847e-14 5.209543985e-15 2.677970441e-15 9.10879739e-16 3.589153403e-16)
5(1.008175277e-14 3.126112723e-15 1.526361704e-15 5.054523866e-16 1.917002778e-16)
5(6.39958087e-15 1.945817399e-15 8.992620944e-16 2.896113055e-16 1.057326906e-16)
5(4.23973727e-15 1.238834888e-15 5.472937779e-16 1.709453557e-16 6.061611195e-17)
5(2.888617232e-15 8.05298071e-16 3.388300432e-16 1.033593214e-16 3.541539394e-17)
5(1.993689196e-15 5.324553004e-16 2.138991774e-16 6.360872421e-17 2.11192313e-17)
5(1.447043971e-15 3.567181306e-16 1.366983088e-16 3.97113533e-17 1.277721733e-17)
5(1.007370859e-15 2.404217718e-16 8.823194205e-17 2.495428378e-17 7.896568654e-18)
5(7.401535153e-16 1.631504005e-16 5.711405951e-17 1.578125733e-17 4.999538813e-18)
5(5.300320583e-16 1.109023089e-16 3.710250521e-17 1.013775292e-17 3.267061194e-18)
5(3.950310371e-16 7.555371109e-17 2.419347756e-17 6.679268875e-18 2.294075348e-18)
5(2.862107819e-16 5.148535187e-17 1.597600889e-17 4.603575367e-18 1.817349016e-18)
5(2.105166042e-16 3.529373379e-17 1.079392637e-17 3.521168792e-18 1.714198556e-18)
5(1.596776757e-16 2.433454682e-17 7.78208936e-18 3.179120632e-18 1.985581616e-18)
5(1.15249683e-16 1.754073405e-17 6.381796163e-18 3.556269586e-18 2.717242652e-18)
5(8.657992248e-17 1.372687454e-17 6.367584661e-18 4.791599172e-18 4.17901988e-18)
5(6.515554035e-17 1.236139275e-17 7.880095132e-18 7.279093204e-18 6.71551231e-18)
5(5.113907739e-17 1.36816379e-17 1.140906779e-17 1.173608385e-17 1.115749817e-17)
5(4.255040449e-17 1.813586756e-17 1.792636824e-17 1.931344856e-17 1.84320313e-17)
5(4.034296901e-17 2.67860318e-17 2.898594053e-17 3.153162527e-17 3.007382085e-17)
5(4.478669209e-17 4.160437304e-17 4.676443078e-17 5.044415073e-17 4.724621562e-17)
5(5.881243794e-17 6.50896462e-17 7.380298491e-17 7.801205592e-17 7.140732753e-17)
5(8.257760053e-17 9.997450265e-17 1.124772251e-16 1.152299882e-16 1.021482314e-16)
5(1.195895394e-16 1.485333993e-16 1.634950005e-16 1.609126532e-16 1.36708564e-16)
5(1.733101189e-16 2.109162356e-16 2.242486685e-16 2.10231031e-16 1.689216683e-16)
5(2.4155766e-16 2.82649587e-16 2.878771976e-16 2.542295858e-16 1.901399744e-16)
5(3.198500933e-16 3.541593133e-16 3.418686656e-16 2.810580877e-16 1.912672536e-16)
5(3.974877112e-16 4.109869333e-16 3.709856549e-16 2.799584124e-16 1.699495899e-16)
5(4.571904085e-16 4.357548684e-16 3.633985298e-16 2.469177927e-16 1.317057174e-16)
5(4.798472455e-16 4.171387199e-16 3.170428806e-16 1.892114792e-16 8.730480397e-17)
5(4.556122771e-16 3.548557736e-16 2.412528118e-16 1.2361389e-16 4.840935523e-17)
5(3.836433544e-16 2.637043423e-16 1.566150993e-16 6.736813775e-17 2.166430652e-17)
5(2.815147278e-16 1.680560873e-16 8.405176524e-17 2.970561219e-17 7.722663057e-18)
5(1.761554116e-16 8.880748215e-17 3.625013839e-17 1.030781319e-17 2.050779186e-18)
5(9.128565251e-17 3.765930549e-17 1.203528047e-17 2.732195673e-18 4.062348927e-19)
5(3.762173161e-17 1.221872188e-17 2.969243773e-18 5.143585095e-19 5.779027579e-20)
5(1.185972066e-17 2.847457271e-18 5.129748553e-19 6.938540062e-20 5.547089058e-21)
5(2.542277917e-18 4.405937336e-19 5.717229151e-20 6.025004966e-21 4.214790561e-22)
5(3.410055333e-19 4.205587211e-20 3.976380588e-21 3.505684653e-22 2.096920223e-23)
5(2.357744979e-20 2.202452079e-21 1.482721048e-22 1.192877417e-23 7.379726008e-25)
5(8.961773369e-22 5.667442022e-23 3.226473879e-24 3.419635516e-26 2.05860171e-26)
5(1.365651237e-23 -1.096101691e-22 3.168246065e-25 -5.284359361e-23 4.05267284e-28)
5(5.706572948e-26 -2.539011073e-20 6.907133373e-23 -1.230992304e-20 1.308659243e-29)
5(4.539817448e-29 -7.368130917e-18 1.588929341e-20 -3.366088327e-18 4.985667494e-31)
5(1.024523784e-31 -3.00529397e-15 -2.240425753e-20 -1.117738653e-15 2.751357963e-33)
5(1.773727821e-35 4.13224953e-36 0 2.962823824e-35 9.381482155e-35)
)


60
(
5(2.012070831e-12 7.994263551e-13 1.162391737e-12 5.69103114e-13 3.930477293e-13)
5(1.9630589e-12 1.079977788e-12 8.933911581e-13 5.080142437e-13 2.861355578e-13)
5(1.909901094e-12 1.212046655e-12 8.130590553e-13 4.87214662e-13 2.483557164e-13)
5(1.894189911e-12 1.232839112e-12 8.154553212e-13 4.827151997e-13 2.416700157e-13)
5(1.96233105e-12 1.215288911e-12 8.43232203e-13 4.772604977e-13 2.456273298e-13)
5(2.014510287e-12 1.172863746e-12 8.369739353e-13 4.538343923e-13 2.402326249e-13)
5(1.950729082e-12 1.068782394e-12 7.643402576e-13 4.011506282e-13 2.122378353e-13)
5(1.764613588e-12 9.196526343e-13 6.383405576e-13 3.230545796e-13 1.670270029e-13)
5(1.511653846e-12 7.20551522e-13 4.765047709e-13 2.262908124e-13 1.13197602e-13)
5(1.15545833e-12 4.794243704e-13 3.055199558e-13 1.310486014e-13 6.205838161e-14)
5(7.505658104e-13 2.701273855e-13 1.623171948e-13 6.099671088e-14 2.709434623e-14)
5(4.347887373e-13 1.347564214e-13 7.412418112e-14 2.531381659e-14 1.02157496e-14)
5(2.367425061e-13 6.776138492e-14 3.396573469e-14 1.116695766e-14 4.171312798e-15)
5(1.331916579e-13 3.656297676e-14 1.707995754e-14 5.507641014e-15 1.994031928e-15)
5(7.773118631e-14 2.102813153e-14 9.240312701e-15 2.933185393e-15 1.018518776e-15)
5(4.884779516e-14 1.262403116e-14 5.257037992e-15 1.637853304e-15 5.546479036e-16)
5(3.211115557e-14 7.835656976e-15 3.105552033e-15 9.453268983e-16 3.107703515e-16)
5(2.137678408e-14 5.007529648e-15 1.892064941e-15 5.636350058e-16 1.820622991e-16)
5(1.496601561e-14 3.270672442e-15 1.179447444e-15 3.438196933e-16 1.087227664e-16)
5(1.063494398e-14 2.186683909e-15 7.504069201e-16 2.141611826e-16 6.622682017e-17)
5(7.736998458e-15 1.484134225e-15 4.825437536e-16 1.351740764e-16 4.130488328e-17)
5(5.703984567e-15 1.014677042e-15 3.149308129e-16 8.638686565e-17 2.613193938e-17)
5(4.294457389e-15 7.039231474e-16 2.070061425e-16 5.552814134e-17 1.694779225e-17)
5(3.218054172e-15 4.931793011e-16 1.3683583e-16 3.612555402e-17 1.124019432e-17)
5(2.448626009e-15 3.47840004e-16 9.06560671e-17 2.389255556e-17 7.696972122e-18)
5(1.905112924e-15 2.4573215e-16 6.041560009e-17 1.621904168e-17 5.71297464e-18)
5(1.475319537e-15 1.755205474e-16 4.078783759e-17 1.157204933e-17 4.788773073e-18)
5(1.171321338e-15 1.261155397e-16 2.842517345e-17 9.120833123e-18 4.66836461e-18)
5(9.023035876e-16 9.186979183e-17 2.100457837e-17 8.39083459e-18 5.473595043e-18)
5(6.979545743e-16 6.889915681e-17 1.734135107e-17 9.260812655e-18 7.321540405e-18)
5(5.461945994e-16 5.398437644e-17 1.696390561e-17 1.206751407e-17 1.087806068e-17)
5(4.233530134e-16 4.598401658e-17 1.995168653e-17 1.755333869e-17 1.696795557e-17)
5(3.247551121e-16 4.408388746e-17 2.700862275e-17 2.707102186e-17 2.712349028e-17)
5(2.581191381e-16 4.881826476e-17 3.984002983e-17 4.25808612e-17 4.312645999e-17)
5(2.050571485e-16 6.204420597e-17 6.099856233e-17 6.691018087e-17 6.798413719e-17)
5(1.7758119e-16 8.590070461e-17 9.372136136e-17 1.031668734e-16 1.028826504e-16)
5(1.721125647e-16 1.239926294e-16 1.417107218e-16 1.538203454e-16 1.50235355e-16)
5(1.882262771e-16 1.797443939e-16 2.072371202e-16 2.194969068e-16 2.079774811e-16)
5(2.314707112e-16 2.546093971e-16 2.899984225e-16 2.964410626e-16 2.688741477e-16)
5(2.983298688e-16 3.467100448e-16 3.838380408e-16 3.748902929e-16 3.213570477e-16)
5(3.861557575e-16 4.482042959e-16 4.750162658e-16 4.39289537e-16 3.493851544e-16)
5(4.853214881e-16 5.427326811e-16 5.441258153e-16 4.704707209e-16 3.437335729e-16)
5(5.780260051e-16 6.087764948e-16 5.70224894e-16 4.543112908e-16 3.005320612e-16)
5(6.408278663e-16 6.250747213e-16 5.397493981e-16 3.893449401e-16 2.312560862e-16)
5(6.533583552e-16 5.799117281e-16 4.538966204e-16 2.917300024e-16 1.530121889e-16)
5(6.029481345e-16 4.788031835e-16 3.326487731e-16 1.875187299e-16 8.455415937e-17)
5(4.961013659e-16 3.460890668e-16 2.074438989e-16 1.013530298e-16 3.850662187e-17)
5(3.585578369e-16 2.137882157e-16 1.07763877e-16 4.44706433e-17 1.375906629e-17)
5(2.21425537e-16 1.094414117e-16 4.474055007e-17 1.53306708e-17 3.817430636e-18)
5(1.141557079e-16 4.476538191e-17 1.408775799e-17 3.936431286e-18 7.770502727e-19)
5(4.747156935e-17 1.385560341e-17 3.288113204e-18 7.44276667e-19 1.117447566e-19)
5(1.47706099e-17 2.969817861e-18 5.278263152e-19 9.149416202e-20 1.039145046e-20)
5(3.060253123e-18 4.212255453e-19 5.262512893e-20 7.35439608e-21 6.983143905e-22)
5(3.990562379e-19 3.436017964e-20 2.824217772e-21 3.495042799e-22 2.854665546e-23)
5(2.840953266e-20 1.370978264e-21 7.164395596e-23 1.236688197e-23 7.312497541e-25)
5(7.398787387e-22 7.652121796e-22 -7.779153126e-24 5.70255447e-22 1.454063907e-26)
5(3.212479656e-24 1.48230273e-19 -1.598097693e-21 1.083923884e-19 1.912839213e-28)
5(1.852466055e-26 4.135337473e-17 -3.958860373e-19 2.760232627e-17 5.078687845e-30)
5(1.562200301e-29 1.955206379e-14 -1.425743446e-16 1.122616047e-14 4.614581955e-32)
5(2.236717322e-31 1.941159485e-12 1.772153631e-20 1.436211011e-14 2.549717082e-34)
)


60
(
5(4.402788226e-12 1.78398042e-12 2.255838901e-12 1.122619638e-12 6.954595096e-13)
5(4.973134484e-12 2.587098539e-12 1.948846679e-12 1.074575613e-12 5.53859848e-13)
5(5.261620822e-12 3.020383111e-12 1.898277498e-12 1.07268982e-12 5.072525859e-13)
5(5.459487361e-12 3.17025266e-12 1.960983961e-12 1.087005682e-12 5.056502543e-13)
5(5.783242647e-12 3.19676897e-12 2.038900176e-12 1.088821945e-12 5.170254931e-13)
5(6.059600788e-12 3.11920245e-12 2.031106197e-12 1.046951952e-12 5.089793611e-13)
5(6.050460207e-12 2.910986762e-12 1.877097124e-12 9.414823503e-13 4.565622431e-13)
5(5.633078823e-12 2.555157177e-12 1.597263246e-12 7.724657461e-13 3.663415594e-13)
5(4.89306901e-12 2.051730999e-12 1.225511984e-12 5.602440997e-13 2.562059957e-13)
5(3.890112175e-12 1.447833919e-12 8.115754547e-13 3.393635458e-13 1.490934866e-13)
5(2.650921966e-12 8.397894924e-13 4.433604625e-13 1.655017332e-13 6.705524277e-14)
5(1.551628382e-12 4.27693104e-13 2.047972713e-13 6.907991936e-14 2.590574481e-14)
5(8.569082898e-13 2.120416768e-13 9.263913551e-14 2.968893529e-14 1.038294566e-14)
5(4.96671009e-13 1.126235741e-13 4.582151899e-14 1.43994703e-14 4.881967735e-15)
5(2.932012816e-13 6.443193388e-14 2.469269594e-14 7.637300477e-15 2.543892251e-15)
5(1.846942955e-13 3.874529698e-14 1.410459617e-14 4.268363726e-15 1.400168499e-15)
5(1.232313722e-13 2.429999289e-14 8.336433386e-15 2.48216882e-15 7.917304813e-16)
5(8.444234437e-14 1.568329772e-14 5.090874328e-15 1.49338555e-15 4.706777405e-16)
5(5.991074145e-14 1.040322166e-14 3.201338345e-15 9.173072584e-16 2.852257073e-16)
5(4.37367028e-14 7.087022056e-15 2.052636525e-15 5.770706207e-16 1.783282612e-16)
5(3.258886125e-14 4.930687333e-15 1.339272024e-15 3.68619072e-16 1.124947849e-16)
5(2.464481998e-14 3.483032579e-15 8.876952586e-16 2.391750594e-16 7.318071198e-17)
5(1.917465159e-14 2.51299161e-15 5.970237028e-16 1.570284623e-16 4.827828073e-17)
5(1.521813448e-14 1.836437025e-15 4.048002111e-16 1.04041051e-16 3.214787764e-17)
5(1.18637155e-14 1.36179646e-15 2.763018719e-16 6.96698639e-17 2.218608276e-17)
5(9.642105483e-15 1.030797237e-15 1.909105035e-16 4.753658897e-17 1.611982969e-17)
5(7.605375464e-15 7.731431067e-16 1.340758428e-16 3.347665094e-17 1.249782819e-17)
5(6.174319492e-15 5.935616671e-16 9.600758538e-17 2.499014936e-17 1.091424655e-17)
5(4.975538508e-15 4.636365345e-16 7.063319345e-17 2.045787433e-17 1.100198813e-17)
5(4.106274914e-15 3.62240098e-16 5.486882606e-17 1.920294117e-17 1.285746702e-17)
5(3.287423952e-15 2.83500063e-16 4.657708014e-17 2.103958235e-17 1.693550052e-17)
5(2.575262564e-15 2.283476045e-16 4.429295608e-17 2.655808786e-17 2.440357475e-17)
5(2.017493082e-15 1.875785209e-16 4.803898742e-17 3.692376857e-17 3.638794936e-17)
5(1.570136947e-15 1.632176273e-16 5.915494554e-17 5.42851719e-17 5.581230825e-17)
5(1.231989848e-15 1.517754577e-16 8.005190188e-17 8.167904591e-17 8.554239787e-17)
5(9.524450844e-16 1.559377587e-16 1.141592578e-16 1.229672085e-16 1.289854297e-16)
5(7.264511381e-16 1.807357114e-16 1.65839326e-16 1.820906728e-16 1.894049028e-16)
5(5.779764117e-16 2.270579351e-16 2.3889093e-16 2.618073828e-16 2.672716152e-16)
5(4.916593335e-16 2.978300176e-16 3.351264515e-16 3.6063665e-16 3.564858557e-16)
5(4.714090494e-16 3.949738074e-16 4.507740008e-16 4.707670894e-16 4.446950351e-16)
5(5.069479411e-16 5.12281184e-16 5.75080977e-16 5.761859447e-16 5.128166451e-16)
5(5.813795233e-16 6.360177519e-16 6.875615906e-16 6.526789781e-16 5.424082651e-16)
5(6.788793386e-16 7.446643234e-16 7.61231814e-16 6.758504583e-16 5.17653037e-16)
5(7.712227334e-16 8.104850139e-16 7.721068297e-16 6.317045294e-16 4.425464971e-16)
5(8.275885536e-16 8.099450193e-16 7.051172169e-16 5.251077025e-16 3.329322469e-16)
5(8.235408402e-16 7.342521832e-16 5.737848833e-16 3.825448251e-16 2.166829871e-16)
5(7.508061381e-16 5.94416705e-16 4.06108247e-16 2.400878627e-16 1.185835234e-16)
5(6.164303708e-16 4.231281693e-16 2.444412489e-16 1.260986791e-16 5.311107686e-17)
5(4.476652855e-16 2.581537134e-16 1.220538859e-16 5.371737698e-17 1.87738561e-17)
5(2.826442861e-16 1.312106581e-16 4.877778999e-17 1.802046442e-17 4.973208506e-18)
5(1.503879216e-16 5.318315388e-17 1.48525013e-17 4.478682359e-18 9.750917698e-19)
5(6.543355714e-17 1.605872034e-17 3.222972138e-18 7.876455987e-19 1.486864432e-19)
5(2.237132427e-17 3.548299035e-18 4.645281438e-19 8.689717109e-20 1.101816604e-20)
5(5.327630435e-18 5.115964407e-19 3.882742831e-20 5.695657355e-21 7.369687438e-22)
5(7.183925772e-19 3.845213506e-20 1.689351699e-21 1.885791181e-22 2.228678799e-23)
5(7.369235102e-20 2.326950299e-21 2.486989991e-23 6.972011552e-22 2.134272639e-25)
5(2.680756623e-21 1.713702537e-19 -6.800650486e-22 1.035481594e-19 3.040538971e-27)
5(2.509494507e-23 4.161650602e-17 -1.145632215e-19 1.996096125e-17 4.226651685e-29)
5(1.429310444e-25 1.515978524e-14 8.439394677e-20 5.40680917e-15 3.415068045e-31)
5(1.253939083e-25 1.909803005e-29 0 2.828643933e-34 5.571679394e-34)
)


60
(
5(8.755443321e-12 3.499147163e-12 3.961691854e-12 2.002748432e-12 1.15197324e-12)
5(1.116144341e-11 5.355734002e-12 3.726861416e-12 2.012085172e-12 9.850620878e-13)
5(1.259320049e-11 6.462580087e-12 3.802287742e-12 2.067562776e-12 9.392412622e-13)
5(1.353658257e-11 6.901876735e-12 3.999526817e-12 2.127892261e-12 9.530413801e-13)
5(1.477740123e-11 7.069484494e-12 4.183810658e-12 2.149751205e-12 9.801750693e-13)
5(1.597704967e-11 7.070301606e-12 4.18250428e-12 2.084795911e-12 9.69716265e-13)
5(1.610422296e-11 6.720750582e-12 3.920215745e-12 1.899257197e-12 8.791722806e-13)
5(1.546166095e-11 6.01870229e-12 3.396734881e-12 1.593251346e-12 7.230562584e-13)
5(1.379758798e-11 4.967027525e-12 2.675866338e-12 1.191435079e-12 5.234895078e-13)
5(1.133609674e-11 3.595815956e-12 1.826825746e-12 7.559237212e-13 3.147792183e-13)
5(7.972357039e-12 2.209926039e-12 1.03428347e-12 3.860134336e-13 1.514416179e-13)
5(4.961904686e-12 1.156264842e-12 4.90354182e-13 1.657045834e-13 6.090371786e-14)
5(2.750671505e-12 5.746588772e-13 2.199601777e-13 6.968781004e-14 2.372015837e-14)
5(1.580545843e-12 3.043506779e-13 1.069914196e-13 3.303707094e-14 1.094932943e-14)
5(9.477129567e-13 1.745628037e-13 5.73727321e-14 1.741576547e-14 5.666196906e-15)
5(6.095079707e-13 1.062449111e-13 3.28076504e-14 9.762705697e-15 3.155171321e-15)
5(4.113687124e-13 6.732601693e-14 1.958800579e-14 5.70812291e-15 1.810919827e-15)
5(2.934510061e-13 4.44695204e-14 1.212443128e-14 3.445721965e-15 1.089683643e-15)
5(2.095851325e-13 3.02479673e-14 7.710319239e-15 2.14084622e-15 6.681375373e-16)
5(1.54921327e-13 2.121163096e-14 5.041563662e-15 1.362057008e-15 4.271418503e-16)
5(1.180953256e-13 1.524830241e-14 3.367312156e-15 8.835638186e-16 2.745594377e-16)
5(9.093399712e-14 1.1198659e-14 2.293218839e-15 5.836446167e-16 1.791584233e-16)
5(7.31134996e-14 8.427696911e-15 1.596599936e-15 3.898694237e-16 1.19675474e-16)
5(5.837619553e-14 6.477555103e-15 1.128505572e-15 2.637285426e-16 8.156189281e-17)
5(4.695297803e-14 5.044857433e-15 8.102575698e-16 1.812932863e-16 5.688390759e-17)
5(3.869537309e-14 3.973220185e-15 5.94032147e-16 1.264032217e-16 4.094076985e-17)
5(3.243482838e-14 3.18072021e-15 4.422330249e-16 9.010816414e-17 3.098900361e-17)
5(2.677067681e-14 2.575722578e-15 3.334213827e-16 6.691127829e-17 2.546837253e-17)
5(2.162747637e-14 2.087291882e-15 2.559574142e-16 5.243551803e-17 2.300367692e-17)
5(1.800655398e-14 1.682854919e-15 2.029678052e-16 4.447032317e-17 2.359995141e-17)
5(1.478445435e-14 1.381965572e-15 1.665722249e-16 4.230067418e-17 2.752224163e-17)
5(1.212013245e-14 1.140057993e-15 1.412904344e-16 4.539632588e-17 3.537309183e-17)
5(9.718604798e-15 9.169941029e-16 1.276902174e-16 5.467937386e-17 4.880800648e-17)
5(7.561917532e-15 7.455417695e-16 1.254088269e-16 7.195026251e-17 7.087702044e-17)
5(5.974158907e-15 6.114563405e-16 1.361485423e-16 1.002048835e-16 1.041461024e-16)
5(4.497161091e-15 5.159900056e-16 1.621759445e-16 1.436742884e-16 1.534679007e-16)
5(3.43789903e-15 4.558868331e-16 2.077064877e-16 2.072530393e-16 2.231388686e-16)
5(2.498112162e-15 4.287889889e-16 2.781896995e-16 2.948692452e-16 3.158364983e-16)
5(1.837586447e-15 4.433134992e-16 3.76543993e-16 4.082011783e-16 4.29161023e-16)
5(1.357500324e-15 5.017538014e-16 5.02494842e-16 5.42516843e-16 5.516193399e-16)
5(1.057678608e-15 5.975503005e-16 6.484694471e-16 6.841681789e-16 6.605343749e-16)
5(9.128656529e-16 7.216235346e-16 7.972782362e-16 8.083174283e-16 7.387124401e-16)
5(8.890055416e-16 8.528925609e-16 9.213499514e-16 8.848572351e-16 7.544015704e-16)
5(9.280734424e-16 9.62185396e-16 9.884304092e-16 8.868664487e-16 7.001131296e-16)
5(9.911377165e-16 1.019628517e-15 9.708048837e-16 8.03265351e-16 5.813461498e-16)
5(1.029557674e-15 1.000122163e-15 8.633391312e-16 6.483391472e-16 4.247042164e-16)
5(1.005006573e-15 8.954851976e-16 6.830760027e-16 4.589790936e-16 2.668285248e-16)
5(9.154031708e-16 7.209738545e-16 4.716689668e-16 2.795552814e-16 1.425287628e-16)
5(7.577627973e-16 5.136411938e-16 2.789949487e-16 1.422693853e-16 6.161568331e-17)
5(5.635138841e-16 3.172109102e-16 1.368205688e-16 5.820826203e-17 2.09448916e-17)
5(3.668784424e-16 1.645277436e-16 5.36247824e-17 1.852612002e-17 5.390286818e-18)
5(2.060051533e-16 7.041015484e-17 1.593259538e-17 4.304619153e-18 9.782375611e-19)
5(9.467296647e-17 2.247534911e-17 3.446246425e-18 6.624017904e-19 1.17638126e-19)
5(3.689660528e-17 5.294318242e-18 4.620590779e-19 6.677507793e-20 9.686276956e-21)
5(9.622554227e-18 8.276502691e-19 3.423786454e-20 3.413619313e-21 3.597436431e-22)