/*--------------------------------*- C++ -*----------------------------------*\
| =========                 |                                                 |
| \\      /  F ield         | OpenFOAM: The Open Source CFD Toolbox           |
|  \\    /   O peration     | Version:  2.3.1                                 |
|   \\  /    A nd           | Web:      www.OpenFOAM.org                      |
|    \\/     M anipulation  |                                                 |
\*---------------------------------------------------------------------------*/
FoamFile
{
    version     2.0;
    format      ascii;
    class       dictionary;
    location    "constant";
    object      CH3OCH3;
}
// * * * * * * * * * * * * * * * * * * * * * * * * * * * * * * * * * * * * * //

CH3OCH3_table
60
(

60
(
5(2.009446635e-12 3.840725135e-13 1.264496022e-12 4.950961156e-13 5.86042436e-13)
5(5.893898104e-13 3.992642524e-14 3.812987705e-13 1.951181533e-13 2.033308734e-13)
5(0 9.399501126e-14 8.865832389e-14 4.5552961e-14 0)
5(0 1.135714592e-13 7.373227205e-14 0 2.257551962e-14)
5(0 9.61686729e-14 1.006119393e-13 3.74618923e-14 1.501031961e-14)
5(6.580005271e-14 7.857809702e-14 3.051395294e-14 5.022027536e-14 2.232248313e-14)
5(1.710666814e-13 6.313239439e-14 5.202105807e-14 2.813506332e-14 5.683011925e-14)
5(5.812707152e-14 5.702437091e-14 7.99457883e-14 3.289502507e-14 9.449844832e-15)
5(9.252931942e-14 5.644843522e-14 5.019095737e-14 2.96087369e-14 1.643025672e-14)
5(5.992484692e-14 5.846286426e-14 5.879236209e-14 2.163842192e-14 1.538296613e-14)
5(6.703338221e-14 5.279882391e-14 5.172735837e-14 2.034236836e-14 1.469233417e-14)
5(7.761016593e-14 4.417778094e-14 3.843573711e-14 1.836369644e-14 1.127605779e-14)
5(5.045529347e-14 3.938920261e-14 3.209638675e-14 1.833652995e-14 1.108450849e-14)
5(5.58778644e-14 3.457395374e-14 2.813695884e-14 1.211304435e-14 7.978715761e-15)
5(3.868888442e-14 2.642011965e-14 2.119318347e-14 1.102129235e-14 6.038072131e-15)
5(3.749359788e-14 2.727351207e-14 1.965764073e-14 9.530996152e-15 4.968093059e-15)
5(3.190123422e-14 2.212753538e-14 1.654383797e-14 7.242412575e-15 4.07385273e-15)
5(2.447681579e-14 1.704055786e-14 1.148191246e-14 5.695400909e-15 3.121685995e-15)
5(1.775054027e-14 1.212570311e-14 8.777764146e-15 4.138204064e-15 2.552659544e-15)
5(1.498298165e-14 9.084565748e-15 7.001855559e-15 3.440852788e-15 1.794379621e-15)
5(1.11888399e-14 6.452333193e-15 4.711799564e-15 2.337864748e-15 1.044078913e-15)
5(8.498206379e-15 4.619833603e-15 3.649832262e-15 1.237289643e-15 5.665006937e-16)
5(6.875351887e-15 3.527305904e-15 2.561317847e-15 1.019789684e-15 4.489348435e-16)
5(4.955936998e-15 2.862456477e-15 1.801174363e-15 7.258179507e-16 2.921364924e-16)
5(4.050513759e-15 2.459581905e-15 1.414542422e-15 6.000772634e-16 2.331786112e-16)
5(3.250922528e-15 2.369154067e-15 1.273907233e-15 5.704672515e-16 1.932476575e-16)
5(2.779008537e-15 2.043404673e-15 1.100581888e-15 5.905029425e-16 1.986208231e-16)
5(2.612233774e-15 1.800543044e-15 1.231462057e-15 6.872129752e-16 2.301305966e-16)
5(3.006796846e-15 2.202163707e-15 1.420714985e-15 8.371376332e-16 3.016628754e-16)
5(3.619622892e-15 2.942187675e-15 1.812531001e-15 1.025505194e-15 3.85924953e-16)
5(4.837805731e-15 4.077042085e-15 2.590171695e-15 1.487916838e-15 5.369447992e-16)
5(6.56506124e-15 5.505802444e-15 3.370745017e-15 1.788293852e-15 5.304741994e-16)
5(9.030716683e-15 7.765422734e-15 4.763896239e-15 2.392770627e-15 9.061155919e-16)
5(1.277766255e-14 1.093415006e-14 6.789446096e-15 2.949923357e-15 7.55872942e-16)
5(1.787538483e-14 1.437192189e-14 8.585004733e-15 3.543913721e-15 8.632486694e-16)
5(2.416139639e-14 1.957966843e-14 1.214646549e-14 4.080351806e-15 8.866744211e-16)
5(3.150513096e-14 2.177729519e-14 1.097534265e-14 3.527489585e-15 7.501672671e-16)
5(3.894425872e-14 2.625270702e-14 1.153086445e-14 3.459241527e-15 1.924749543e-16)
5(4.610918762e-14 2.709054865e-14 1.182279701e-14 2.431566999e-15 3.511167829e-16)
5(5.246943305e-14 2.633877847e-14 1.108084879e-14 1.714257635e-15 3.838936076e-19)
5(5.160703752e-14 2.078069708e-14 6.465684117e-15 8.492086415e-16 3.902207649e-19)
5(4.434092944e-14 1.510930175e-14 3.588337695e-15 4.209033304e-16 5.013372521e-46)
5(3.474775682e-14 8.320216692e-15 1.390504068e-15 1.254213594e-47 9.591393286e-47)
5(2.400480498e-14 4.659281457e-15 1.223548868e-15 6.121506242e-47 2.902726175e-17)
5(1.407496619e-14 1.740986559e-15 3.213781045e-16 2.817553298e-46 2.912753348e-18)
5(6.105339891e-15 6.051776055e-16 2.367821888e-17 1.455529339e-45 1.002692692e-44)
5(2.108665739e-15 1.231313955e-16 6.003706655e-18 1.008536373e-17 4.205296179e-44)
5(8.836796304e-16 3.326020614e-18 3.147667052e-18 2.622796821e-44 1.757671476e-43)
5(1.103355757e-16 4.648819274e-19 7.85913593e-19 9.726236929e-44 7.002167281e-43)
5(1.305672216e-17 1.042598322e-20 3.557417729e-44 3.632920316e-43 2.543660341e-42)
5(1.55655807e-18 1.433545278e-44 1.319971906e-43 1.313735085e-42 8.937050473e-42)
5(1.734517699e-19 5.203773147e-44 4.738908199e-43 4.540082228e-42 3.055420716e-41)
5(5.430923917e-23 1.808483555e-43 1.626767604e-42 1.511791308e-41 9.954127352e-41)
5(5.1770496e-44 6.087556226e-43 5.397452676e-42 4.777416613e-41 3.145347339e-40)
5(1.741670917e-43 1.974490812e-42 1.72538856e-41 1.483552425e-40 9.50844527e-40)
5(6.148206718e-42 6.134238833e-42 5.326841392e-41 4.352617438e-40 2.755434086e-39)
5(2.711522363e-41 1.871133252e-41 1.596377906e-40 1.232166942e-39 7.422053337e-39)
5(4.845191895e-41 1.521937688e-40 4.71973839e-40 3.327455668e-39 1.907384541e-38)
5(6.755610931e-41 3.886380054e-40 2.187646846e-39 5.343852131e-39 4.563514215e-38)
5(9.213185719e-41 8.362351151e-40 3.096081077e-38 5.817164814e-38 2.531463293e-37)
)


60
(
5(8.303153784e-12 2.316428759e-12 3.878739121e-12 1.578307062e-12 1.179876034e-12)
5(4.95210688e-12 2.416672726e-12 2.144807169e-12 1.193175517e-12 7.575292091e-13)
5(3.806616163e-12 2.492367627e-12 1.623811903e-12 1.050312208e-12 5.979375018e-13)
5(3.706581225e-12 2.597705296e-12 1.577776486e-12 1.028700043e-12 5.682000975e-13)
5(4.330795848e-12 2.745129664e-12 1.757214059e-12 1.059594142e-12 5.952001625e-13)
5(4.943694934e-12 2.852619389e-12 1.909463178e-12 1.088938846e-12 6.190236076e-13)
5(5.253875257e-12 2.84658803e-12 1.941645939e-12 1.053199435e-12 6.020461878e-13)
5(5.293031952e-12 2.798661667e-12 1.841380506e-12 9.88728658e-13 5.580866398e-13)
5(5.209312584e-12 2.744727637e-12 1.718608949e-12 9.193867438e-13 5.067204197e-13)
5(4.956501414e-12 2.63804972e-12 1.607960113e-12 8.457942877e-13 4.586765656e-13)
5(4.99303414e-12 2.496297312e-12 1.508230632e-12 7.71502786e-13 4.108672582e-13)
5(4.764784201e-12 2.360543724e-12 1.395974295e-12 6.95381216e-13 3.621370427e-13)
5(4.599462122e-12 2.194332491e-12 1.276368966e-12 6.157993048e-13 3.134456381e-13)
5(4.38030207e-12 2.025514118e-12 1.148818434e-12 5.339419665e-13 2.654707054e-13)
5(4.130194793e-12 1.851500026e-12 1.020556802e-12 4.573111976e-13 2.210256306e-13)
5(3.811897025e-12 1.661941101e-12 8.910714891e-13 3.857271922e-13 1.808439142e-13)
5(3.547005465e-12 1.472519239e-12 7.645296982e-13 3.191650481e-13 1.452281503e-13)
5(3.248213285e-12 1.28617271e-12 6.479775535e-13 2.605582447e-13 1.149300395e-13)
5(2.919998689e-12 1.115914443e-12 5.409836192e-13 2.091047814e-13 8.903643848e-14)
5(2.606595673e-12 9.52069167e-13 4.451292895e-13 1.648745818e-13 6.761604372e-14)
5(2.287920766e-12 7.96519519e-13 3.583264463e-13 1.275936002e-13 5.058355235e-14)
5(1.993011277e-12 6.534176208e-13 2.828642487e-13 9.638845813e-14 3.735586805e-14)
5(1.717251144e-12 5.291083909e-13 2.195246416e-13 7.169726916e-14 2.715485896e-14)
5(1.414185842e-12 4.170431148e-13 1.662251922e-13 5.289119432e-14 1.992491989e-14)
5(1.164966895e-12 3.248717891e-13 1.245306352e-13 3.893275462e-14 1.492152213e-14)
5(9.343225211e-13 2.470065514e-13 9.147493436e-14 2.913809562e-14 1.19118188e-14)
5(7.349789535e-13 1.852016726e-13 6.740990845e-14 2.290140731e-14 1.055764332e-14)
5(5.751724831e-13 1.370092799e-13 5.105017039e-14 1.987954911e-14 1.071210034e-14)
5(4.402336683e-13 1.021104426e-13 4.105150294e-14 1.964369458e-14 1.228009245e-14)
5(3.322949417e-13 7.96841018e-14 3.688283413e-14 2.212241276e-14 1.544693672e-14)
5(2.509634063e-13 6.750581577e-14 3.797342024e-14 2.745773323e-14 2.036422287e-14)
5(1.944852226e-13 6.468997978e-14 4.432078707e-14 3.590765956e-14 2.734361309e-14)
5(1.593274266e-13 7.061590292e-14 5.592129192e-14 4.779621263e-14 3.663040774e-14)
5(1.417439811e-13 8.478275994e-14 7.29310759e-14 6.32557033e-14 4.788082004e-14)
5(1.417533636e-13 1.067990674e-13 9.531977772e-14 8.172514797e-14 6.058822309e-14)
5(1.554012226e-13 1.357879396e-13 1.220613017e-13 1.019107898e-13 7.327472959e-14)
5(1.829425132e-13 1.699053179e-13 1.508757617e-13 1.213189955e-13 8.378212963e-14)
5(2.187761446e-13 2.056980187e-13 1.779103735e-13 1.361935402e-13 8.950382798e-14)
5(2.584114643e-13 2.372685258e-13 1.976876863e-13 1.424726723e-13 8.750249543e-14)
5(2.949616234e-13 2.586429432e-13 2.047779625e-13 1.37143178e-13 7.657858803e-14)
5(3.190642358e-13 2.623220395e-13 1.948980657e-13 1.196242999e-13 5.862269531e-14)
5(3.222900017e-13 2.453991057e-13 1.686198026e-13 9.265976352e-14 3.8473976e-14)
5(3.005774093e-13 2.083629975e-13 1.304684905e-13 6.216355609e-14 2.133295929e-14)
5(2.546339499e-13 1.579101893e-13 8.871808665e-14 3.529533922e-14 9.687835934e-15)
5(1.925942961e-13 1.054065123e-13 5.176874253e-14 1.642850047e-14 3.508307742e-15)
5(1.278611936e-13 6.06282031e-14 2.520315006e-14 6.107355541e-15 9.65676846e-16)
5(7.291262275e-14 2.921814662e-14 9.761880445e-15 1.768495682e-15 1.955242768e-16)
5(3.455655738e-14 1.141100113e-14 2.903455453e-15 3.81622067e-16 2.83687953e-17)
5(1.340709832e-14 3.472655244e-15 6.332404214e-16 5.884320695e-17 2.944589319e-18)
5(3.869309321e-15 7.625878995e-16 1.002191281e-16 6.003708315e-18 2.38917312e-19)
5(8.400117003e-16 1.158902964e-16 1.008131373e-17 4.391314214e-19 1.372645297e-20)
5(1.106064275e-16 1.13163786e-17 6.752083962e-19 2.311199545e-20 6.407014893e-22)
5(1.076771572e-17 6.931253211e-19 3.196432624e-20 9.516574725e-22 2.268591707e-23)
5(4.625943419e-19 2.204658941e-20 8.586283467e-22 3.602911231e-23 6.351417344e-25)
5(1.02395152e-20 -2.052986544e-21 1.582407774e-23 1.100034876e-21 1.204982462e-26)
5(7.208121566e-23 -3.154854044e-19 1.03888882e-22 3.164172824e-19 1.548099705e-28)
5(2.164981731e-25 -3.031931332e-17 -1.092576985e-20 8.425495772e-17 6.295397094e-31)
5(2.239849163e-28 1.495313586e-15 -7.159487399e-20 1.885633952e-14 1.130861517e-33)
5(8.078938524e-33 -5.200586841e-14 -1.54921136e-16 -2.682904136e-14 4.730586262e-36)
5(5.186570092e-39 2.104490125e-38 0 2.744245731e-37 1.026509756e-36)
)


60
(
5(2.451274986e-11 7.389862227e-12 9.210609084e-12 3.610634527e-12 2.062410972e-12)
5(2.028267521e-11 9.054860382e-12 6.387051843e-12 3.071803928e-12 1.502465195e-12)
5(1.87123746e-11 1.018268377e-11 5.590591865e-12 2.903396706e-12 1.298789015e-12)
5(1.982694668e-11 1.098604701e-11 5.754442486e-12 2.931331161e-12 1.276957846e-12)
5(2.24853894e-11 1.177107481e-11 6.320560276e-12 3.040413765e-12 1.32312028e-12)
5(2.590592564e-11 1.247863683e-11 6.841518334e-12 3.122086494e-12 1.367385652e-12)
5(2.813208754e-11 1.288672809e-11 6.985897818e-12 3.081870947e-12 1.342239057e-12)
5(2.912711939e-11 1.298716245e-11 6.842939649e-12 2.968358526e-12 1.269829641e-12)
5(2.907466881e-11 1.288812612e-11 6.560593824e-12 2.812841691e-12 1.182227175e-12)
5(2.930105718e-11 1.267934626e-11 6.298189734e-12 2.643421272e-12 1.085718567e-12)
5(2.969419124e-11 1.234809595e-11 5.985863948e-12 2.457972985e-12 9.935526564e-13)
5(2.96979643e-11 1.192896285e-11 5.654018805e-12 2.257621298e-12 8.971375945e-13)
5(2.899680544e-11 1.130150989e-11 5.260991761e-12 2.040825941e-12 7.954543396e-13)
5(2.832930025e-11 1.057790255e-11 4.818934411e-12 1.815239878e-12 6.929877901e-13)
5(2.716952372e-11 9.814890929e-12 4.336208416e-12 1.592989513e-12 5.927819201e-13)
5(2.622649998e-11 8.987436424e-12 3.863342801e-12 1.376087069e-12 5.009855096e-13)
5(2.450129982e-11 8.155485691e-12 3.38582251e-12 1.168409484e-12 4.156632586e-13)
5(2.294869957e-11 7.269996657e-12 2.935422893e-12 9.788869462e-13 3.415930846e-13)
5(2.128246384e-11 6.386095123e-12 2.492122675e-12 8.083728304e-13 2.75283991e-13)
5(1.943000379e-11 5.528378334e-12 2.085080777e-12 6.566531984e-13 2.180221844e-13)
5(1.792513879e-11 4.714335586e-12 1.713066166e-12 5.244638817e-13 1.693358897e-13)
5(1.569828495e-11 3.941287603e-12 1.382604617e-12 4.09633755e-13 1.299641344e-13)
5(1.397975666e-11 3.241450425e-12 1.091376048e-12 3.131788463e-13 9.847471449e-14)
5(1.20645016e-11 2.615111154e-12 8.43970395e-13 2.360462963e-13 7.381068107e-14)
5(1.049059129e-11 2.073117102e-12 6.391444271e-13 1.757196534e-13 5.557876705e-14)
5(8.788932765e-12 1.61148518e-12 4.759732587e-13 1.290706822e-13 4.282102578e-14)
5(7.338181061e-12 1.232219113e-12 3.473733208e-13 9.58348689e-14 3.452426401e-14)
5(6.200161525e-12 9.188321034e-13 2.516863741e-13 7.299999966e-14 3.056996243e-14)
5(4.93731375e-12 6.813455046e-13 1.832794684e-13 5.976674235e-14 3.011812155e-14)
5(4.002087509e-12 5.023063753e-13 1.369361487e-13 5.441080063e-14 3.358527078e-14)
5(3.157981535e-12 3.683074902e-13 1.104207072e-13 5.645117679e-14 4.073329329e-14)
5(2.482182474e-12 2.816736549e-13 1.005624784e-13 6.556175816e-14 5.229340421e-14)
5(1.904349626e-12 2.318497676e-13 1.047133092e-13 8.177001277e-14 6.840167778e-14)
5(1.456636502e-12 2.064412121e-13 1.211605873e-13 1.049071283e-13 8.946749051e-14)
5(1.107121305e-12 2.061059595e-13 1.4921287e-13 1.34879557e-13 1.145064654e-13)
5(9.106795515e-13 2.251202703e-13 1.868825205e-13 1.703143341e-13 1.420456521e-13)
5(6.993979762e-13 2.597032209e-13 2.315616551e-13 2.079892971e-13 1.691246647e-13)
5(5.861906559e-13 3.041184271e-13 2.781537617e-13 2.42714626e-13 1.902544648e-13)
5(5.252423878e-13 3.513325168e-13 3.192530535e-13 2.676792674e-13 1.997190336e-13)
5(5.039782099e-13 3.918068709e-13 3.465588237e-13 2.758570361e-13 1.926529052e-13)
5(5.051081652e-13 4.145657348e-13 3.511035494e-13 2.622961659e-13 1.680963043e-13)
5(4.958587031e-13 4.107076091e-13 3.281044025e-13 2.267775817e-13 1.305818273e-13)
5(4.73844021e-13 3.757029467e-13 2.790792339e-13 1.753241891e-13 8.934018363e-14)
5(4.235138626e-13 3.131876528e-13 2.132256464e-13 1.187382263e-13 5.269379748e-14)
5(3.481437242e-13 2.341279759e-13 1.433443832e-13 6.920672147e-14 2.61907851e-14)
5(2.568930754e-13 1.541435293e-13 8.305143827e-14 3.398530339e-14 1.058710544e-14)
5(1.672732626e-13 8.776930522e-14 4.015343237e-14 1.359812969e-14 3.438387513e-15)
5(9.363452771e-14 4.188308111e-14 1.580338454e-14 4.325370294e-15 8.344889531e-16)
5(4.381815291e-14 1.62239071e-14 4.828844798e-15 1.070962227e-15 1.526311956e-16)
5(1.65264975e-14 4.868401752e-15 1.118499403e-15 1.869107514e-16 1.981793769e-17)
5(4.795592081e-15 1.06710901e-15 1.836587187e-16 2.39798473e-17 1.734851782e-18)
5(9.627501633e-16 1.573519028e-16 1.961499022e-17 1.993968769e-18 1.216951439e-19)
5(1.224599715e-16 1.481291824e-17 1.350854925e-18 1.115744474e-19 5.461541471e-21)
5(8.044024544e-18 7.986798236e-19 5.145331293e-20 3.472854402e-21 1.592776608e-22)
5(3.259362489e-19 -8.042094472e-20 1.374930684e-21 -6.137622295e-20 3.596867549e-24)
5(4.77411829e-21 -2.13746162e-17 6.344285932e-20 -1.339679305e-17 3.792459978e-26)
5(3.059955523e-23 -5.235349514e-15 1.616531237e-17 -3.230891858e-15 1.651847007e-28)
5(2.276083646e-26 -1.610405023e-12 3.886817471e-15 -9.067537037e-13 3.241746119e-31)
5(3.40934996e-30 -6.910830132e-10 -5.673881466e-15 -3.057186882e-10 1.801724239e-34)
5(1.117610776e-35 4.160424468e-37 0 2.025015954e-36 5.215785351e-36)
)


60
(
5(5.800703071e-11 1.815741454e-11 1.837633853e-11 7.031741747e-12 3.353642424e-12)
5(5.804576859e-11 2.449554109e-11 1.481467159e-11 6.463753344e-12 2.651296061e-12)
5(6.011490236e-11 2.871159423e-11 1.408151141e-11 6.381380621e-12 2.408154358e-12)
5(6.526336618e-11 3.144236587e-11 1.483647463e-11 6.561345631e-12 2.408011691e-12)
5(7.488226005e-11 3.391098705e-11 1.627814032e-11 6.835998453e-12 2.520713797e-12)
5(8.609844618e-11 3.61969764e-11 1.747354885e-11 7.023920691e-12 2.61750831e-12)
5(9.398396902e-11 3.743584049e-11 1.78627056e-11 7.006278879e-12 2.600022561e-12)
5(9.806786834e-11 3.808927445e-11 1.765075081e-11 6.833199607e-12 2.498717866e-12)
5(1.013377616e-10 3.828035231e-11 1.712605268e-11 6.552220111e-12 2.365051487e-12)
5(1.03860093e-10 3.783003654e-11 1.655220761e-11 6.22608643e-12 2.218422953e-12)
5(1.051672168e-10 3.712875454e-11 1.590354929e-11 5.864758367e-12 2.071497418e-12)
5(1.068794139e-10 3.594851373e-11 1.511893553e-11 5.457731333e-12 1.905815365e-12)
5(1.075488768e-10 3.444099072e-11 1.415605983e-11 4.992505491e-12 1.722619692e-12)
5(1.060220564e-10 3.259005327e-11 1.3045593e-11 4.498307148e-12 1.541254981e-12)
5(1.029635579e-10 3.053227251e-11 1.183485436e-11 4.007402223e-12 1.346232912e-12)
5(1.002659842e-10 2.82211843e-11 1.06033557e-11 3.517831236e-12 1.166347621e-12)
5(9.762956409e-11 2.573753265e-11 9.378204691e-12 3.035578351e-12 9.933410779e-13)
5(9.253859103e-11 2.320677411e-11 8.189137157e-12 2.588823227e-12 8.357750697e-13)
5(8.881001232e-11 2.063835714e-11 7.042321009e-12 2.173309265e-12 6.936105139e-13)
5(8.328914942e-11 1.819564341e-11 5.972271706e-12 1.799055454e-12 5.645530808e-13)
5(7.78925556e-11 1.582219051e-11 4.964885178e-12 1.462492695e-12 4.53356355e-13)
5(7.274485809e-11 1.350862951e-11 4.074029118e-12 1.169184577e-12 3.592296659e-13)
5(6.716734806e-11 1.143211012e-11 3.282391964e-12 9.149331763e-13 2.808917901e-13)
5(6.013667284e-11 9.565291523e-12 2.597442269e-12 7.050564762e-13 2.166921103e-13)
5(5.407679125e-11 7.902452728e-12 2.014020744e-12 5.356219463e-13 1.644938118e-13)
5(4.862582952e-11 6.423944804e-12 1.533169231e-12 4.011584929e-13 1.261306783e-13)
5(4.300692574e-11 5.188804181e-12 1.147891794e-12 2.97002389e-13 9.858048356e-14)
5(3.817709385e-11 4.137876905e-12 8.505778146e-13 2.209288331e-13 7.950863101e-14)
5(3.278547656e-11 3.270465476e-12 6.238496523e-13 1.683893383e-13 7.004404299e-14)
5(2.789697636e-11 2.578927272e-12 4.578201888e-13 1.346824505e-13 6.69184679e-14)
5(2.363194502e-11 2.020784131e-12 3.448192044e-13 1.181961525e-13 7.194057704e-14)
5(1.957798248e-11 1.590253795e-12 2.74886584e-13 1.164776431e-13 8.398552101e-14)
5(1.577771286e-11 1.254766249e-12 2.356386881e-13 1.278197569e-13 1.041038464e-13)
5(1.272638501e-11 9.95578279e-13 2.240972245e-13 1.516059971e-13 1.318042894e-13)
5(9.737934938e-12 8.162102068e-13 2.361955599e-13 1.870248771e-13 1.676533429e-13)
5(7.404375019e-12 6.821032687e-13 2.679909821e-13 2.325206137e-13 2.087138577e-13)
5(5.514800863e-12 6.081059046e-13 3.152809328e-13 2.847036758e-13 2.525178991e-13)
5(3.906437879e-12 5.738210223e-13 3.708619621e-13 3.380811605e-13 2.928357706e-13)
5(2.813802631e-12 5.65426899e-13 4.274891131e-13 3.840448023e-13 3.2067841e-13)
5(1.979186716e-12 5.748412201e-13 4.737385979e-13 4.125473199e-13 3.276360344e-13)
5(1.370562628e-12 5.846672782e-13 4.974613078e-13 4.144623988e-13 3.076307068e-13)
5(1.050072386e-12 5.801078274e-13 4.886969107e-13 3.838245368e-13 2.635188605e-13)
5(8.216028848e-13 5.490023222e-13 4.433041199e-13 3.234755816e-13 2.026440399e-13)
5(6.721107545e-13 4.849148036e-13 3.664750248e-13 2.441248378e-13 1.381370146e-13)
5(5.471076334e-13 3.923433514e-13 2.716489201e-13 1.624692638e-13 8.149933295e-14)
5(4.274755064e-13 2.858193031e-13 1.770956009e-13 9.361058463e-14 4.053123024e-14)
5(3.073338132e-13 1.844947825e-13 9.908092384e-14 4.580380737e-14 1.671883021e-14)
5(1.975376785e-13 1.025509825e-13 4.683429161e-14 1.831335781e-14 5.44867783e-15)
5(1.098026326e-13 4.764152875e-14 1.785235832e-14 5.831832124e-15 1.400211046e-15)
5(5.159469455e-14 1.792098788e-14 5.191651376e-15 1.390308048e-15 2.659509254e-16)
5(1.968360347e-14 5.180799758e-15 1.141123922e-15 2.500618821e-16 3.550069857e-17)
5(5.694139067e-15 1.047452476e-15 1.765240406e-16 2.959774921e-17 2.996152387e-18)
5(1.097491873e-15 1.448003745e-16 1.735997935e-17 2.352533397e-18 1.94554839e-19)
5(1.34880101e-16 1.206076943e-17 9.806090299e-19 1.246600141e-19 7.68291137e-21)
5(9.707097072e-18 1.209785451e-18 1.996472284e-20 7.131166729e-19 1.594583368e-22)
5(2.495030877e-19 1.111866267e-16 -1.499531291e-18 1.135537633e-16 2.574510891e-24)
5(1.256434666e-21 2.345606463e-14 -2.918900364e-16 2.24947488e-14 1.044525696e-26)
5(1.170510641e-23 6.921133826e-12 -7.579739129e-14 5.92522224e-12 2.055746714e-29)
5(4.02878644e-27 3.436933918e-09 -2.833179705e-11 2.465533002e-09 7.463010553e-33)
5(4.87146294e-30 1.326861727e-05 1.395214768e-16 8.008518265e-06 2.270928289e-35)
)


60
(
5(1.196529357e-10 3.744619357e-11 3.231605595e-11 1.217596731e-11 5.1711592e-12)
5(1.36464689e-10 5.323238729e-11 2.879647266e-11 1.181479561e-11 4.353754342e-12)
5(1.51336392e-10 6.377765301e-11 2.883329717e-11 1.199395273e-11 4.105273745e-12)
5(1.686126659e-10 7.067711029e-11 3.083513382e-11 1.247952387e-11 4.174018443e-12)
5(1.943166169e-10 7.65239384e-11 3.361859379e-11 1.304506608e-11 4.393549939e-12)
5(2.237087785e-10 8.163714416e-11 3.583583843e-11 1.343713911e-11 4.589768006e-12)
5(2.47532853e-10 8.501558239e-11 3.66814854e-11 1.348581039e-11 4.612170395e-12)
5(2.625675386e-10 8.697236102e-11 3.647945463e-11 1.323942529e-11 4.490105213e-12)
5(2.734544469e-10 8.775165092e-11 3.567477225e-11 1.28318867e-11 4.314589099e-12)
5(2.848315752e-10 8.787096037e-11 3.466846464e-11 1.231241372e-11 4.119899257e-12)
5(2.927637276e-10 8.648539161e-11 3.342018586e-11 1.17037399e-11 3.901332549e-12)
5(3.017366093e-10 8.462371837e-11 3.189192535e-11 1.097367818e-11 3.649542525e-12)
5(3.065113406e-10 8.179196502e-11 3.001251561e-11 1.015791996e-11 3.367168604e-12)
5(3.152855076e-10 7.796684326e-11 2.786552068e-11 9.268628578e-12 3.053480962e-12)
5(3.102754066e-10 7.371332653e-11 2.553281481e-11 8.35201828e-12 2.737087281e-12)
5(3.064574276e-10 6.897788142e-11 2.316779999e-11 7.417162954e-12 2.420153268e-12)
5(3.046138464e-10 6.415346345e-11 2.066025122e-11 6.507065106e-12 2.101924933e-12)
5(2.994317935e-10 5.892281585e-11 1.821493023e-11 5.64641396e-12 1.80981627e-12)
5(2.923112569e-10 5.364369176e-11 1.590475696e-11 4.809846671e-12 1.532064464e-12)
5(2.845737891e-10 4.855953792e-11 1.367861738e-11 4.048980922e-12 1.28244994e-12)
5(2.750833629e-10 4.361025797e-11 1.16039267e-11 3.351983913e-12 1.052263224e-12)
5(2.620377909e-10 3.873414624e-11 9.722660712e-12 2.737856318e-12 8.578020927e-13)
5(2.512530184e-10 3.431062226e-11 8.05882703e-12 2.201909577e-12 6.867549635e-13)
5(2.396899001e-10 3.012956939e-11 6.577973951e-12 1.74062076e-12 5.394539295e-13)
5(2.230709948e-10 2.633598528e-11 5.286760978e-12 1.352674121e-12 4.207626663e-13)
5(2.094507806e-10 2.309624632e-11 4.208939259e-12 1.036902039e-12 3.271959666e-13)
5(1.904433385e-10 1.975711133e-11 3.329568655e-12 7.85616299e-13 2.522127334e-13)
5(1.748275628e-10 1.70413676e-11 2.614602927e-12 5.926629711e-13 1.984164657e-13)
5(1.573874053e-10 1.474084292e-11 2.033842345e-12 4.469488926e-13 1.613573259e-13)
5(1.428006578e-10 1.255615214e-11 1.584393179e-12 3.439385711e-13 1.398732565e-13)
5(1.249233384e-10 1.051308724e-11 1.250869414e-12 2.752956332e-13 1.316855466e-13)
5(1.062198696e-10 8.84435777e-12 9.997243101e-13 2.373225313e-13 1.369062809e-13)
5(8.921399059e-11 7.300811342e-12 8.094034866e-13 2.236313269e-13 1.532429764e-13)
5(7.353438604e-11 6.026825287e-12 6.726598112e-13 2.323775102e-13 1.824392853e-13)
5(6.019605752e-11 4.851285611e-12 5.905867572e-13 2.601220689e-13 2.232807418e-13)
5(4.741693209e-11 3.813705377e-12 5.47792196e-13 3.046349006e-13 2.742753315e-13)
5(3.547466309e-11 3.040927483e-12 5.38699476e-13 3.625913414e-13 3.323062293e-13)
5(2.575847301e-11 2.379768681e-12 5.560591892e-13 4.27960437e-13 3.906853208e-13)
5(1.768145594e-11 1.801484111e-12 5.906827151e-13 4.915282772e-13 4.401667355e-13)
5(1.169354514e-11 1.423454125e-12 6.293137425e-13 5.417907446e-13 4.67683107e-13)
5(7.448878816e-12 1.156789615e-12 6.570823924e-13 5.658453672e-13 4.634880164e-13)
5(4.487559458e-12 9.771275158e-13 6.592393587e-13 5.523023164e-13 4.254605679e-13)
5(2.677471834e-12 8.47631436e-13 6.238168714e-13 4.972219692e-13 3.556032622e-13)
5(1.664120575e-12 7.272193526e-13 5.485139621e-13 4.07807088e-13 2.683671002e-13)
5(1.063730425e-12 6.037727038e-13 4.389779226e-13 3.000710708e-13 1.798611044e-13)
5(7.405172562e-13 4.706771024e-13 3.162973512e-13 1.951353251e-13 1.050399312e-13)
5(5.32231429e-13 3.351430919e-13 2.002118169e-13 1.105437135e-13 5.19828503e-14)
5(3.700806629e-13 2.13123927e-13 1.088370956e-13 5.265908192e-14 2.12173539e-14)
5(2.376874862e-13 1.175550343e-13 4.960461026e-14 2.055300143e-14 6.878653444e-15)
5(1.354842277e-13 5.467903012e-14 1.825757171e-14 6.425884935e-15 1.697202874e-15)
5(6.579737547e-14 2.055364662e-14 5.188521691e-15 1.502295692e-15 3.160213186e-16)
5(2.638636931e-14 5.764525279e-15 1.07072884e-15 2.562741567e-16 4.513432078e-17)
5(8.440258252e-15 1.22139753e-15 1.518514633e-16 2.819167845e-17 3.14271879e-18)
5(1.869383908e-15 1.759827789e-16 1.313977815e-17 1.934391502e-18 2.020820057e-19)
5(2.332105171e-16 1.508590281e-17 6.624373155e-19 9.473768306e-19 5.962610967e-21)
5(2.479309244e-17 1.127810752e-16 -6.003784664e-19 1.119975103e-16 5.117267896e-23)
5(8.453298637e-19 2.144546039e-14 -9.958901654e-17 1.744127417e-14 5.926117023e-25)
5(8.251576055e-21 5.479230342e-12 -1.756624977e-14 3.488266234e-12 6.496925677e-28)
5(6.373172175e-23 2.088650524e-09 1.341467981e-14 9.69000226e-10 2.387582931e-31)
5(7.016024268e-23 7.461537085e-27 0 4.990671179e-35 7.417251122e-35)
)


60
(
5(2.242526203e-10 6.815449427e-11 5.192465244e-11 1.939797567e-11 7.64122567e-12)
5(2.840524566e-10 1.005934115e-10 4.966427988e-11 1.954355662e-11 6.773606194e-12)
5(3.306913248e-10 1.227179743e-10 5.146673082e-11 2.024008696e-11 6.577484194e-12)
5(3.767073446e-10 1.367309225e-10 5.550009954e-11 2.123608077e-11 6.784951755e-12)
5(4.40804301e-10 1.485659551e-10 6.030784115e-11 2.225773672e-11 7.18517953e-12)
5(5.143669889e-10 1.59783487e-10 6.403446877e-11 2.299437102e-11 7.542480125e-12)
5(5.713363853e-10 1.675129733e-10 6.579674776e-11 2.320036709e-11 7.651278319e-12)
5(6.172274783e-10 1.724508728e-10 6.576985662e-11 2.296076398e-11 7.546106115e-12)
5(6.535162812e-10 1.756761042e-10 6.48153859e-11 2.24381501e-11 7.353736132e-12)
5(6.905167457e-10 1.767145948e-10 6.329383955e-11 2.173046403e-11 7.106353596e-12)
5(7.25361506e-10 1.767893664e-10 6.146402049e-11 2.082930271e-11 6.835903092e-12)
5(7.557613965e-10 1.746530027e-10 5.902987537e-11 1.973829368e-11 6.482248601e-12)
5(7.873131175e-10 1.712480359e-10 5.605295057e-11 1.845558652e-11 6.077817637e-12)
5(8.042695135e-10 1.664244982e-10 5.250622792e-11 1.702552101e-11 5.597858272e-12)
5(8.261741915e-10 1.604068171e-10 4.863480621e-11 1.552095285e-11 5.101437119e-12)
5(8.386398492e-10 1.536136371e-10 4.461985167e-11 1.397886446e-11 4.576383891e-12)
5(8.471083242e-10 1.457138364e-10 4.050528987e-11 1.243896049e-11 4.062670374e-12)
5(8.596821484e-10 1.381335178e-10 3.644542487e-11 1.09177432e-11 3.558812916e-12)
5(8.533183524e-10 1.299835533e-10 3.239611694e-11 9.472700811e-12 3.069995717e-12)
5(8.548244488e-10 1.220240489e-10 2.858823104e-11 8.120048599e-12 2.628039261e-12)
5(8.479860014e-10 1.140147163e-10 2.497429771e-11 6.870713023e-12 2.205311813e-12)
5(8.287972099e-10 1.059856188e-10 2.162360992e-11 5.747011411e-12 1.827496542e-12)
5(8.224599444e-10 9.855238375e-11 1.865239656e-11 4.730667729e-12 1.49382543e-12)
5(8.003481792e-10 9.158780545e-11 1.59583782e-11 3.842400861e-12 1.206171232e-12)
5(7.657510834e-10 8.458795025e-11 1.357643569e-11 3.091004474e-12 9.618418703e-13)
5(7.367531988e-10 7.763930478e-11 1.156226918e-11 2.453266246e-12 7.594723925e-13)
5(7.080704955e-10 7.131225165e-11 9.811696068e-12 1.926546647e-12 5.956615913e-13)
5(6.642336341e-10 6.532797333e-11 8.271730456e-12 1.511628705e-12 4.703687313e-13)
5(6.036124553e-10 5.91243314e-11 6.953970367e-12 1.181673985e-12 3.720958588e-13)
5(5.561059912e-10 5.259596893e-11 5.895777766e-12 9.234848649e-13 3.041206144e-13)
5(5.015853484e-10 4.71155454e-11 5.015079089e-12 7.38300466e-13 2.624774776e-13)
5(4.463611804e-10 4.189207825e-11 4.209673004e-12 6.052558433e-13 2.417886269e-13)
5(3.858874859e-10 3.577178758e-11 3.532302697e-12 5.183977139e-13 2.415827943e-13)
5(3.218721163e-10 3.029527269e-11 2.959935301e-12 4.696300695e-13 2.62477253e-13)
5(2.688632105e-10 2.513990756e-11 2.491407338e-12 4.53476275e-13 2.987937705e-13)
5(2.13255082e-10 2.051337993e-11 2.087170194e-12 4.675103315e-13 3.516471534e-13)
5(1.688460324e-10 1.631362847e-11 1.733652728e-12 5.055428087e-13 4.16948953e-13)
5(1.24886651e-10 1.23582604e-11 1.47144874e-12 5.595494201e-13 4.88745229e-13)
5(9.003705529e-11 9.039855949e-12 1.276336467e-12 6.218019101e-13 5.56991767e-13)
5(6.102536743e-11 6.476389684e-12 1.127686423e-12 6.813302813e-13 6.06750411e-13)
5(3.893768483e-11 4.448327325e-12 1.031717556e-12 7.21411426e-13 6.235036119e-13)
5(2.328805971e-11 3.032862422e-12 9.542949884e-13 7.264659382e-13 6.023387429e-13)
5(1.3343378e-11 2.085020078e-12 8.791721565e-13 6.864547195e-13 5.373649709e-13)
5(7.072211262e-12 1.452592179e-12 7.80636564e-13 6.00439549e-13 4.385458633e-13)
5(3.622492692e-12 1.056263937e-12 6.545376996e-13 4.792656126e-13 3.232614195e-13)
5(1.920586782e-12 7.854423542e-13 5.078787879e-13 3.439359729e-13 2.108980711e-13)
5(1.142464276e-12 5.756351772e-13 3.563233745e-13 2.183810985e-13 1.191962229e-13)
5(6.935574085e-13 3.985096934e-13 2.208834112e-13 1.205669137e-13 5.797491617e-14)
5(4.559301039e-13 2.517176809e-13 1.185977372e-13 5.610237209e-14 2.301596835e-14)
5(2.977624747e-13 1.40849335e-13 5.324685599e-14 2.111538494e-14 7.206348463e-15)
5(1.730073526e-13 6.681436735e-14 1.935525094e-14 6.280310684e-15 1.716603476e-15)
5(8.888150018e-14 2.667826769e-14 5.409151536e-15 1.39139782e-15 3.019550475e-16)
5(3.774619545e-14 7.955754271e-15 1.132455695e-15 2.115988915e-16 3.433258186e-17)
5(1.379215522e-14 1.809054842e-15 1.537385027e-16 2.175582656e-17 2.763386093e-18)