/*--------------------------------*- C++ -*----------------------------------*\
| =========                 |                                                 |
| \\      /  F ield         | OpenFOAM: The Open Source CFD Toolbox           |
|  \\    /   O peration     | Version:  2.3.1                                 |
|   \\  /    A nd           | Web:      www.OpenFOAM.org                      |
|    \\/     M anipulation  |                                                 |
\*---------------------------------------------------------------------------*/
FoamFile
{
    version     2.0;
    format      ascii;
    class       dictionary;
    location    "constant";
    object      CO;
}
// * * * * * * * * * * * * * * * * * * * * * * * * * * * * * * * * * * * * * //

CO_table
60
(

60
(
5(0.0008146206124 0.000424817828 0.001225783834 0.0009802324493 0.00168812461)
5(0.0004059351107 9.395419739e-05 0.0005742653101 0.0005190636436 0.0007761164543)
5(0 0.0001767847604 0.0002567795717 0.0002439556606 0)
5(0 0.0002049301581 0.0002685061076 8.402859384e-05 0.0004199383938)
5(0 0.0001840928561 0.0002855349812 0.0002360889357 0.0002948640146)
5(0.0001254330617 0.0001612402867 0.0001298038955 0.0002515659425 0.0002349352329)
5(0.0001959616197 0.0001441363281 0.0001665016173 0.0001817754806 0.0004029137619)
5(9.836718861e-05 0.00014241677 0.0002408017623 0.0002119086034 0.0001623683288)
5(0.000156199901 0.0001504636917 0.0002003195768 0.000217527255 0.0002402550092)
5(0.0001460062778 0.0001612288041 0.0002418963541 0.0001990718214 0.0002557273579)
5(0.0001563144767 0.0001607676424 0.0002375174557 0.0002045860555 0.0002599491362)
5(0.0001503140249 0.000161060666 0.0002089553248 0.0002068314291 0.0002382682577)
5(0.0001284792972 0.0001647506914 0.0002026070246 0.0002249381485 0.0002548472921)
5(0.0001525673285 0.0001690699255 0.0002079222931 0.0002007078137 0.0002395454854)
5(0.000133846029 0.0001607099094 0.0001974565056 0.0002136709455 0.0002358114726)
5(0.0001424034429 0.000165088268 0.0002055946726 0.0002164015514 0.0002390059905)
5(0.0001434561159 0.0001639443319 0.0002065345679 0.0002176385591 0.0002507901834)
5(0.0001431346717 0.0001639977831 0.0002073418397 0.0002266105477 0.0002555006841)
5(0.0001413847959 0.0001660175727 0.0002089601884 0.0002252269354 0.0002569965609)
5(0.0001499472221 0.0001775268426 0.0002183488191 0.0002428715238 0.0002551775322)
5(0.0001487159272 0.0001712719524 0.0002100429241 0.0002394620925 0.0002547319476)
5(0.0001509188171 0.0001717529886 0.0002158796633 0.0002109456168 0.0002358285307)
5(0.0001600787532 0.0001773701937 0.0002155100195 0.0002319811834 0.000257353204)
5(0.0001583195626 0.0001889563416 0.0002193111125 0.0002344110384 0.000256162049)
5(0.0001647729179 0.0001930150416 0.0002273692151 0.0002472546881 0.0002676129311)
5(0.0001684072705 0.0001957751222 0.0002432466434 0.0002648811792 0.0002709306443)
5(0.0001744593895 0.0001958310287 0.0002372982596 0.0002755582512 0.000277782334)
5(0.0001761673171 0.000200619518 0.0002503424757 0.0002843179402 0.0002824045443)
5(0.000190180783 0.0002113314717 0.0002505354544 0.0002856476035 0.0002918319637)
5(0.0001980153325 0.0002254046898 0.0002550129103 0.0002799944863 0.000293246397)
5(0.000211915044 0.0002393122339 0.000272859177 0.0002995473473 0.0003055583819)
5(0.0002219607329 0.000245919537 0.0002728717658 0.0002895547858 0.0002746806337)
5(0.0002309434096 0.0002605506052 0.0002891811895 0.000300774322 0.0003228445319)
5(0.0002459713722 0.0002795046338 0.0003129870817 0.0003064209459 0.000287514637)
5(0.0002627733557 0.0002911158771 0.0003214910964 0.0003177350265 0.0002986102318)
5(0.00027897574 0.0003209346493 0.0003668371968 0.0003350972612 0.000309370752)
5(0.0002970520468 0.0003163886896 0.0003319812958 0.0003256513631 0.0003265244481)
5(0.0003152003193 0.0003478202523 0.0003475567944 0.0003508108536 0.0002429417737)
5(0.000340293949 0.000362351427 0.0003782732811 0.0003524446433 0.0003473544317)
5(0.000377962584 0.0003864028377 0.0004181123288 0.0003775332773 1.823413684e-05)
5(0.0003985110399 0.0003883318952 0.0003976188754 0.0003735934063 3.006035224e-05)
5(0.0004097070199 0.0004027939695 0.0004006177102 0.0002724805884 2.752850043e-05)
5(0.0004291667669 0.0003957209301 0.0003918773779 2.603438959e-05 3.907146395e-05)
5(0.0004534522013 0.0004267325381 0.0005136441749 3.699168156e-05 6.927498423e-05)
5(0.0004757000254 0.000425565928 0.0004902027879 5.089078069e-05 7.864569655e-05)
5(0.0004680746308 0.0004504509629 0.0004298622217 7.105143709e-05 0.0001051815832)
5(0.0004658877483 0.000432161477 0.0001680472231 9.876607536e-05 0.0001433075379)
5(0.0004577461137 0.000330228949 9.26234636e-05 0.0001316917404 0.0001939526064)
5(0.0004579610026 0.0003633984952 0.000110333419 0.0001764293391 0.0002597761381)
5(0.0004509918397 9.801028897e-05 0.0001466444004 0.0002337736669 0.0003435305043)
5(0.0004212721728 0.0001237870901 0.0001942093707 0.0003080389261 0.0004506218303)
5(0.0002017234442 0.0001631130002 0.0002549529017 0.0004015223247 0.0005852106694)
5(0.0001412085592 0.0002131407824 0.0003317172994 0.000518910074 0.0007532789707)
5(0.0001661767051 0.0002754618496 0.0004284880136 0.0006642964478 0.0009630431067)
5(0.0002152304132 0.0003532912394 0.0005487405338 0.0008446945661 0.001219552012)
5(0.0002962782771 0.0004500996825 0.0006977230862 0.001062961123 0.001530555569)
5(0.0004251249369 0.0005708611661 0.0008816702496 0.001327586063 0.00189380034)
5(0.0005528643499 0.0007542162635 0.001110159877 0.001641655622 0.002316905356)
5(0.0006755718505 0.0009773822148 0.001440793592 0.001836152222 0.002806725771)
5(0.0008067824224 0.001265564817 0.00193826829 0.0029691963 0.003978681936)
)


60
(
5(0.001398029592 0.001183842377 0.002028740136 0.001981124854 0.002719965759)
5(0.001170904825 0.001210969019 0.001587246622 0.001714869221 0.002041643416)
5(0.001068318579 0.001238462809 0.001403037594 0.001611220815 0.001737102546)
5(0.001063023415 0.001271639496 0.001400861659 0.001617728388 0.001707094707)
5(0.00112210959 0.001314425967 0.001494674152 0.001680715122 0.001826610468)
5(0.001199505178 0.001357109407 0.001585871159 0.00174500725 0.001960264622)
5(0.001247530405 0.001390139749 0.001628217657 0.001784335971 0.002019405324)
5(0.001268844524 0.001415408038 0.001644383302 0.001804910517 0.002028296982)
5(0.0012830996 0.001437193582 0.001651278215 0.001819221767 0.00202766925)
5(0.001304239926 0.00146167183 0.001668811751 0.001841626573 0.0020440092)
5(0.001328939003 0.001487715438 0.001695131969 0.001868443241 0.002074336128)
5(0.001356931557 0.001513276732 0.001726205529 0.001896217849 0.002108537417)
5(0.001383347446 0.001538828078 0.001754806436 0.00192258497 0.002136925349)
5(0.001407650857 0.001563718248 0.001780403951 0.00194928173 0.002161677582)
5(0.001431383476 0.001588176699 0.001804892145 0.001973807342 0.002185605128)
5(0.001456125171 0.001614185457 0.001831394781 0.001999437619 0.002210592889)
5(0.001481612487 0.001640652988 0.001859541442 0.00202697798 0.002237318142)
5(0.001508311798 0.00166858444 0.001888428365 0.002055035876 0.002265037855)
5(0.001536222211 0.001696844035 0.001918153254 0.002085102981 0.002293533003)
5(0.001565071836 0.00172711043 0.001948714456 0.002116625497 0.002323783374)
5(0.001595553666 0.001758768182 0.00198110774 0.002148448182 0.00235380123)
5(0.001627421391 0.001792170258 0.002014348929 0.00218166135 0.00238523396)
5(0.001660753453 0.001827011427 0.002049700579 0.002215015679 0.002418532224)
5(0.001696858701 0.001864770423 0.002087937202 0.002249528344 0.0024526008)
5(0.001735201503 0.001904286825 0.002127180089 0.002288334754 0.002489179989)
5(0.001776549205 0.001947169914 0.002171838223 0.002330748113 0.002527960438)
5(0.001821155189 0.001991997062 0.002217703482 0.002376114494 0.002568913949)
5(0.001869023907 0.002041652029 0.002266591792 0.002423363936 0.002611625798)
5(0.001921212396 0.00209485114 0.00231991369 0.002472784973 0.002658250746)
5(0.001977914022 0.002151590933 0.002376137467 0.002525822017 0.002706036495)
5(0.00203965625 0.00221328985 0.002437323524 0.002582176269 0.002757460475)
5(0.002106724006 0.002280067732 0.002501628263 0.002642488505 0.002810310332)
5(0.002179524725 0.002351866719 0.002571881019 0.002705580182 0.002864385381)
5(0.002258497696 0.002429143834 0.002645874417 0.002771813548 0.00291772506)
5(0.00234392486 0.002512320174 0.002724884249 0.002839920285 0.002970997461)
5(0.00243693323 0.002600633883 0.00280793131 0.002910533949 0.003024502309)
5(0.002535620549 0.002693092653 0.002894073236 0.002979825133 0.003080560441)
5(0.002641358202 0.00279061354 0.002981398608 0.003049903772 0.003136166092)
5(0.002752261764 0.0028880891 0.003068235601 0.003118045714 0.003177879249)
5(0.002865991518 0.00299007009 0.00315305389 0.003179079937 0.003190811043)
5(0.002980883262 0.003085558981 0.003228914881 0.003230354019 0.003165577498)
5(0.003091745979 0.003181173757 0.003302704481 0.003260325208 0.003111489447)
5(0.003199722715 0.003263686699 0.003367136447 0.003257777589 0.003042894507)
5(0.003296561203 0.003328754026 0.003423623368 0.003219881058 0.00297478332)
5(0.003376706154 0.003384851176 0.003457624632 0.003153027912 0.002906835274)
5(0.003434607507 0.003423852656 0.003457517377 0.003072343273 0.002839042178)
5(0.003468178035 0.003447441682 0.003410444047 0.002991233413 0.002776323851)
5(0.003475158188 0.003441623024 0.0033297189 0.002915193697 0.002724675676)
5(0.003457272575 0.003400443428 0.003229847668 0.002846090136 0.002692732447)
5(0.003408507278 0.003311583001 0.003124885303 0.002788254068 0.002687406422)
5(0.003331066777 0.003189494826 0.003024564527 0.002748860563 0.002711994901)
5(0.003215665464 0.003052316944 0.002934838179 0.002735555402 0.002772769566)
5(0.003065494859 0.002919958953 0.002864045829 0.002749931221 0.002870214873)
5(0.002884910849 0.002797414152 0.002814156131 0.002796003084 0.00301443022)
5(0.002687721694 0.002694308065 0.002790754388 0.002884143653 0.003210849042)
5(0.002490099046 0.002606602944 0.002794434789 0.003015775737 0.003468014968)
5(0.002299923037 0.002535795877 0.002829954225 0.003194945818 0.003792495041)
5(0.002126989081 0.002486336639 0.002896761138 0.003426747705 0.004191586877)
5(0.001976725805 0.002453187319 0.002991009015 0.003716347452 0.004674603684)
5(0.00180835439 0.002415127324 0.003004390986 0.004068517876 0.005258425937)
)


60
(
5(0.001950253134 0.001841549619 0.002785889449 0.002892386997 0.003689143143)
5(0.00184311503 0.001980822965 0.002453892755 0.002712869887 0.003134781901)
5(0.001810507408 0.002071781785 0.002345990453 0.002666725363 0.00291465663)
5(0.001843137289 0.002140439333 0.002388911602 0.002710516444 0.00292774427)
5(0.001930250905 0.002210647181 0.002505988785 0.002799967102 0.003067099544)
5(0.00203082424 0.002280109629 0.002617959746 0.00288751252 0.003216090125)
5(0.002101472812 0.002335803249 0.002685330812 0.002948282098 0.003296034327)
5(0.002145763531 0.002384067905 0.002723067268 0.002989854834 0.003328639128)
5(0.002182764336 0.002428764751 0.002753067321 0.003026946611 0.00335138465)
5(0.002224162519 0.00247358686 0.002790718597 0.003068863582 0.003390605747)
5(0.002269274371 0.002519314678 0.002837764396 0.003115542576 0.003439784118)
5(0.002316055181 0.00256435659 0.002887053399 0.003162601081 0.003491591937)
5(0.002361751859 0.002609352676 0.002935150556 0.003208368654 0.003539270097)
5(0.002405144649 0.002653541002 0.002979882778 0.003252773878 0.003582822646)
5(0.002448029923 0.002697730792 0.003024652197 0.003296410457 0.003625591734)
5(0.002491430589 0.002742718558 0.003069625604 0.003341266703 0.003669496087)
5(0.002536369074 0.002788245614 0.003117241418 0.003387683845 0.00371539635)
5(0.002582312677 0.002835482599 0.003165027233 0.003435563371 0.003762062272)
5(0.002629759211 0.002884067968 0.003215448167 0.003484881268 0.003810690857)
5(0.002678620044 0.002934288644 0.003266129331 0.003536546007 0.003860333729)
5(0.002728995866 0.002986834453 0.00331934892 0.003589267032 0.003911711883)
5(0.002782178522 0.003041594315 0.003373766341 0.003642654862 0.0039642938)
5(0.002837136926 0.003098692604 0.003431883594 0.003699210409 0.004019084302)
5(0.002895480653 0.003158748676 0.003492531846 0.003757286027 0.004076226276)
5(0.002956662474 0.003221874948 0.003556816869 0.003819408911 0.004136106373)
5(0.003022026028 0.003289008352 0.003624606688 0.003886664221 0.004198989646)
5(0.003091411803 0.003359489212 0.003696004341 0.003956707856 0.00426595187)
5(0.003165152519 0.003436013455 0.003772735529 0.004032124437 0.004335632931)
5(0.003244733424 0.00351620209 0.003853021429 0.004109114996 0.004410024775)
5(0.003329680016 0.003601999933 0.003939753507 0.004192685628 0.004488007071)
5(0.003420912646 0.003695171376 0.004032002575 0.004280052676 0.004570343443)
5(0.003518895046 0.003793715524 0.004129279389 0.004372939744 0.004656254955)
5(0.00362432416 0.003898501443 0.004234328938 0.004471881215 0.004744480776)
5(0.003737425481 0.004012563177 0.004345972917 0.00457507916 0.00483520931)
5(0.003858315053 0.004132557707 0.004462455391 0.00468264931 0.004926725649)
5(0.003985843815 0.004260377798 0.004587219885 0.004794269746 0.0050212026)
5(0.004124209167 0.004393917011 0.004716393443 0.004908588246 0.005119326097)
5(0.004267924861 0.004534029406 0.0048495271 0.005024459825 0.005217501058)
5(0.004418566012 0.00467915386 0.004983800616 0.005139061928 0.005302159563)
5(0.004572217647 0.004824572106 0.0051165772 0.005248431021 0.005359342643)
5(0.004725010396 0.00496962748 0.005246936946 0.005347568576 0.005379092234)
5(0.004877948302 0.005111154834 0.00536879611 0.005426539127 0.005368719233)
5(0.005021349143 0.005240827314 0.005482788086 0.005471731653 0.005337927242)
5(0.005151963847 0.005355165911 0.005583792362 0.00547657237 0.005296589822)
5(0.005263326972 0.005447089062 0.005657049247 0.00544724261 0.005247465158)
5(0.005349374002 0.005521124294 0.00569214034 0.005393005096 0.00518943795)
5(0.005403861629 0.005571203537 0.005675915181 0.00532690961 0.005124585753)
5(0.005424558768 0.005584636482 0.005614760344 0.005252733471 0.005059480159)
5(0.005410205366 0.005548147647 0.00552103267 0.005172738949 0.005003247407)
5(0.005361275854 0.005463504393 0.005409802058 0.005092714092 0.00496593528)
5(0.005274293851 0.005333209488 0.005289862642 0.005020543467 0.00495526158)
5(0.005146866668 0.005177791087 0.005169746493 0.004963162375 0.004972488796)
5(0.004977903495 0.005013179106 0.005054242602 0.004927886141 0.005024401078)
5(0.004776269355 0.004852071415 0.004951856365 0.004920799968 0.005119893159)
5(0.004553676697 0.004693405211 0.004867360592 0.004949758967 0.005267584361)
5(0.004320571567 0.004544774065 0.004805626696 0.005018533261 0.005474033061)
5(0.004085896979 0.004408307271 0.004769815212 0.005133754662 0.005745994033)
5(0.003858378196 0.004284866928 0.004760607593 0.005300612986 0.006090466919)
5(0.003638423852 0.004173183664 0.004778652937 0.005517091103 0.006510292802)
5(0.003338181707 0.004002530233 0.004669265362 0.005743002596 0.006990376836)
)


60
(
5(0.002489736042 0.002472546863 0.003521985016 0.00376887547 0.004626323601)
5(0.002493306028 0.002718309928 0.00328584668 0.003662828375 0.004173184497)
5(0.00252385856 0.002870454678 0.003242733357 0.003667440496 0.004019276347)
5(0.002592775198 0.002974164216 0.003327146437 0.003746114203 0.004071672155)
5(0.00270745476 0.003071712718 0.003469998564 0.003860961387 0.004233105774)
5(0.002833252778 0.003166902435 0.003603629708 0.003971974752 0.00440155053)
5(0.00292725301 0.003246748733 0.003693935757 0.004054028562 0.004502686595)
5(0.002994046547 0.003317183293 0.003754208464 0.004117007797 0.004557626669)
5(0.003052411584 0.003382653392 0.00380533153 0.004174693092 0.004602146621)
5(0.003114226188 0.003448184157 0.00386352119 0.004236489429 0.004660538192)
5(0.003179160215 0.003513008517 0.003929074241 0.004301378984 0.004728203063)
5(0.003244829053 0.003577654316 0.003997106775 0.004366593426 0.004798177336)
5(0.003308838917 0.00364077498 0.004063274831 0.004430514577 0.004863735936)
5(0.003370711726 0.003703361445 0.004126467601 0.004493035685 0.004924819939)
5(0.00343185499 0.003765618845 0.004189036166 0.004554526706 0.004985728714)
5(0.003493512474 0.003828654188 0.004252876554 0.004616867794 0.005047353255)
5(0.003556293849 0.003892742831 0.0043181877 0.00468141087 0.005111036075)
5(0.003620565472 0.003957909649 0.004384445086 0.004746200537 0.005176143052)
5(0.003686187794 0.004025142253 0.004452956904 0.004814690649 0.00524239561)
5(0.003753360972 0.004093944704 0.0045220826 0.004883871675 0.005310571094)
5(0.003822676663 0.004164888122 0.004594612703 0.004956257668 0.005380224961)
5(0.003894628889 0.004239339031 0.004668682197 0.005028648564 0.005452383263)
5(0.00396929668 0.004315786813 0.004746401745 0.00510477159 0.00552706534)
5(0.004047019052 0.004395621673 0.004826496634 0.005183661861 0.005604710199)
5(0.004128860318 0.004479073853 0.004912307005 0.005266691513 0.005686493728)
5(0.004214665349 0.004567819773 0.005001708949 0.005354899696 0.005771404343)
5(0.004305406179 0.004660362401 0.00509606862 0.005448462678 0.005860550828)
5(0.004401035311 0.004758471725 0.005195268157 0.00554653637 0.005955027401)
5(0.004503006147 0.004862553138 0.00530036348 0.005648641489 0.006053082777)
5(0.004611143718 0.004972845731 0.005411826649 0.005757833299 0.006158156596)
5(0.004725964063 0.005090134166 0.005530253621 0.005872418084 0.006267439974)
5(0.004848328033 0.005214873494 0.005654271879 0.005993884232 0.006382984476)
5(0.004978601999 0.0053472814 0.005788855734 0.006122588666 0.006502617261)
5(0.005116444365 0.005488349639 0.005929643029 0.006257253892 0.006626250337)
5(0.005263280643 0.005637234303 0.006078557098 0.006398408852 0.006752570618)
5(0.005418138723 0.005795000665 0.006235090195 0.006546056844 0.006883887962)
5(0.00558087808 0.005959251195 0.006397843422 0.006698049331 0.007020337944)
5(0.005751070936 0.006130931541 0.006567883565 0.00685318209 0.007158059011)
5(0.005925989911 0.00630755464 0.006740648635 0.00700896518 0.007285806248)
5(0.0061039288 0.00648642256 0.006914188374 0.007161634055 0.007386811501)
5(0.006282370212 0.0066663796 0.00708398296 0.007306087431 0.007453679482)
5(0.006454606555 0.006840781126 0.007247734716 0.007430231847 0.007490672469)
5(0.00661885405 0.007004174692 0.007402272267 0.007522374655 0.007503962394)
5(0.006767659825 0.007150271926 0.00754226146 0.007572616037 0.007503255323)
5(0.006896439519 0.007275422578 0.007654320902 0.00758614963 0.007487879431)
5(0.006997336521 0.007374494939 0.007721049406 0.007569014944 0.007455171356)
5(0.007064440073 0.007443111245 0.007736641817 0.007530890282 0.007405310622)
5(0.007098224215 0.007474017756 0.00769849388 0.007475468359 0.007344134304)
5(0.007091064861 0.007453540797 0.007623253843 0.00740396356 0.007282539636)
5(0.007052502829 0.007375230659 0.007520546605 0.007320493304 0.007228448984)
5(0.00697025687 0.007247973747 0.007396406038 0.007230991536 0.007191248729)
5(0.006844268808 0.007088692453 0.007260572499 0.007147907281 0.007176720718)
5(0.006676736112 0.006913825529 0.007120252268 0.007074726557 0.00719111027)
5(0.006472557822 0.006730430705 0.006981912601 0.007023031322 0.007241900579)
5(0.006242984617 0.006543124921 0.006853401452 0.007000073238 0.007341430793)
5(0.005997418942 0.006359316235 0.006740541169 0.007012795976 0.007497968928)
5(0.00574537365 0.00618097383 0.006648890112 0.007068644277 0.007712672806)
5(0.005492388033 0.006011045012 0.006579183422 0.007166885959 0.007994671026)
5(0.005233278966 0.005844291199 0.00652930502 0.007309220644 0.008348169446)
5(0.004854600677 0.005541348265 0.00635156877 0.007424247689 0.00871792787)
)


60
(
5(0.003022567327 0.003090676372 0.004246141977 0.004626332444 0.005543596208)
5(0.003133627811 0.003441694078 0.004100055364 0.004588753126 0.005181973738)
5(0.003225797618 0.003654696404 0.004118141199 0.004641893764 0.005087965187)
5(0.00333025685 0.003792858828 0.004242458037 0.004754301381 0.005177038636)
5(0.003472992915 0.003917670369 0.004412406363 0.004894712442 0.005362466179)
5(0.003624583244 0.004039233048 0.004568149928 0.005028467332 0.005551391072)
5(0.003742020808 0.004142221994 0.004681092817 0.005132154878 0.005673634709)
5(0.003831063973 0.004234745758 0.004763347213 0.005216611616 0.005750042013)
5(0.003910890426 0.004321551063 0.004835215232 0.00529369309 0.005815169172)
5(0.003992916204 0.004406062264 0.004912891368 0.005374419705 0.005892400272)
5(0.004077148294 0.004490838292 0.00499730958 0.005457408283 0.005978340445)
5(0.004161528775 0.004573561701 0.005083454369 0.005541017925 0.00606564862)
5(0.004243891275 0.004654780607 0.005167756149 0.005621715829 0.006148426025)
5(0.004323547065 0.004735463234 0.005248260176 0.005701451989 0.006227136567)
5(0.004402351924 0.004815322539 0.005328442902 0.005780120911 0.006304569324)
5(0.004481569752 0.004895989521 0.00540865488 0.005859877406 0.006383243089)
5(0.0045618773 0.004976984982 0.005491668944 0.005940850422 0.006463972855)
5(0.00464337058 0.00505968715 0.005575781573 0.006022410437 0.006545910598)
5(0.004726394962 0.005144093426 0.005660809246 0.006108418438 0.006629517755)
5(0.004811061089 0.005230318794 0.005748123368 0.006194946642 0.006714899089)
5(0.004897919694 0.005319049916 0.005838010582 0.006283952321 0.006802639436)
5(0.004987456855 0.005410827702 0.005930217036 0.006375395875 0.00689244852)
5(0.0050797546 0.005505249987 0.006025612276 0.006468761524 0.006985475851)
5(0.005175747738 0.005603648169 0.006125138916 0.00656585787 0.007082232545)
5(0.005275989554 0.005706265486 0.006229345399 0.006668299643 0.007182696849)
5(0.005380067624 0.005812265873 0.00633821101 0.006776292697 0.007288037951)
5(0.005489790883 0.005925274448 0.006452319578 0.006889732871 0.00739877475)
5(0.005604981658 0.006042664523 0.006571948569 0.007008431853 0.007514361723)
5(0.005726496663 0.006166296358 0.006698038961 0.007133192383 0.007635901309)
5(0.00585363223 0.00629708636 0.006830901281 0.007263932817 0.007763520594)
5(0.005988529273 0.006435656348 0.006971122658 0.007402189228 0.007897770158)
5(0.006131014812 0.006581528515 0.007119195845 0.007548082717 0.008038515673)
5(0.006280857937 0.006736143222 0.00727614106 0.007702389942 0.008185769155)
5(0.006438635577 0.006898281365 0.007442257949 0.007863908931 0.008338133693)
5(0.006604367071 0.00706993547 0.007616209132 0.008033303523 0.008495454339)
5(0.006778253143 0.007250309622 0.007799526972 0.0082100606 0.008658900319)
5(0.006959578435 0.007437316665 0.007990426265 0.0083927865 0.00882952737)
5(0.007146202142 0.007631709674 0.008188126715 0.00858130883 0.0090034884)
5(0.007337305754 0.007832436663 0.008390549422 0.008771903555 0.009170057529)
5(0.007529636621 0.008034929815 0.008593753349 0.008961948581 0.009313951037)
5(0.007719765754 0.008237157738 0.008795524352 0.009145244366 0.009425599886)
5(0.007903779824 0.008433159198 0.008992348817 0.00931008697 0.009508199685)
5(0.008076241622 0.008618281545 0.00917880382 0.009444984897 0.009569621623)
5(0.008232352834 0.008786578343 0.00935092964 0.009539275279 0.009613975772)
5(0.008366952375 0.008931525359 0.009492963406 0.009595542272 0.009639442644)
5(0.008477945927 0.009050876396 0.009593261005 0.009619131148 0.009641790074)
5(0.008556565849 0.009138877379 0.009636693037 0.00961538893 0.009620446185)
5(0.008603722275 0.009185878774 0.009625654848 0.009585711648 0.00957964263)
5(0.008613652422 0.009180675133 0.009569153912 0.009534266726 0.009527367262)
5(0.00858753043 0.009115870357 0.009480099825 0.009458195216 0.009471347858)
5(0.008521795343 0.009001514138 0.009362155465 0.009367754378 0.009420840585)
5(0.008411914568 0.008850122558 0.00922263898 0.009269992067 0.009382621547)
5(0.008255988152 0.008676599805 0.009071009862 0.009173386811 0.009364621071)
5(0.008060421487 0.008489042299 0.008914505769 0.009090444784 0.009377213137)
5(0.007835972563 0.008293021161 0.008759622749 0.0090270287 0.009430004382)
5(0.007590776812 0.008092911374 0.008612330394 0.008990554468 0.009532760082)
5(0.007333704886 0.007893223635 0.008480274509 0.008989796613 0.009689700093)
5(0.007068618363 0.007695180117 0.008364571253 0.009028820481 0.009908171909)
5(0.006787159128 0.007489206267 0.008262681175 0.009107378799 0.01019030348)
5(0.006361822134 0.007144884046 0.00796045815 0.009094058716 0.01041922768)
)


60
(
5(0.003551726758 0.003701660182 0.004962768979 0.005471634667 0.006447333115)
5(0.003769089071 0.004157451357 0.004903746258 0.005500405857 0.006171960293)
5(0.003922296422 0.004430926951 0.004981478959 0.005600550245 0.006134766111)
5(0.004062267481 0.004604152482 0.005145563785 0.005746411297 0.006259615642)
5(0.004233326997 0.004756340692 0.005342667726 0.005912484615 0.00646932006)
5(0.004410943974 0.00490365287 0.00552101562 0.006068829329 0.006679322679)
5(0.004552086094 0.005030008032 0.005656042208 0.006194237677 0.006822673226)
5(0.004663300811 0.005144754241 0.005760529534 0.006299067387 0.00691990359)
5(0.004764427176 0.005251892731 0.005852378147 0.006396000848 0.007004963714)
5(0.004866566129 0.005356898815 0.005949847827 0.006495060284 0.007100965809)
5(0.004969991772 0.005459685972 0.006052109571 0.006596064618 0.007204400158)
5(0.00507283352 0.00556121042 0.006156568095 0.006696703028 0.007308992975)
5(0.005173225157 0.005660262872 0.006257823655 0.006794658951 0.007408368049)
5(0.005270705259 0.005757989187 0.006355920392 0.006890909195 0.00750399908)
5(0.005366860802 0.005855278518 0.006452731498 0.006986259795 0.007598008783)
5(0.005463078806 0.005952487202 0.006550349211 0.007082412571 0.007693320408)
5(0.005560284196 0.006050875157 0.006649571056 0.007179180284 0.007790045542)
5(0.005658638031 0.006149830639 0.006749716083 0.007278448699 0.007888412614)
5(0.005758370297 0.006250875954 0.006852058551 0.007379358231 0.007988638778)
5(0.005859822589 0.006353756901 0.006955749924 0.007482843516 0.008090385023)
5(0.005963521226 0.006459059492 0.007062006497 0.00758861349 0.008194691168)
5(0.006069529925 0.006567363796 0.007171461221 0.007696008943 0.008301861995)
5(0.006178831208 0.006678885451 0.007283774801 0.007806571655 0.00841227563)
5(0.006291786671 0.006793831577 0.007400537495 0.007921073902 0.00852654013)
5(0.006408780679 0.006912957595 0.007522122282 0.008040732818 0.008645428377)
5(0.006530207092 0.00703723128 0.007648416665 0.008166591864 0.008768970185)
5(0.00665682147 0.00716661584 0.007780319835 0.008298599626 0.008898176754)
5(0.006789086968 0.007301966489 0.007918466951 0.008435729151 0.009033023634)
5(0.006927731051 0.007443690356 0.008063253168 0.008579424515 0.009175131153)
5(0.007072464663 0.007592715076 0.008214848345 0.008730627347 0.009324105532)
5(0.007224503364 0.007748557576 0.008374284687 0.008888993211 0.009480459548)
5(0.007383277364 0.007912204152 0.008542795522 0.00905619604 0.009644363217)
5(0.00754961593 0.00808519547 0.008719494361 0.009232068477 0.009815407314)
5(0.007723451198 0.00826592099 0.008905539105 0.009416744189 0.009992472408)
5(0.007904357066 0.008455070724 0.009100034132 0.009609907511 0.01017707675)
5(0.008092541907 0.008652189236 0.009303787205 0.00981075267 0.01036860728)
5(0.008285482124 0.008856597713 0.009516679081 0.0100194772 0.01056880318)
5(0.008483459745 0.009068017573 0.009735876249 0.01023469002 0.01077467037)
5(0.008682864958 0.009283764835 0.009960409864 0.01045405157 0.01097473284)
5(0.008881909309 0.009500541291 0.01018710301 0.01067296188 0.01115569428)
5(0.009076492796 0.00971673579 0.01041106538 0.0108880015 0.0113054779)
5(0.009262355837 0.009926007883 0.0106310769 0.01108657117 0.0114324797)
5(0.009435709068 0.01012311145 0.01084103789 0.01125623707 0.01153654871)
5(0.009593557509 0.01030326761 0.01103695769 0.01138833598 0.01162508253)
5(0.00973226514 0.0104611202 0.01120248798 0.01148356629 0.01169256484)
5(0.009847418185 0.01059354563 0.0113253134 0.01154417751 0.01173584884)
5(0.009932992703 0.01069560429 0.01139267472 0.01157572696 0.01174920095)
5(0.009992515637 0.01075729765 0.01140248697 0.01157546882 0.01173533924)
5(0.01001935341 0.01076860512 0.01137169588 0.01154472443 0.01170222279)
5(0.01001082308 0.01072202274 0.01129850846 0.0114855802 0.01165592175)
5(0.009967960294 0.01062716883 0.01119200302 0.01140017227 0.0116013306)
5(0.00987974057 0.0104910991 0.01105945867 0.0112998103 0.01155326106)
5(0.00974638193 0.01033143196 0.01090643763 0.01119187527 0.01151265875)
5(0.00956744871 0.01015016353 0.01074312218 0.01108459677 0.0114913387)
5(0.009357518198 0.009956016996 0.01057575664 0.01099149032 0.01150239625)
5(0.009118815338 0.009752588928 0.01041164305 0.01091890701 0.01155424063)
5(0.008864338233 0.009542767845 0.01025474929 0.01087302144 0.01165639897)
5(0.008594037797 0.009328566865 0.01010794343 0.01086104765 0.0118138931)
5(0.008301386182 0.009096733363 0.009960759542 0.01087987425 0.01202545982)
5(0.007847741264 0.008703795827 0.009595101235 0.01077536861 0.01214901578)
)


60
(
5(0.004078773487 0.004308315941 0.005674395027 0.006308789669 0.007341035502)
5(0.004402142269 0.004868838785 0.005700835759 0.006402599371 0.007148866131)
5(0.004616357181 0.005203119533 0.005837611237 0.006549066571 0.007166736962)
5(0.004791853945 0.005411272496 0.006041091183 0.006728285317 0.00732694759)
5(0.004991515849 0.00559094685 0.006265712983 0.00691972578 0.007561079307)
5(0.005195410917 0.005764199206 0.006466633213 0.007099071824 0.007792243184)
5(0.005360282793 0.005914072707 0.006624056293 0.007245618735 0.007956807359)
5(0.005493799569 0.006050572138 0.006750192149 0.00737115947 0.008074422672)
5(0.005616172447 0.00617860535 0.006862253102 0.007487031627 0.008179268069)
5(0.005738451055 0.006302946646 0.00697876927 0.007604846684 0.00829354586)
5(0.005860966314 0.006424700687 0.007099223435 0.007723039388 0.00841446005)
5(0.005982255986 0.006544220805 0.007221386324 0.007840825056 0.008535674048)
5(0.006100610465 0.006660656331 0.007339593981 0.00795527519 0.008651755359)
5(0.006215590891 0.006776041831 0.007454769688 0.008067913739 0.008763388006)