/*--------------------------------*- C++ -*----------------------------------*\
| =========                 |                                                 |
| \\      /  F ield         | OpenFOAM: The Open Source CFD Toolbox           |
|  \\    /   O peration     | Version:  2.3.1                                 |
|   \\  /    A nd           | Web:      www.OpenFOAM.org                      |
|    \\/     M anipulation  |                                                 |
\*---------------------------------------------------------------------------*/
FoamFile
{
    version     2.0;
    format      ascii;
    class       dictionary;
    location    "constant";
    object      DPSE1;
}
// * * * * * * * * * * * * * * * * * * * * * * * * * * * * * * * * * * * * * //

DPSE1_table
60
(

60
(
5(-0.8604556637 -0.9510864719 -0.8476663471 -0.9207682431 -0.8046995002)
5(-0.9408923421 -0.9737485915 -0.9285800048 -0.9987032453 -0.8914089954)
5(-0.9832076297 -1.105259479 -1.069782726 -1.109103295 -0.9739588164)
5(-1.006822364 -1.212284003 -1.227414535 -1.212782989 -1.309782824)
5(-1.113852204 -1.294552045 -1.331926687 -1.357337586 -1.380975953)
5(-1.26603122 -1.367503253 -1.367906514 -1.439935336 -1.45568378)
5(-1.37470611 -1.438482236 -1.451080037 -1.506073099 -1.556373309)
5(-1.430424488 -1.512337089 -1.546427677 -1.598860519 -1.588337646)
5(-1.514402553 -1.587797865 -1.623086579 -1.684104902 -1.711939895)
5(-1.580835442 -1.661870645 -1.714745608 -1.763633209 -1.804202333)
5(-1.640326432 -1.729411557 -1.78983449 -1.843224865 -1.888008389)
5(-1.699344055 -1.79420797 -1.855919084 -1.917561265 -1.962814283)
5(-1.760880411 -1.858091988 -1.922471204 -1.989619021 -2.040097145)
5(-1.829594705 -1.920116807 -1.989888864 -2.054083896 -2.108780296)
5(-1.886015274 -1.978713943 -2.053947226 -2.125118055 -2.181560959)
5(-1.941577701 -2.036423014 -2.118248779 -2.189910303 -2.253220878)
5(-1.995505904 -2.091454511 -2.178772366 -2.25299007 -2.321591188)
5(-2.048500339 -2.146162667 -2.238990301 -2.316281768 -2.388247124)
5(-2.100313249 -2.200129408 -2.299382055 -2.378147553 -2.453097068)
5(-2.153347103 -2.255846693 -2.358913241 -2.440844361 -2.516334641)
5(-2.204507801 -2.308903446 -2.416047398 -2.498485356 -2.579276098)
5(-2.254704239 -2.361296205 -2.474581241 -2.556137232 -2.642769246)
5(-2.306375733 -2.413177779 -2.53049666 -2.618720908 -2.70833965)
5(-2.35536277 -2.465993401 -2.586795845 -2.675902655 -2.767767007)
5(-2.404342381 -2.517590604 -2.643663931 -2.735687326 -2.830223084)
5(-2.452491077 -2.566720672 -2.698019243 -2.793508523 -2.889053145)
5(-2.500388226 -2.614190413 -2.750583766 -2.848554597 -2.947636491)
5(-2.547580055 -2.664212088 -2.805524852 -2.901994284 -3.005808102)
5(-2.595584983 -2.715292429 -2.856258047 -2.952194787 -3.062268966)
5(-2.642790577 -2.765250878 -2.911418121 -3.008484403 -3.119119412)
5(-2.690136296 -2.812906351 -2.963141017 -3.060232619 -3.164721005)
5(-2.73594491 -2.860723844 -3.013497663 -3.108615888 -3.2273517)
5(-2.782583624 -2.911586138 -3.071402146 -3.165019396 -3.281594626)
5(-2.830261912 -2.958642925 -3.120669972 -3.215265886 -3.315332572)
5(-2.8767841 -3.009467475 -3.179105074 -3.269794313 -3.384654189)
5(-2.922966073 -3.050680894 -3.211951713 -3.310636461 -3.441939861)
5(-2.968974269 -3.096013242 -3.243191871 -3.360604207 -3.453096315)
5(-3.016699671 -3.149629443 -3.319867929 -3.413684716 -3.529835177)
5(-3.070836794 -3.191288761 -3.380123701 -3.459729095 -3.454419466)
5(-3.114812419 -3.228550598 -3.399889842 -3.503042845 -3.417548195)
5(-3.144761295 -3.264967467 -3.423159196 -3.480672423 -3.619657514)
5(-3.185351137 -3.300003507 -3.473160206 -3.384953041 -3.668048237)
5(-3.234362298 -3.348581873 -3.58820095 -3.455797504 -3.738528682)
5(-3.277390562 -3.392571349 -3.631806208 -3.630254275 -3.792809279)
5(-3.294995259 -3.428792033 -3.550581462 -3.682390121 -3.844111532)
5(-3.313925777 -3.461123762 -3.460364507 -3.740815242 -3.914309081)
5(-3.353524054 -3.413790945 -3.478571226 -3.8011826 -3.983840467)
5(-3.385612032 -3.472060928 -3.65620579 -3.864353057 -4.058121599)
5(-3.417315668 -3.457295269 -3.761648445 -3.933408317 -4.139062487)
5(-3.440673229 -3.464257386 -3.830258685 -4.006457184 -4.227765198)
5(-3.371611921 -3.644760298 -3.898082977 -4.086615843 -4.325359227)
5(-3.376097618 -3.704086664 -3.970836996 -4.175399183 -4.434459711)
5(-3.526173166 -3.768327223 -4.04953834 -4.274412332 -4.557531113)
5(-3.625202235 -3.838031551 -4.136686626 -4.38343583 -4.696551485)
5(-3.697918933 -3.912670244 -4.234594226 -4.506380197 -4.852992257)
5(-3.782976566 -3.994327775 -4.345188282 -4.644004638 -5.021320611)
5(-3.860304003 -4.107394074 -4.471328128 -4.794395648 -5.204071452)
5(-3.909336069 -4.229025097 -4.648517042 -4.876352192 -5.399868621)
5(-3.942587954 -4.304586074 -4.879711437 -5.488653493 -6.119540284)
5(-3.974854933 -4.363596583 -5.045364557 -6.248724872 -6.835060375)
)


60
(
5(-0.8883136421 -1.000084058 -0.8778135979 -0.9587464747 -0.8448429591)
5(-0.9770864587 -1.092587144 -0.98593053 -1.06625913 -0.9677905566)
5(-1.08811135 -1.18304543 -1.14063361 -1.203402937 -1.161433041)
5(-1.195827662 -1.272435329 -1.281311476 -1.330493043 -1.338234556)
5(-1.292996254 -1.35848965 -1.39537001 -1.43945856 -1.47952818)
5(-1.372070003 -1.437231589 -1.478975663 -1.527219651 -1.572917528)
5(-1.437494598 -1.510709079 -1.547912468 -1.604951505 -1.640737741)
5(-1.502171709 -1.58250213 -1.619947264 -1.683100167 -1.714866308)
5(-1.570276724 -1.653032568 -1.697592164 -1.763418846 -1.801407017)
5(-1.639447239 -1.722034083 -1.777300218 -1.843862444 -1.891971058)
5(-1.705366013 -1.788869349 -1.85341051 -1.920486807 -1.977163018)
5(-1.767905425 -1.85292789 -1.924530691 -1.993176585 -2.054914181)
5(-1.827445293 -1.914685164 -1.991321664 -2.062906214 -2.127275397)
5(-1.885194708 -1.974871945 -2.056203664 -2.130694975 -2.198917204)
5(-1.942036695 -2.033941056 -2.120639939 -2.197397504 -2.270362246)
5(-1.998185573 -2.092148439 -2.184594151 -2.263528585 -2.341042516)
5(-2.053409882 -2.149640831 -2.247729757 -2.329230132 -2.410786179)
5(-2.107785382 -2.206849628 -2.310013395 -2.394463008 -2.479555168)
5(-2.161780509 -2.263636576 -2.371861371 -2.459473509 -2.548609863)
5(-2.215947575 -2.320530851 -2.433915874 -2.523940279 -2.616939757)
5(-2.27041811 -2.377243497 -2.495735328 -2.586846045 -2.683331232)
5(-2.323972124 -2.43350222 -2.556560713 -2.649057523 -2.749762424)
5(-2.376988331 -2.490016853 -2.617670367 -2.711469292 -2.815380587)
5(-2.431142935 -2.546230988 -2.67877474 -2.774499444 -2.880738125)
5(-2.48510745 -2.602480427 -2.73980187 -2.838136304 -2.946260375)
5(-2.539351188 -2.659222074 -2.801149552 -2.901405381 -3.010811353)
5(-2.594183289 -2.716370302 -2.862508835 -2.963387484 -3.07429018)
5(-2.64970043 -2.774168497 -2.924198651 -3.024911184 -3.137718022)
5(-2.706014204 -2.832393266 -2.986011595 -3.086640503 -3.200513791)
5(-2.763459483 -2.891501679 -3.048351165 -3.148815671 -3.262218237)
5(-2.822240311 -2.951839608 -3.111181177 -3.210803296 -3.323029162)
5(-2.881895781 -3.012687402 -3.174012872 -3.271822415 -3.381669329)
5(-2.942826519 -3.074107333 -3.237129783 -3.331854157 -3.436987341)
5(-3.005462832 -3.136970517 -3.300351643 -3.390209362 -3.489577587)
5(-3.069842545 -3.199555872 -3.362810317 -3.44646074 -3.541695754)
5(-3.13502275 -3.26136576 -3.42316101 -3.500188091 -3.594070262)
5(-3.200432859 -3.323092954 -3.481283844 -3.551035168 -3.644145086)
5(-3.265927413 -3.38140156 -3.534970751 -3.597423161 -3.678354245)
5(-3.329308606 -3.437636892 -3.58279668 -3.636371664 -3.68430607)
5(-3.389048644 -3.488527096 -3.622926914 -3.66517317 -3.663928818)
5(-3.441762672 -3.532150421 -3.658993959 -3.677064636 -3.637738805)
5(-3.489025333 -3.566406794 -3.691563757 -3.665386602 -3.629782997)
5(-3.527923211 -3.584441602 -3.715766413 -3.633150193 -3.648794276)
5(-3.549903758 -3.597895953 -3.72206909 -3.598867063 -3.680830305)
5(-3.555725853 -3.606807055 -3.697586605 -3.583977083 -3.711892238)
5(-3.546704243 -3.605850777 -3.643002783 -3.595500209 -3.749788706)
5(-3.525671432 -3.586671336 -3.581815451 -3.626438936 -3.800789614)
5(-3.495153838 -3.538296602 -3.544556018 -3.666425212 -3.866952864)
5(-3.453080907 -3.464134793 -3.538540344 -3.714223464 -3.950514536)
5(-3.398814897 -3.387630222 -3.559428686 -3.776909006 -4.04637265)
5(-3.329145881 -3.344481092 -3.600715931 -3.858407872 -4.153301695)
5(-3.247872178 -3.34771561 -3.66025929 -3.951093071 -4.270311441)
5(-3.175265937 -3.384556945 -3.734885346 -4.051394501 -4.399197192)
5(-3.131917591 -3.443162385 -3.822013614 -4.170093213 -4.547512092)
5(-3.131486477 -3.512985656 -3.919223211 -4.305396049 -4.716392938)
5(-3.169665708 -3.586450641 -4.026659727 -4.451331642 -4.907374948)
5(-3.240330237 -3.673738369 -4.146253658 -4.615136974 -5.12325812)
5(-3.34775833 -3.773740596 -4.271761631 -4.806052438 -5.377798548)
5(-3.600199926 -4.009330197 -4.568572968 -5.247891071 -5.818037543)
5(-3.789061868 -4.195567716 -4.795272616 -5.586933111 -6.128734867)
)


60
(
5(-0.9142961114 -1.030627831 -0.9013909979 -0.9794073281 -0.8731201693)
5(-1.004388598 -1.121667496 -1.014980897 -1.091154972 -1.0027795)
5(-1.108743781 -1.201592137 -1.168604118 -1.226687776 -1.196196789)
5(-1.212504352 -1.285084666 -1.305261573 -1.350996815 -1.368932065)
5(-1.308130364 -1.369448165 -1.414808003 -1.457429057 -1.505428363)
5(-1.384831874 -1.447285506 -1.495549188 -1.54394065 -1.59585291)
5(-1.447863367 -1.519544536 -1.563525849 -1.620743522 -1.662878543)
5(-1.511148233 -1.590679266 -1.634596868 -1.698437616 -1.737057113)
5(-1.578790204 -1.660935032 -1.711811337 -1.778918123 -1.823904639)
5(-1.647145712 -1.729902458 -1.791120727 -1.859428007 -1.914564973)
5(-1.712662055 -1.796524175 -1.86713453 -1.936510427 -1.999353827)
5(-1.774746126 -1.860527383 -1.938143175 -2.009458511 -2.07746766)
5(-1.833930373 -1.922597596 -2.005227923 -2.079645671 -2.150689663)
5(-1.891608827 -1.983516114 -2.070653372 -2.148156791 -2.222975842)
5(-1.948779032 -2.043471251 -2.135910861 -2.216338019 -2.295526035)
5(-2.00516218 -2.102541966 -2.20080388 -2.284167664 -2.367713831)
5(-2.060839932 -2.16118674 -2.265066172 -2.351283187 -2.439165148)
5(-2.116340046 -2.219414571 -2.328784058 -2.418395628 -2.510394278)
5(-2.171500366 -2.277950075 -2.39264553 -2.485632009 -2.581436939)
5(-2.226809559 -2.337115052 -2.456601947 -2.55243209 -2.651437061)
5(-2.282652057 -2.395983001 -2.520455701 -2.617823435 -2.720776004)
5(-2.338289631 -2.454439841 -2.583879789 -2.683243147 -2.789646833)
5(-2.393949686 -2.513481381 -2.647858457 -2.748907636 -2.858099318)
5(-2.450307098 -2.572817332 -2.712233659 -2.815129112 -2.926531038)
5(-2.506921253 -2.632530495 -2.776822596 -2.882561999 -2.995214692)
5(-2.564519756 -2.693134845 -2.841921679 -2.949559079 -3.064001567)
5(-2.622973455 -2.754407469 -2.907078955 -3.015880715 -3.13164452)
5(-2.68231746 -2.816580658 -2.973022958 -3.082488421 -3.199464929)
5(-2.74319095 -2.879721051 -3.040659726 -3.149274719 -3.267871071)
5(-2.805263618 -2.944232669 -3.108549905 -3.216702325 -3.33463204)
5(-2.868924283 -3.010553339 -3.177067758 -3.284555887 -3.400796105)
5(-2.934868286 -3.077869309 -3.246761709 -3.35310137 -3.464930428)
5(-3.002535207 -3.146316495 -3.317630244 -3.420060091 -3.527415414)
5(-3.071727907 -3.216733872 -3.388703695 -3.485760991 -3.587234969)
5(-3.141906208 -3.287817455 -3.458837519 -3.551190985 -3.64542407)
5(-3.216093258 -3.358243413 -3.528939988 -3.614120172 -3.705354618)
5(-3.288856638 -3.428723029 -3.596652242 -3.673275607 -3.760351094)
5(-3.360984704 -3.498824384 -3.658973194 -3.726916259 -3.797367783)
5(-3.433313811 -3.564319102 -3.716853085 -3.772593273 -3.806460992)
5(-3.497930205 -3.622653322 -3.768846171 -3.807091089 -3.786800577)
5(-3.560656625 -3.675890567 -3.810856309 -3.822427761 -3.757829992)
5(-3.613849965 -3.717621391 -3.845181631 -3.810003043 -3.739381679)
5(-3.65274604 -3.742872648 -3.869696539 -3.771753058 -3.73578268)
5(-3.678632844 -3.753191596 -3.869327584 -3.723578204 -3.741964759)
5(-3.686332305 -3.754735594 -3.8339984 -3.683843886 -3.748392601)
5(-3.673618253 -3.74526607 -3.764850982 -3.663553083 -3.755049912)
5(-3.641866343 -3.70748957 -3.679119533 -3.657745414 -3.769732275)
5(-3.595217524 -3.631595276 -3.603303689 -3.657444806 -3.802138939)
5(-3.535198035 -3.528478875 -3.551616891 -3.666866264 -3.857721265)
5(-3.45806691 -3.418798364 -3.525378518 -3.692730289 -3.936350937)
5(-3.360137974 -3.328870875 -3.521272116 -3.737934375 -4.027199208)
5(-3.244465317 -3.279699383 -3.534915119 -3.80351256 -4.129661507)
5(-3.129634538 -3.267718573 -3.569509795 -3.888932291 -4.255161239)
5(-3.039556626 -3.277645255 -3.626889439 -3.994425396 -4.402814022)
5(-2.987738972 -3.305980546 -3.702934696 -4.118741475 -4.571868026)
5(-2.978576654 -3.356676661 -3.797204883 -4.261839524 -4.763967755)
5(-3.014018812 -3.426552742 -3.907022433 -4.429259488 -4.981985964)
5(-3.10181119 -3.524808389 -4.040310266 -4.618655277 -5.233448792)
5(-3.333051759 -3.775934248 -4.382806218 -5.129479968 -5.724245453)
5(-3.50453507 -3.966536646 -4.641005885 -5.532988998 -6.080896326)
)


60
(
5(-0.9381047437 -1.055272101 -0.9210954495 -0.9934987353 -0.8955923179)
5(-1.026350728 -1.143030617 -1.036267544 -1.106508239 -1.027509239)
5(-1.120825361 -1.211452695 -1.185398637 -1.238613005 -1.216664587)
5(-1.219364745 -1.288688012 -1.317160159 -1.359663424 -1.384778169)
5(-1.312955285 -1.371333657 -1.42257754 -1.463944859 -1.517535798)
5(-1.387783558 -1.448253477 -1.501380954 -1.54958097 -1.606530432)
5(-1.449017612 -1.519586661 -1.568776151 -1.625948372 -1.673270569)
5(-1.511303952 -1.590206881 -1.639153885 -1.703464045 -1.747529706)
5(-1.578123588 -1.660100604 -1.715843796 -1.783946773 -1.834337245)
5(-1.645713233 -1.728812751 -1.794908984 -1.864584976 -1.924931845)
5(-1.710750182 -1.79533494 -1.870718624 -1.941899741 -2.01002628)
5(-1.772470363 -1.859552445 -1.941795714 -2.015390334 -2.088467051)
5(-1.831334151 -1.921853796 -2.009074252 -2.086189428 -2.1622553)
5(-1.888893235 -1.983095733 -2.074917784 -2.155702977 -2.235312584)
5(-1.946088762 -2.043330071 -2.140777471 -2.224623356 -2.308787602)
5(-2.002929572 -2.103089089 -2.206478228 -2.293328616 -2.382110738)
5(-2.059042758 -2.162863289 -2.271762857 -2.361492563 -2.455037881)
5(-2.11501864 -2.222171128 -2.336459766 -2.430276495 -2.527258254)
5(-2.170698846 -2.281659517 -2.401363182 -2.49940767 -2.599595548)
5(-2.226717198 -2.342160786 -2.466891111 -2.567447548 -2.671353613)
5(-2.284127259 -2.402620334 -2.532290361 -2.635025708 -2.742961693)
5(-2.341405741 -2.462703946 -2.597598981 -2.702487971 -2.814395509)
5(-2.397624383 -2.523469047 -2.663856144 -2.770483632 -2.885065881)
5(-2.455609484 -2.585042939 -2.730212575 -2.839540478 -2.956537401)
5(-2.514737393 -2.647379629 -2.797243362 -2.909319206 -3.027915683)
5(-2.574247347 -2.710097368 -2.865444187 -2.979871073 -3.099128169)
5(-2.634766175 -2.774164195 -2.933932157 -3.050175533 -3.171100046)
5(-2.696926325 -2.839831883 -3.003360234 -3.120320861 -3.242381282)
5(-2.760842254 -2.906712336 -3.074504849 -3.191522041 -3.314624006)
5(-2.825745347 -2.975070133 -3.146538926 -3.263877228 -3.387381355)
5(-2.892867377 -3.045313975 -3.220106182 -3.336838435 -3.458991621)
5(-2.962299404 -3.117002928 -3.294847513 -3.41137245 -3.530087678)
5(-3.032945862 -3.190867231 -3.370860941 -3.484497397 -3.598683746)
5(-3.106181214 -3.266105301 -3.448304428 -3.557034225 -3.665818199)
5(-3.181471728 -3.342747005 -3.525086458 -3.631406133 -3.731808083)
5(-3.257454451 -3.419278304 -3.602336538 -3.702524966 -3.798541702)
5(-3.335465992 -3.496101922 -3.678291526 -3.770319231 -3.861791094)
5(-3.412228414 -3.572682584 -3.751052132 -3.833946937 -3.908201519)
5(-3.486476512 -3.644602499 -3.820020466 -3.889399305 -3.925316286)
5(-3.559310077 -3.714308016 -3.879630255 -3.933208821 -3.913697949)
5(-3.623245613 -3.776079376 -3.930426056 -3.957772962 -3.891570573)
5(-3.679076491 -3.823757222 -3.973854372 -3.953136052 -3.872006265)
5(-3.724970083 -3.856885964 -4.003542982 -3.91827522 -3.86189927)
5(-3.755731003 -3.875549555 -4.007062691 -3.86927729 -3.856981272)
5(-3.768463058 -3.879272396 -3.971555892 -3.822097619 -3.843220064)
5(-3.75950472 -3.863536326 -3.899379825 -3.782844302 -3.821418341)
5(-3.734384041 -3.825352266 -3.803066494 -3.752004462 -3.803889872)
5(-3.69127503 -3.751255588 -3.709222908 -3.722364706 -3.802179293)
5(-3.635123596 -3.63609952 -3.633962133 -3.693773729 -3.822212569)
5(-3.558841525 -3.505731988 -3.568193793 -3.674475961 -3.865318194)
5(-3.454851705 -3.391805122 -3.515951425 -3.67673545 -3.927098327)
5(-3.332928794 -3.306888407 -3.482769223 -3.70143441 -4.008668644)
5(-3.19883533 -3.246389614 -3.469481935 -3.749954076 -4.112777732)
5(-3.071917611 -3.205135388 -3.482430692 -3.828679551 -4.244487993)
5(-2.972045351 -3.187272299 -3.522477371 -3.933619406 -4.407665815)
5(-2.907388514 -3.196923159 -3.5898158 -4.06413752 -4.590999717)
5(-2.885771805 -3.237930277 -3.685585739 -4.218761403 -4.799769778)
5(-2.921009017 -3.319113184 -3.817875835 -4.404579892 -5.054123197)
5(-3.087399421 -3.61664471 -4.236551642 -4.926456263 -5.6680977)
5(-3.21764776 -3.85695313 -4.56746206 -5.3359028 -6.13238761)
)


60
(
5(-0.9607223118 -1.076866008 -0.9380657353 -1.003834543 -0.9142759673)
5(-1.045607311 -1.1605802 -1.053064346 -1.116746058 -1.046484348)
5(-1.129010946 -1.216945725 -1.196252766 -1.244610262 -1.229830862)
5(-1.221509966 -1.287486346 -1.322441364 -1.361980487 -1.392826514)
5(-1.312880346 -1.368145969 -1.423811971 -1.463972021 -1.522287354)
5(-1.385988375 -1.444071173 -1.500754818 -1.548549342 -1.609938571)
5(-1.445526724 -1.514252762 -1.567450713 -1.624414978 -1.676366118)
5(-1.506629928 -1.584080843 -1.637033306 -1.701628454 -1.750468499)
5(-1.572570391 -1.653373283 -1.712929554 -1.781702972 -1.836928322)
5(-1.639370741 -1.721672918 -1.791505399 -1.862265741 -1.927355564)
5(-1.703723313 -1.78795596 -1.867098634 -1.93968526 -2.012432561)
5(-1.764933568 -1.851951348 -1.93793973 -2.013312787 -2.090970428)
5(-1.823573774 -1.914274655 -2.005213925 -2.084457664 -2.165214252)
5(-1.880762722 -1.975614869 -2.071111916 -2.154489482 -2.238572456)
5(-1.937692611 -2.03612663 -2.137176514 -2.224043973 -2.312573752)
5(-1.99467137 -2.096257108 -2.203326568 -2.293312707 -2.386836216)
5(-2.051041918 -2.156244381 -2.269069717 -2.362340855 -2.460309213)
5(-2.107088811 -2.216068698 -2.334462018 -2.431756674 -2.533299487)
5(-2.163284651 -2.276462457 -2.400104257 -2.50148921 -2.606909084)
5(-2.219893924 -2.337570749 -2.466581741 -2.571040105 -2.680357385)
5(-2.277366803 -2.398949252 -2.533267997 -2.640280037 -2.752847375)
5(-2.335204321 -2.460337751 -2.59957115 -2.709254557 -2.82524394)
5(-2.393274182 -2.522500137 -2.66674147 -2.778492679 -2.89862394)
5(-2.452600334 -2.585412088 -2.73506538 -2.849429854 -2.971738249)
5(-2.511959136 -2.649364498 -2.804366252 -2.921751028 -3.045436896)
5(-2.572804368 -2.713437887 -2.874218331 -2.994574074 -3.120574676)
5(-2.635731808 -2.779176069 -2.944537264 -3.067362602 -3.194739518)
5(-2.699721932 -2.846948376 -3.016359296 -3.140825264 -3.269546868)
5(-2.764147984 -2.91584316 -3.089977572 -3.215177124 -3.345333721)
5(-2.830842558 -2.987493616 -3.165267412 -3.290667085 -3.421293159)
5(-2.900712113 -3.059980966 -3.241628936 -3.368402248 -3.498408019)
5(-2.971207019 -3.134138357 -3.320028944 -3.44717591 -3.574274761)
5(-3.043553846 -3.21068445 -3.401437578 -3.525809003 -3.649089752)
5(-3.118536815 -3.289199572 -3.482149127 -3.604579208 -3.723173559)
5(-3.195750633 -3.370183833 -3.563833014 -3.683939056 -3.796549476)
5(-3.274628774 -3.450116079 -3.647886184 -3.762016752 -3.871403388)
5(-3.352790183 -3.530233288 -3.730135814 -3.839280105 -3.94316541)
5(-3.430835494 -3.613051344 -3.810224851 -3.912690237 -4.000501318)
5(-3.507693543 -3.691438487 -3.884835293 -3.978028539 -4.030468857)
5(-3.579907739 -3.764491656 -3.953840209 -4.033960344 -4.032112566)
5(-3.646662382 -3.830790666 -4.016666051 -4.069953601 -4.01932803)
5(-3.705135315 -3.885615251 -4.068499559 -4.077059067 -4.00833173)
5(-3.751550555 -3.929177191 -4.106616824 -4.054936522 -4.00332136)
5(-3.785500317 -3.955831086 -4.120641569 -4.014001468 -3.993378759)
5(-3.807880765 -3.96712435 -4.096307282 -3.970429201 -3.970348167)
5(-3.81082477 -3.963502603 -4.030428894 -3.926654016 -3.935664634)
5(-3.797210819 -3.931444933 -3.938067439 -3.881697345 -3.897458904)
5(-3.769254516 -3.862404159 -3.840165748 -3.834697882 -3.866913961)
5(-3.724124993 -3.755220361 -3.75010432 -3.778617672 -3.851161127)
5(-3.662554079 -3.630246054 -3.666183769 -3.723601066 -3.85273855)
5(-3.575117005 -3.515143944 -3.584987886 -3.684152626 -3.873662108)
5(-3.461445291 -3.415786361 -3.513590378 -3.664212465 -3.919722267)
5(-3.333050442 -3.330009238 -3.458765123 -3.671100798 -3.989232362)
5(-3.206655733 -3.255359473 -3.424618648 -3.707246313 -4.091328244)
5(-3.083287442 -3.192153715 -3.415576573 -3.772929597 -4.232607164)
5(-2.976789177 -3.148094752 -3.440716991 -3.873175186 -4.399468969)
5(-2.901175756 -3.135996745 -3.507217727 -4.013074257 -4.598544524)
5(-2.854359579 -3.165342255 -3.628818197 -4.202691851 -4.851458531)
5(-2.918704714 -3.423613147 -4.044228849 -4.735264878 -5.534941209)
5(-2.996000809 -3.651478259 -4.371455095 -5.145325288 -6.057443242)
)


60
(
5(-0.983491414 -1.097789768 -0.9540005387 -1.012717834 -0.9311960764)
5(-1.064229368 -1.177020716 -1.067921703 -1.124866132 -1.062683991)
5(-1.135938621 -1.220974171 -1.204507931 -1.248052379 -1.239688444)
5(-1.222156408 -1.284683645 -1.324794521 -1.36156866 -1.397344159)
5(-1.311206109 -1.363224406 -1.422025767 -1.461186771 -1.523451578)
5(-1.382535517 -1.437952226 -1.49716023 -1.544591228 -1.609857757)
5(-1.440432373 -1.5068597 -1.563036936 -1.619728565 -1.675822903)
5(-1.500406635 -1.575877176 -1.631759959 -1.69646889 -1.749500662)
5(-1.565401806 -1.64438528 -1.706806613 -1.776174415 -1.835629437)
5(-1.631364892 -1.712127416 -1.784715056 -1.85627199 -1.925579991)
5(-1.694898639 -1.777920078 -1.859744233 -1.933552495 -2.010490733)
5(-1.755539383 -1.841655759 -1.930396046 -2.007261116 -2.08890391)
5(-1.813711761 -1.903723279 -1.997350115 -2.078421418 -2.163337215)
5(-1.870773128 -1.964930403 -2.063225154 -2.148722686 -2.237233631)
5(-1.92749117 -2.02563866 -2.129417251 -2.218541731 -2.311406003)
5(-1.984047892 -2.085753153 -2.195619032 -2.288054027 -2.385884664)
5(-2.040572079 -2.145894812 -2.261537879 -2.3576852 -2.459771555)
5(-2.096677347 -2.206090559 -2.327220991 -2.427651155 -2.533814039)
5(-2.153019954 -2.266576081 -2.393350453 -2.497893029 -2.607778839)
5(-2.21003652 -2.328042883 -2.460245157 -2.568279906 -2.6816091)
5(-2.267412073 -2.390012825 -2.527311839 -2.638265058 -2.755723482)
5(-2.325840613 -2.452231713 -2.594709827 -2.707672936 -2.829739421)
5(-2.384864227 -2.515144502 -2.663169475 -2.778511082 -2.903920155)
5(-2.444263988 -2.578439081 -2.731910325 -2.851463081 -2.979143811)
5(-2.504677115 -2.64295483 -2.802246122 -2.924935055 -3.054286579)
5(-2.566531556 -2.709327378 -2.873344698 -2.99907626 -3.130130716)
5(-2.629692613 -2.776650374 -2.945394822 -3.073925414 -3.206964903)
5(-2.694406355 -2.844997444 -3.019036192 -3.149415257 -3.285164947)
5(-2.760509755 -2.915401504 -3.094334757 -3.226412733 -3.364409875)
5(-2.828719341 -2.988002686 -3.171441563 -3.305017801 -3.44402608)
5(-2.89846797 -3.06180398 -3.250621969 -3.385383478 -3.524647543)
5(-2.969625144 -3.138707984 -3.331273883 -3.467424715 -3.604906689)
5(-3.043359701 -3.21680114 -3.413997644 -3.550590905 -3.683951171)
5(-3.118683598 -3.295865442 -3.498463195 -3.633947083 -3.764687373)
5(-3.196448435 -3.378286937 -3.583479124 -3.718055654 -3.845872218)
5(-3.27378 -3.46093191 -3.671119984 -3.802840433 -3.926572245)
5(-3.351806046 -3.544992133 -3.757839608 -3.885843594 -4.006912303)
5(-3.429546703 -3.62867787 -3.842766713 -3.966338896 -4.074531696)
5(-3.504505211 -3.707575948 -3.925753811 -4.042114034 -4.11708266)
5(-3.576398183 -3.784946056 -4.000636343 -4.108672326 -4.128528505)
5(-3.641648648 -3.855841301 -4.070124664 -4.155876082 -4.13252017)
5(-3.699418073 -3.914294683 -4.130770066 -4.175622754 -4.136307884)
5(-3.748262634 -3.963867494 -4.179433185 -4.169048925 -4.139219497)
5(-3.787366352 -3.998854787 -4.20509169 -4.143255927 -4.137490691)
5(-3.815078695 -4.01825103 -4.191481354 -4.110059266 -4.117292966)
5(-3.824217386 -4.023911501 -4.138753602 -4.074388591 -4.081202044)
5(-3.827999856 -4.004355185 -4.058000834 -4.029657308 -4.029011982)
5(-3.820411484 -3.949548748 -3.97409551 -3.973200237 -3.979500365)
5(-3.786332313 -3.858660735 -3.890188129 -3.908148531 -3.939588422)
5(-3.746814964 -3.754796475 -3.802431908 -3.834398996 -3.907453366)
5(-3.682759003 -3.651618272 -3.715301912 -3.763851042 -3.89072037)
5(-3.587119054 -3.564775002 -3.627509821 -3.708653702 -3.892591774)
5(-3.471529444 -3.486234666 -3.548282969 -3.669269649 -3.917470694)
5(-3.35518529 -3.399250595 -3.481999637 -3.659245428 -3.979647623)
5(-3.236813292 -3.318780102 -3.431053395 -3.685311071 -4.083835829)
5(-3.125505021 -3.237485384 -3.404127351 -3.74614248 -4.222556806)
5(-3.025838885 -3.173859774 -3.418316476 -3.856380256 -4.409354972)
5(-2.924549788 -3.129790518 -3.493930264 -4.038994746 -4.666155033)
5(-2.816569721 -3.262031362 -3.836063599 -4.590099433 -5.372846734)
5(-2.752000062 -3.413747119 -4.115836766 -5.014079728 -5.912390217)
)


60
(
5(-1.007599533 -1.119533743 -0.9695945093 -1.020766601 -0.9466061561)
5(-1.084000293 -1.194170836 -1.081950453 -1.131613636 -1.076702824)
5(-1.143760299 -1.225612172 -1.211558939 -1.249736468 -1.246729971)
5(-1.223551762 -1.282358822 -1.325775445 -1.359167555 -1.398832407)
5(-1.310355168 -1.358760327 -1.418762928 -1.4561546 -1.52157805)
5(-1.380088064 -1.432283865 -1.491962257 -1.538235668 -1.606483174)
5(-1.436489025 -1.499896725 -1.557050682 -1.612522871 -1.671850417)
5(-1.495358884 -1.568012686 -1.6247543 -1.688454641 -1.744910274)
5(-1.559533418 -1.635724586 -1.698803116 -1.767549137 -1.830441013)
5(-1.624640472 -1.702761863 -1.775972071 -1.847133504 -1.919647519)
5(-1.687495897 -1.768035006 -1.850365591 -1.923796641 -2.003948957)
5(-1.747611454 -1.831351349 -1.920495225 -1.997298309 -2.082213672)
5(-1.805376108 -1.89323721 -1.98720466 -2.068367479 -2.156430138)
5(-1.862061746 -1.954324499 -2.052823595 -2.138549163 -2.230241877)
5(-1.918612655 -2.014771066 -2.11874803 -2.208270277 -2.304780716)
5(-1.975112301 -2.074902499 -2.184994351 -2.277969874 -2.379169203)
5(-2.031260337 -2.13504457 -2.250741659 -2.347759008 -2.453270889)
5(-2.087748326 -2.195398451 -2.316502971 -2.417794701 -2.52704381)
5(-2.144076498 -2.256121428 -2.382721357 -2.488132342 -2.601521033)
5(-2.200772874 -2.317459961 -2.449459762 -2.558947223 -2.676190331)
5(-2.259034938 -2.379915739 -2.517381664 -2.62943697 -2.750463624)
5(-2.317422838 -2.44266086 -2.585192906 -2.699715338 -2.825122872)
5(-2.376948292 -2.505641883 -2.653728722 -2.771399072 -2.900304246)
5(-2.43689144 -2.570198171 -2.72360265 -2.844240367 -2.9763512)
5(-2.497387142 -2.634969696 -2.794242032 -2.918943149 -3.053239936)
5(-2.560554057 -2.701526934 -2.865963789 -2.99472087 -3.131314461)
5(-2.624808885 -2.770363307 -2.940215387 -3.070613567 -3.209360704)
5(-2.688513329 -2.839610668 -3.013993991 -3.147314008 -3.288962628)
5(-2.754858863 -2.910240155 -3.089182366 -3.227078179 -3.369765761)
5(-2.823737938 -2.983681314 -3.168436452 -3.306453457 -3.452814657)
5(-2.894610754 -3.059345457 -3.249041002 -3.387631593 -3.535766905)
5(-2.96631702 -3.13561092 -3.330949999 -3.473332818 -3.619061176)
5(-3.038614688 -3.214261917 -3.415093156 -3.559393339 -3.703654377)
5(-3.114592272 -3.295647017 -3.502606203 -3.64600859 -3.78866993)
5(-3.191206725 -3.377341387 -3.589201279 -3.733811986 -3.875325772)
5(-3.267406648 -3.461266534 -3.677415263 -3.823263445 -3.963045999)
5(-3.34350018 -3.54497973 -3.768429103 -3.911322304 -4.04987381)
5(-3.418710105 -3.627901415 -3.856494179 -3.996000222 -4.124191888)
5(-3.490311725 -3.710274252 -3.941685949 -4.077868053 -4.178061488)
5(-3.559030715 -3.787044547 -4.021490329 -4.154742841 -4.2068173)
5(-3.622708293 -3.857696174 -4.095535456 -4.212815759 -4.220473016)
5(-3.677219797 -3.918150294 -4.165345341 -4.245961028 -4.239231818)
5(-3.725969509 -3.968448028 -4.221011954 -4.253092881 -4.25905432)
5(-3.767598714 -4.008988669 -4.252687217 -4.241221107 -4.269294323)
5(-3.799434506 -4.036747726 -4.25227457 -4.225975499 -4.261293315)
5(-3.822784585 -4.047563751 -4.214390542 -4.204008375 -4.228519889)
5(-3.836300252 -4.041786607 -4.153204506 -4.169636106 -4.178577153)
5(-3.839109121 -4.008251045 -4.081984476 -4.122892934 -4.125440732)
5(-3.825438233 -3.938192497 -4.008369015 -4.057154777 -4.075953725)
5(-3.800104724 -3.856005368 -3.935576328 -3.979931298 -4.024921468)
5(-3.752734123 -3.77581879 -3.860073463 -3.903850399 -3.978681544)
5(-3.67461573 -3.700753374 -3.779600769 -3.832089494 -3.942824454)
5(-3.579564673 -3.627622001 -3.706960691 -3.771877842 -3.928285471)
5(-3.478261296 -3.551603356 -3.634130171 -3.729605752 -3.946633556)
5(-3.379402707 -3.479349825 -3.562859168 -3.712608133 -4.002716103)
5(-3.26886811 -3.39935478 -3.512977165 -3.729684598 -4.109557425)
5(-3.154073911 -3.310066121 -3.475672328 -3.797622688 -4.270552259)
5(-3.031115062 -3.204623125 -3.467031429 -3.939739869 -4.52038933)
5(-2.732516884 -3.078103715 -3.606259867 -4.496093937 -5.399067867)
5(-2.50261301 -3.011468497 -3.732835896 -4.943086757 -6.091029933)
)


60
(
5(-1.033487227 -1.14298006 -0.9860420645 -1.029065957 -0.961280755)
5(-1.105422287 -1.213078335 -1.096654189 -1.138370861 -1.089542977)
5(-1.153035618 -1.232016572 -1.2191376 -1.251282972 -1.252308837)
5(-1.226446504 -1.28184681 -1.327190154 -1.356447826 -1.398580594)
5(-1.311205448 -1.356100203 -1.416061331 -1.45076874 -1.517796886)
5(-1.379479379 -1.428492432 -1.487443635 -1.531397302 -1.601040583)
5(-1.43439882 -1.494846874 -1.551751771 -1.604690306 -1.665623964)
5(-1.492390716 -1.562043358 -1.618433358 -1.679734667 -1.737965976)
5(-1.555726734 -1.628988106 -1.69150028 -1.758024631 -1.822456513)
5(-1.620118825 -1.695423452 -1.767823929 -1.836910899 -1.910750293)
5(-1.682394433 -1.760245792 -1.841688655 -1.913116727 -1.994376238)