/*--------------------------------*- C++ -*----------------------------------*\
| =========                 |                                                 |
| \\      /  F ield         | OpenFOAM: The Open Source CFD Toolbox           |
|  \\    /   O peration     | Version:  2.3.1                                 |
|   \\  /    A nd           | Web:      www.OpenFOAM.org                      |
|    \\/     M anipulation  |                                                 |
\*---------------------------------------------------------------------------*/
FoamFile
{
    version     2.0;
    format      ascii;
    class       dictionary;
    location    "constant";
    object      DPSI50;
}
// * * * * * * * * * * * * * * * * * * * * * * * * * * * * * * * * * * * * * //

DPSI50_table
60
(

60
(
5(3.498690966e-07 -1.851455623e-07 -2.498377826e-07 -2.078495756e-07 -6.338771539e-07)
5(2.92646859e-07 -7.700619585e-08 -1.976662708e-07 -9.500240797e-08 -2.369568896e-07)
5(-1.632243794e-07 -1.304918512e-07 -3.310366445e-08 1.264070692e-07 2.144867209e-07)
5(-1.925039867e-07 -1.469224569e-07 6.41160085e-08 -7.862683276e-08 -3.613276877e-07)
5(-1.93547273e-07 -1.650309016e-07 -2.962299848e-08 -5.48186375e-09 -6.594331598e-08)
5(-4.210696121e-08 -2.780519839e-09 -5.262143776e-08 -6.338949073e-08 1.924111711e-08)
5(6.456660539e-08 1.86364497e-08 -2.336686381e-08 -1.487003608e-07 -2.791369915e-07)
5(-5.692109778e-08 -9.508559167e-08 -4.581288113e-08 5.187433846e-08 6.399635725e-08)
5(7.683097578e-09 -3.086731551e-08 -4.611940095e-08 -2.796272327e-08 -3.141512533e-08)
5(-2.164448438e-08 -6.976387406e-08 -2.738897283e-08 -1.018643812e-08 -8.172948275e-08)
5(-6.666261041e-09 -6.131228781e-08 -3.292006827e-08 -1.708202688e-08 -8.320479889e-08)
5(-1.648575193e-08 -4.586550017e-08 -3.552587033e-08 -2.309535647e-08 -4.903753774e-08)
5(-5.712765039e-08 -5.987842144e-08 -4.825213912e-08 -4.252121964e-08 -4.841409651e-08)
5(-2.69469778e-08 -4.615305086e-08 -2.628599732e-08 -2.658061036e-08 -6.484267046e-08)
5(-4.501952705e-08 -5.452774494e-08 -4.520556931e-08 -3.323310234e-08 -3.821468111e-08)
5(-3.913925489e-08 -5.569312892e-08 -4.511217306e-08 -2.981297519e-08 -4.018721966e-08)
5(-3.63114174e-08 -5.705451335e-08 -4.850305916e-08 -4.051827044e-08 -6.056729388e-08)
5(-3.791825571e-08 -5.953225885e-08 -5.801987094e-08 -4.525237378e-08 -5.424030003e-08)
5(-4.583713436e-08 -6.415952898e-08 -5.625056602e-08 -4.624921458e-08 -6.114598978e-08)
5(-5.254053458e-08 -6.648276389e-08 -6.358125497e-08 -3.638137866e-08 -2.437496454e-08)
5(-4.394147523e-08 -6.089930333e-08 -6.781976167e-08 -4.509278165e-08 -3.089423814e-08)
5(-4.146885193e-08 -6.586042649e-08 -3.991001827e-08 -2.06160595e-08 -5.128641234e-08)
5(-3.516438202e-08 -5.737238921e-08 -5.670892488e-08 -4.402001412e-08 -5.347011439e-08)
5(-6.345110866e-08 -6.438694941e-08 -4.818485276e-08 -3.956984665e-08 -4.680652566e-08)
5(-5.963737757e-08 -6.733119015e-08 -5.860483086e-08 -4.40571942e-08 -4.470920586e-08)
5(-5.886802525e-08 -8.194203635e-08 -7.60741399e-08 -3.095853462e-08 -1.36851199e-08)
5(-4.682442019e-08 -7.002655431e-08 -8.929552611e-08 -4.600613894e-08 -5.258266317e-09)
5(-5.448215975e-08 -8.405495851e-08 -9.541601876e-08 -3.712365759e-08 4.19863956e-09)
5(-4.79568365e-08 -6.956886088e-08 -8.616313418e-08 -4.85501497e-08 -1.475329581e-08)
5(-6.308891547e-08 -6.678567903e-08 -6.437986155e-08 -4.567909722e-08 -3.18692332e-08)
5(-6.412843908e-08 -7.253495668e-08 -7.218522085e-08 -3.974675254e-08 -1.483201754e-08)
5(-5.696670454e-08 -6.153281662e-08 -5.314362032e-08 -2.460311703e-09 3.636915695e-08)
5(-7.14219103e-08 -7.141819038e-08 -4.975965271e-08 -4.21390607e-08 -5.544427911e-08)
5(-8.207034448e-08 -8.336111949e-08 -3.388390594e-08 3.187961096e-08 4.765730471e-08)
5(-7.039063759e-08 -7.40815545e-08 -3.398920743e-08 2.899688167e-08 4.888296017e-08)
5(-1.055833037e-07 -1.123185716e-07 -1.849875758e-08 7.423801911e-08 6.673871662e-08)
5(-4.941966305e-08 -4.534594534e-08 -1.232252855e-08 6.872521827e-09 -2.600351507e-09)
5(-8.434382409e-08 -4.259618283e-08 -4.227857152e-09 1.388837621e-07 2.876334768e-07)
5(-5.784949039e-08 -5.058964026e-08 1.29147821e-08 4.131075465e-08 1.344186404e-08)
5(-2.25780663e-08 -5.414155675e-08 1.163841172e-08 5.449173919e-07 9.788760255e-07)
5(2.699646206e-08 9.351004619e-10 1.980714892e-08 5.066499074e-07 9.479646997e-07)
5(1.845454546e-08 1.218714763e-08 1.799186944e-07 5.193507447e-07 6.84342926e-07)
5(9.135904172e-08 5.145077022e-08 5.166877802e-07 4.948699413e-07 -3.69006381e-08)
5(7.373412703e-08 -8.48095948e-08 5.514079785e-07 6.306374954e-07 -9.24744289e-08)
5(1.400986735e-07 -2.091593593e-08 5.354818481e-07 5.90835305e-07 -8.043268863e-08)
5(4.952220109e-08 5.437090836e-08 5.475660395e-07 4.714015363e-07 -1.000418476e-07)
5(9.601089979e-08 4.303467837e-07 4.842514906e-07 3.624566579e-08 -1.320265028e-07)
5(3.675416768e-07 5.321400535e-07 2.910065685e-07 -1.504806806e-07 -1.865681223e-07)
5(2.750733862e-07 5.116619555e-07 2.769006328e-07 -2.24268783e-07 -2.524330782e-07)
5(1.037086192e-06 4.502839077e-07 -2.033576623e-07 -2.985280005e-07 -3.358919387e-07)
5(8.815774225e-07 3.392175737e-07 -2.788096315e-07 -3.927490087e-07 -4.408189617e-07)
5(1.149002098e-07 -8.049356336e-08 -3.643821927e-07 -5.109000022e-07 -5.735919187e-07)
5(-2.162473553e-07 -2.905283283e-07 -4.719305754e-07 -6.585160308e-07 -7.390269802e-07)
5(-3.315821528e-07 -4.038151332e-07 -6.05934403e-07 -8.429799837e-07 -9.511063525e-07)
5(-4.228705738e-07 -5.182158637e-07 -7.730268643e-07 -1.067786538e-06 -1.204638213e-06)
5(-4.75876002e-07 -6.295576586e-07 -9.730809197e-07 -1.337777272e-06 -1.516434238e-06)
5(-4.557571725e-07 -7.226311381e-07 -1.212541873e-06 -1.640351819e-06 -1.852543194e-06)
5(-6.360118961e-07 -8.906456183e-07 -1.435114317e-06 -1.972959399e-06 -2.228099448e-06)
5(-9.622004618e-07 -1.2348205e-06 -1.403447228e-06 -2.246409025e-06 -3.225823036e-06)
5(-1.476142385e-06 -1.845549567e-06 -2.814018359e-06 -3.412916817e-06 -3.406118893e-06)
)


60
(
5(1.934263255e-07 -2.919098932e-07 -3.628779325e-07 -3.1717603e-07 -6.702126525e-07)
5(-3.979733023e-08 -2.087204032e-07 -2.444726486e-07 -2.241282731e-07 -3.149420825e-07)
5(-1.770851759e-07 -1.800390336e-07 -1.934193122e-07 -1.769080959e-07 -1.303204867e-07)
5(-2.309508613e-07 -1.933652778e-07 -1.920870384e-07 -1.733831453e-07 -9.952832307e-08)
5(-2.25933964e-07 -2.255402454e-07 -2.165852913e-07 -1.997585626e-07 -1.729550065e-07)
5(-1.956856078e-07 -2.46211035e-07 -2.428151696e-07 -2.379835413e-07 -2.704647205e-07)
5(-1.859795277e-07 -2.542734635e-07 -2.594818918e-07 -2.613465959e-07 -3.112083879e-07)
5(-1.996822599e-07 -2.618791741e-07 -2.683630971e-07 -2.684151918e-07 -3.100139647e-07)
5(-2.185628326e-07 -2.671811686e-07 -2.744790536e-07 -2.743739376e-07 -3.020843415e-07)
5(-2.31924401e-07 -2.745988096e-07 -2.838856749e-07 -2.843613375e-07 -3.053486232e-07)
5(-2.423332955e-07 -2.855907759e-07 -2.950729263e-07 -2.980231686e-07 -3.225440909e-07)
5(-2.467504946e-07 -2.975446529e-07 -3.071769691e-07 -3.10867598e-07 -3.444893954e-07)
5(-2.532121293e-07 -3.086527016e-07 -3.179124674e-07 -3.207750692e-07 -3.593848789e-07)
5(-2.617897515e-07 -3.188521363e-07 -3.292305101e-07 -3.298605137e-07 -3.673215774e-07)
5(-2.704747998e-07 -3.284060001e-07 -3.38844632e-07 -3.388627633e-07 -3.771061029e-07)
5(-2.80005545e-07 -3.387008104e-07 -3.478439268e-07 -3.46739957e-07 -3.86481883e-07)
5(-2.889568029e-07 -3.497018663e-07 -3.579448657e-07 -3.544234055e-07 -3.95219057e-07)
5(-2.983074878e-07 -3.601944734e-07 -3.66990586e-07 -3.620727356e-07 -4.045600453e-07)
5(-3.059493594e-07 -3.702395073e-07 -3.774753985e-07 -3.694278316e-07 -4.112245674e-07)
5(-3.155531975e-07 -3.801070485e-07 -3.873158292e-07 -3.774666501e-07 -4.181299427e-07)
5(-3.246878309e-07 -3.901015304e-07 -3.959385802e-07 -3.832113736e-07 -4.236272963e-07)
5(-3.345209162e-07 -3.99479194e-07 -4.040357478e-07 -3.892954499e-07 -4.288344391e-07)
5(-3.442950366e-07 -4.094407333e-07 -4.106149035e-07 -3.94886188e-07 -4.374097974e-07)
5(-3.543973103e-07 -4.194795239e-07 -4.151062808e-07 -3.979509908e-07 -4.449715092e-07)
5(-3.634883989e-07 -4.281305201e-07 -4.220962977e-07 -4.023917995e-07 -4.483764826e-07)
5(-3.733724107e-07 -4.393760103e-07 -4.292172424e-07 -4.029851581e-07 -4.4827187e-07)
5(-3.803589673e-07 -4.483126669e-07 -4.373309084e-07 -4.043373706e-07 -4.459349623e-07)
5(-3.90794265e-07 -4.569190509e-07 -4.419524794e-07 -4.039178558e-07 -4.42823694e-07)
5(-3.994971027e-07 -4.655870447e-07 -4.447638726e-07 -4.025377305e-07 -4.434068718e-07)
5(-4.059316475e-07 -4.722850346e-07 -4.47407289e-07 -3.987226848e-07 -4.377355702e-07)
5(-4.120948761e-07 -4.787757577e-07 -4.478254257e-07 -3.928800164e-07 -4.323622992e-07)
5(-4.175814448e-07 -4.824583552e-07 -4.465700549e-07 -3.845068152e-07 -4.202088713e-07)
5(-4.212324368e-07 -4.862208085e-07 -4.422135544e-07 -3.697012839e-07 -4.034912831e-07)
5(-4.230241094e-07 -4.867498429e-07 -4.3450553e-07 -3.485543295e-07 -3.761005424e-07)
5(-4.232259755e-07 -4.851959951e-07 -4.211811665e-07 -3.200518703e-07 -3.426832869e-07)
5(-4.170221932e-07 -4.787827961e-07 -4.038408896e-07 -2.856304099e-07 -3.021864852e-07)
5(-4.064568233e-07 -4.685772459e-07 -3.786405868e-07 -2.494315314e-07 -2.708152663e-07)
5(-3.902595563e-07 -4.501473753e-07 -3.469073101e-07 -2.099956672e-07 -2.351495968e-07)
5(-3.597000829e-07 -4.234769497e-07 -3.116502618e-07 -1.512686652e-07 -1.658191896e-07)
5(-3.326939794e-07 -3.894297039e-07 -2.595669152e-07 -5.427737173e-08 -3.479073994e-08)
5(-2.84203279e-07 -3.405552949e-07 -2.016313405e-07 8.557685471e-08 1.786914069e-07)
5(-2.457797244e-07 -2.931326363e-07 -1.124271363e-07 2.66133135e-07 4.181319855e-07)
5(-1.781929048e-07 -2.354829485e-07 6.170419739e-09 4.57813153e-07 6.111598572e-07)
5(-9.145885945e-08 -1.809992688e-07 1.52807455e-07 6.412829996e-07 7.047420478e-07)
5(-2.462478502e-08 -1.170575381e-07 3.311416781e-07 7.953668562e-07 7.150987714e-07)
5(2.891638474e-08 -3.468717956e-08 5.081916208e-07 9.020192875e-07 6.841357817e-07)
5(5.783687749e-08 8.211387641e-08 6.664905434e-07 9.336983927e-07 6.361035079e-07)
5(9.540799597e-08 2.113651764e-07 7.764959059e-07 8.990914046e-07 5.689966113e-07)
5(1.643276006e-07 3.344323437e-07 8.250700332e-07 8.051606057e-07 4.618831616e-07)
5(2.839589836e-07 4.210595814e-07 7.854985627e-07 6.612285462e-07 3.057691813e-07)
5(4.190342407e-07 4.589226145e-07 6.666241171e-07 4.757988642e-07 1.110912364e-07)
5(4.876013261e-07 4.236758872e-07 4.825800389e-07 2.474779488e-07 -1.187479384e-07)
5(4.375230984e-07 3.056880412e-07 2.599767704e-07 -1.256308866e-08 -3.809839812e-07)
5(2.641809854e-07 1.067317809e-07 -5.374813494e-10 -3.177401225e-07 -6.95497882e-07)
5(-2.228651441e-08 -1.622198867e-07 -3.008272612e-07 -6.688188186e-07 -1.047940011e-06)
5(-3.620131968e-07 -4.783281714e-07 -6.502847656e-07 -1.079363446e-06 -1.461889416e-06)
5(-7.359893568e-07 -8.374080553e-07 -1.053899992e-06 -1.553482644e-06 -1.946594887e-06)
5(-1.127730926e-06 -1.223701402e-06 -1.513584472e-06 -2.104872481e-06 -2.510656583e-06)
5(-1.504123199e-06 -1.622497599e-06 -2.046310989e-06 -2.755638997e-06 -3.168582651e-06)
5(-1.919006878e-06 -1.920112297e-06 -2.681045846e-06 -3.69703658e-06 -3.949026814e-06)
)


60
(
5(9.733154137e-08 -3.871426093e-07 -4.791485321e-07 -4.154163973e-07 -7.245567871e-07)
5(-1.36070219e-07 -3.074082082e-07 -3.583819625e-07 -3.381445459e-07 -4.112841701e-07)
5(-2.746705639e-07 -2.892561624e-07 -3.12419138e-07 -3.035120599e-07 -2.599909858e-07)
5(-3.323947915e-07 -3.136042315e-07 -3.199647278e-07 -3.072809911e-07 -2.442554209e-07)
5(-3.32242577e-07 -3.497685858e-07 -3.517026104e-07 -3.397866235e-07 -3.199448875e-07)
5(-3.115669633e-07 -3.753005199e-07 -3.830738106e-07 -3.823231456e-07 -4.166035108e-07)
5(-3.072438997e-07 -3.909420867e-07 -4.058404412e-07 -4.099723319e-07 -4.640326409e-07)
5(-3.262522387e-07 -4.034380772e-07 -4.198469577e-07 -4.251534907e-07 -4.734883884e-07)
5(-3.505054935e-07 -4.146499171e-07 -4.32107004e-07 -4.377993968e-07 -4.731741097e-07)
5(-3.689028809e-07 -4.274102085e-07 -4.469096753e-07 -4.561339601e-07 -4.882164407e-07)
5(-3.829859828e-07 -4.439217574e-07 -4.640852162e-07 -4.744949929e-07 -5.105235517e-07)
5(-3.930581185e-07 -4.605530772e-07 -4.816729608e-07 -4.927704201e-07 -5.36188313e-07)
5(-4.042947253e-07 -4.768273983e-07 -4.978676083e-07 -5.082361529e-07 -5.570280899e-07)
5(-4.176228184e-07 -4.919267316e-07 -5.131697386e-07 -5.22579798e-07 -5.727700173e-07)
5(-4.315918604e-07 -5.072091612e-07 -5.274267739e-07 -5.357161521e-07 -5.878904744e-07)
5(-4.458923068e-07 -5.21973177e-07 -5.416403988e-07 -5.492352832e-07 -6.023771594e-07)
5(-4.582827701e-07 -5.375180054e-07 -5.564770326e-07 -5.617617412e-07 -6.171843961e-07)
5(-4.717757239e-07 -5.52113854e-07 -5.707844442e-07 -5.744589308e-07 -6.302371514e-07)
5(-4.848758154e-07 -5.676241672e-07 -5.849285399e-07 -5.861313923e-07 -6.438338758e-07)
5(-4.982729311e-07 -5.818683152e-07 -5.995240527e-07 -5.982189639e-07 -6.543941096e-07)
5(-5.13179911e-07 -5.96998535e-07 -6.126530895e-07 -6.091698341e-07 -6.658699193e-07)
5(-5.269100669e-07 -6.103695952e-07 -6.239244983e-07 -6.197977239e-07 -6.780672556e-07)
5(-5.417253601e-07 -6.255902407e-07 -6.357951505e-07 -6.285352263e-07 -6.878807025e-07)
5(-5.556421078e-07 -6.398220624e-07 -6.45879186e-07 -6.367202006e-07 -6.991229215e-07)
5(-5.700165327e-07 -6.548190164e-07 -6.56746685e-07 -6.435657817e-07 -7.07143302e-07)
5(-5.840226409e-07 -6.690093416e-07 -6.686269153e-07 -6.494737669e-07 -7.099012405e-07)
5(-5.965027786e-07 -6.826408124e-07 -6.796904745e-07 -6.55532156e-07 -7.150767833e-07)
5(-6.127168091e-07 -6.97308993e-07 -6.897924657e-07 -6.582187645e-07 -7.135982003e-07)
5(-6.240404086e-07 -7.092573447e-07 -6.972146242e-07 -6.618259041e-07 -7.189793167e-07)
5(-6.358248204e-07 -7.223462228e-07 -7.055157872e-07 -6.616349497e-07 -7.167352637e-07)
5(-6.501290207e-07 -7.34445442e-07 -7.092552631e-07 -6.595384929e-07 -7.152694756e-07)
5(-6.611478459e-07 -7.443301375e-07 -7.128061038e-07 -6.551585434e-07 -7.084473933e-07)
5(-6.691368408e-07 -7.544410669e-07 -7.157918637e-07 -6.433944827e-07 -6.915271195e-07)
5(-6.809400461e-07 -7.630747201e-07 -7.120967773e-07 -6.256958436e-07 -6.691924906e-07)
5(-6.880233266e-07 -7.677635919e-07 -7.058889389e-07 -6.019302563e-07 -6.365569674e-07)
5(-6.978636971e-07 -7.742509266e-07 -6.94245903e-07 -5.702411307e-07 -5.998269479e-07)
5(-6.945469148e-07 -7.721766516e-07 -6.779635606e-07 -5.364321619e-07 -5.643607192e-07)
5(-6.939595431e-07 -7.678341013e-07 -6.542423752e-07 -4.962525132e-07 -5.236626891e-07)
5(-6.879722852e-07 -7.553055599e-07 -6.211634444e-07 -4.349781144e-07 -4.482724821e-07)
5(-6.742666465e-07 -7.360261958e-07 -5.794745027e-07 -3.364202756e-07 -3.094710247e-07)
5(-6.612186599e-07 -7.138278093e-07 -5.229724788e-07 -1.868683028e-07 -9.141301991e-08)
5(-6.375616441e-07 -6.788902193e-07 -4.417825281e-07 -3.558875819e-09 1.596140342e-07)
5(-6.066772484e-07 -6.451781198e-07 -3.277728117e-07 2.014840289e-07 3.778524119e-07)
5(-5.677894821e-07 -6.101905015e-07 -1.756625231e-07 4.072141671e-07 5.14649669e-07)
5(-5.189282296e-07 -5.621351606e-07 -3.509699026e-09 5.880995675e-07 5.773303006e-07)
5(-4.899045278e-07 -4.94455507e-07 1.821849793e-07 7.296082466e-07 5.941038518e-07)
5(-4.81903875e-07 -3.967016002e-07 3.536656852e-07 8.08034922e-07 5.960929714e-07)
5(-4.652939336e-07 -2.807240808e-07 4.860025832e-07 8.212043126e-07 5.744917909e-07)
5(-4.048666221e-07 -1.663193513e-07 5.548456339e-07 7.722303946e-07 5.079628216e-07)
5(-3.034341577e-07 -7.534480241e-08 5.525320113e-07 6.671485109e-07 3.823240344e-07)
5(-1.77778778e-07 -2.672836802e-08 4.691028444e-07 5.062029421e-07 1.966944765e-07)
5(-9.579478222e-08 -3.801320565e-08 3.232784783e-07 2.989227018e-07 -3.3313943e-08)
5(-1.095570482e-07 -1.197156325e-07 1.268717406e-07 4.15065043e-08 -3.067996177e-07)
5(-2.329338346e-07 -2.72763318e-07 -1.109673879e-07 -2.678491863e-07 -6.334400772e-07)
5(-4.293160818e-07 -4.879797059e-07 -4.050604791e-07 -6.362770952e-07 -1.016705796e-06)
5(-6.91448622e-07 -7.579761614e-07 -7.504927262e-07 -1.067656609e-06 -1.466764147e-06)
5(-9.995043797e-07 -1.074651044e-06 -1.155166861e-06 -1.568852381e-06 -1.985343653e-06)
5(-1.329444038e-06 -1.425906172e-06 -1.626715593e-06 -2.150922744e-06 -2.579669121e-06)
5(-1.675464949e-06 -1.81175918e-06 -2.164350081e-06 -2.818287246e-06 -3.265963038e-06)
5(-2.080714181e-06 -2.118581383e-06 -2.800103749e-06 -3.774182889e-06 -4.106015947e-06)
)


60
(
5(1.368343148e-08 -4.762100863e-07 -5.900681073e-07 -5.06439056e-07 -7.78645743e-07)
5(-2.222893142e-07 -3.979978307e-07 -4.63435296e-07 -4.405324243e-07 -4.991725371e-07)
5(-3.653871928e-07 -3.876499418e-07 -4.20010651e-07 -4.14637651e-07 -3.705355844e-07)
5(-4.27577914e-07 -4.212566328e-07 -4.346846043e-07 -4.247125702e-07 -3.673900355e-07)
5(-4.324375012e-07 -4.624329446e-07 -4.72104932e-07 -4.620856648e-07 -4.470387835e-07)
5(-4.174467461e-07 -4.914915778e-07 -5.085070961e-07 -5.098668447e-07 -5.459034882e-07)
5(-4.191020196e-07 -5.123401945e-07 -5.354878358e-07 -5.425998747e-07 -5.997092712e-07)
5(-4.424720654e-07 -5.301121048e-07 -5.547341299e-07 -5.636093253e-07 -6.166407017e-07)
5(-4.704878932e-07 -5.462147188e-07 -5.723981789e-07 -5.824794541e-07 -6.240428617e-07)
5(-4.937445631e-07 -5.639707609e-07 -5.919355975e-07 -6.053559632e-07 -6.438715993e-07)
5(-5.110553836e-07 -5.841966491e-07 -6.13563509e-07 -6.290311068e-07 -6.722353209e-07)
5(-5.264072059e-07 -6.052863929e-07 -6.349611884e-07 -6.520075878e-07 -7.033912172e-07)
5(-5.413943644e-07 -6.257772333e-07 -6.559631507e-07 -6.723292348e-07 -7.290850947e-07)
5(-5.58551234e-07 -6.451630006e-07 -6.756866345e-07 -6.907459041e-07 -7.489393939e-07)
5(-5.760512093e-07 -6.642347946e-07 -6.942749063e-07 -7.088943179e-07 -7.695609263e-07)
5(-5.937483598e-07 -6.836278388e-07 -7.124076418e-07 -7.259744524e-07 -7.893196247e-07)
5(-6.110791707e-07 -7.030390699e-07 -7.311244277e-07 -7.430464708e-07 -8.082203454e-07)
5(-6.274503881e-07 -7.216732323e-07 -7.486699523e-07 -7.600616141e-07 -8.287858407e-07)
5(-6.449371794e-07 -7.409247213e-07 -7.673766815e-07 -7.755638004e-07 -8.439731228e-07)
5(-6.623256861e-07 -7.590462985e-07 -7.849113371e-07 -7.918993143e-07 -8.609965484e-07)
5(-6.795741202e-07 -7.782128928e-07 -8.032211695e-07 -8.059060361e-07 -8.74012536e-07)
5(-6.984525349e-07 -7.961023021e-07 -8.176337373e-07 -8.204276133e-07 -8.916172083e-07)
5(-7.158279528e-07 -8.147726745e-07 -8.334952935e-07 -8.333752659e-07 -9.062606045e-07)
5(-7.338487799e-07 -8.325785394e-07 -8.483627485e-07 -8.465489953e-07 -9.209141829e-07)
5(-7.506983828e-07 -8.519468836e-07 -8.63529155e-07 -8.576044328e-07 -9.351541854e-07)
5(-7.703547519e-07 -8.708352428e-07 -8.782918081e-07 -8.677250288e-07 -9.443502536e-07)
5(-7.875358428e-07 -8.896456879e-07 -8.945356318e-07 -8.766081081e-07 -9.504443794e-07)
5(-8.06168292e-07 -9.083087216e-07 -9.093631657e-07 -8.856149598e-07 -9.578468336e-07)
5(-8.239579822e-07 -9.263727836e-07 -9.216923921e-07 -8.914919483e-07 -9.636615674e-07)
5(-8.418167805e-07 -9.445751569e-07 -9.347750745e-07 -8.976770789e-07 -9.687716457e-07)
5(-8.603910415e-07 -9.630302928e-07 -9.456705393e-07 -9.000826053e-07 -9.704660274e-07)
5(-8.787403813e-07 -9.790510061e-07 -9.555659317e-07 -9.027812572e-07 -9.700124144e-07)
5(-8.965020362e-07 -9.981973647e-07 -9.646393248e-07 -8.968945111e-07 -9.609666529e-07)
5(-9.169232766e-07 -1.015609178e-06 -9.699955841e-07 -8.875054423e-07 -9.460738549e-07)
5(-9.344675236e-07 -1.031834901e-06 -9.732545995e-07 -8.703770002e-07 -9.203943681e-07)
5(-9.541513261e-07 -1.047436414e-06 -9.729826416e-07 -8.489031428e-07 -8.896077831e-07)
5(-9.702753719e-07 -1.060742533e-06 -9.693939514e-07 -8.250024718e-07 -8.596775884e-07)
5(-9.862605232e-07 -1.07364526e-06 -9.595489986e-07 -7.920530281e-07 -8.235163356e-07)
5(-1.002706177e-06 -1.083676506e-06 -9.432434244e-07 -7.407602572e-07 -7.5715794e-07)
5(-1.017002844e-06 -1.090414409e-06 -9.188371277e-07 -6.503024806e-07 -6.238374648e-07)
5(-1.032720716e-06 -1.091043293e-06 -8.80670436e-07 -5.154682621e-07 -4.150448279e-07)
5(-1.050042654e-06 -1.091395576e-06 -8.207893962e-07 -3.440729256e-07 -1.74484968e-07)
5(-1.058951636e-06 -1.089547931e-06 -7.298337506e-07 -1.483579585e-07 4.775995455e-08)
5(-1.062391366e-06 -1.088394564e-06 -6.018257577e-07 5.071720188e-08 1.945278472e-07)
5(-1.062816231e-06 -1.075531544e-06 -4.484010098e-07 2.346806743e-07 2.802549623e-07)
5(-1.067798841e-06 -1.036990922e-06 -2.851734474e-07 3.813866978e-07 3.284980194e-07)
5(-1.081795857e-06 -9.722744202e-07 -1.326012056e-07 4.808372061e-07 3.662503141e-07)
5(-1.082887037e-06 -8.763075965e-07 -7.188167448e-09 5.191058221e-07 3.866694571e-07)
5(-1.053247286e-06 -7.840026953e-07 6.816590647e-08 5.031012107e-07 3.60100528e-07)
5(-9.456010445e-07 -6.956593187e-07 7.626866146e-08 4.339661229e-07 2.738388163e-07)
5(-8.203859329e-07 -6.38769542e-07 1.986728797e-08 3.053971095e-07 1.159194175e-07)
5(-7.277922884e-07 -6.288350722e-07 -9.569673664e-08 1.219444522e-07 -9.504058669e-08)
5(-7.110199963e-07 -6.746519061e-07 -2.521372123e-07 -1.160477106e-07 -3.686473552e-07)
5(-7.782208821e-07 -7.798221394e-07 -4.571541793e-07 -4.113725934e-07 -6.937510613e-07)
5(-9.111487276e-07 -9.401829442e-07 -7.15732447e-07 -7.72349792e-07 -1.087444434e-06)
5(-1.104888274e-06 -1.1514325e-06 -1.028336013e-06 -1.203806481e-06 -1.554781356e-06)
5(-1.337524114e-06 -1.408243254e-06 -1.404360426e-06 -1.700478155e-06 -2.078082091e-06)
5(-1.601431754e-06 -1.703562516e-06 -1.838731758e-06 -2.276164827e-06 -2.688946638e-06)
5(-1.895553055e-06 -2.04167614e-06 -2.342394412e-06 -2.940998063e-06 -3.394867981e-06)
5(-2.132252855e-06 -2.355393385e-06 -2.999562297e-06 -3.820020701e-06 -4.22725842e-06)
)


60
(
5(-6.397389035e-08 -5.612155582e-07 -6.968427057e-07 -5.922286472e-07 -8.304459658e-07)
5(-3.039429392e-07 -4.832985748e-07 -5.625244261e-07 -5.35560719e-07 -5.802517934e-07)
5(-4.521861369e-07 -4.794161605e-07 -5.20383012e-07 -5.166228097e-07 -4.700936235e-07)
5(-5.185855949e-07 -5.213477686e-07 -5.41389979e-07 -5.318668331e-07 -4.771924125e-07)
5(-5.275935409e-07 -5.675888843e-07 -5.841112832e-07 -5.738208733e-07 -5.617969807e-07)
5(-5.181895586e-07 -5.997473058e-07 -6.241643599e-07 -6.265709158e-07 -6.641131332e-07)
5(-5.241454029e-07 -6.251582838e-07 -6.557281325e-07 -6.640025065e-07 -7.230648034e-07)
5(-5.517607063e-07 -6.476390657e-07 -6.798727094e-07 -6.901419994e-07 -7.456012851e-07)
5(-5.838963364e-07 -6.679534568e-07 -7.012551384e-07 -7.141604652e-07 -7.601791848e-07)
5(-6.094949607e-07 -6.896825835e-07 -7.256385682e-07 -7.416080664e-07 -7.851366944e-07)
5(-6.317656755e-07 -7.139500373e-07 -7.505559634e-07 -7.696913261e-07 -8.188626074e-07)
5(-6.500104535e-07 -7.387606251e-07 -7.767334289e-07 -7.967631137e-07 -8.532207711e-07)
5(-6.683535096e-07 -7.631515829e-07 -8.010534775e-07 -8.208534843e-07 -8.843486525e-07)
5(-6.8963701e-07 -7.861054564e-07 -8.24268418e-07 -8.439428011e-07 -9.095558867e-07)
5(-7.105998087e-07 -8.089945746e-07 -8.465993004e-07 -8.654218337e-07 -9.335172332e-07)
5(-7.318926417e-07 -8.310820208e-07 -8.685224022e-07 -8.872768633e-07 -9.569685141e-07)
5(-7.514946896e-07 -8.542813094e-07 -8.90711288e-07 -9.077971573e-07 -9.812503223e-07)
5(-7.717362977e-07 -8.770704565e-07 -9.113264546e-07 -9.277915523e-07 -1.006125146e-06)
5(-7.920347608e-07 -8.989599386e-07 -9.340574742e-07 -9.479803509e-07 -1.025059852e-06)
5(-8.124291132e-07 -9.211654223e-07 -9.551614229e-07 -9.671185916e-07 -1.045748694e-06)
5(-8.332449122e-07 -9.434910319e-07 -9.75855103e-07 -9.855471354e-07 -1.0656178e-06)
5(-8.546604491e-07 -9.652301714e-07 -9.954974078e-07 -1.003217138e-06 -1.084228879e-06)
5(-8.757153051e-07 -9.871706603e-07 -1.01401443e-06 -1.020435819e-06 -1.105005764e-06)
5(-8.972343961e-07 -1.009381356e-06 -1.031894072e-06 -1.03677619e-06 -1.125357982e-06)
5(-9.186225311e-07 -1.031887482e-06 -1.050609724e-06 -1.051605826e-06 -1.141691592e-06)
5(-9.38932436e-07 -1.055133069e-06 -1.071398059e-06 -1.066190924e-06 -1.155933199e-06)
5(-9.621585821e-07 -1.077859841e-06 -1.090214608e-06 -1.080506584e-06 -1.16950181e-06)
5(-9.829646903e-07 -1.100525661e-06 -1.109743604e-06 -1.0936413e-06 -1.181639375e-06)
5(-1.003512626e-06 -1.123239795e-06 -1.12883781e-06 -1.105761213e-06 -1.192971721e-06)
5(-1.02752497e-06 -1.147211657e-06 -1.146315168e-06 -1.116613118e-06 -1.203995368e-06)
5(-1.051616642e-06 -1.170672478e-06 -1.163224429e-06 -1.126140813e-06 -1.212361199e-06)
5(-1.075068426e-06 -1.194386586e-06 -1.180279787e-06 -1.133552657e-06 -1.217336733e-06)
5(-1.10189855e-06 -1.219915976e-06 -1.196686894e-06 -1.137530217e-06 -1.216929645e-06)
5(-1.127841768e-06 -1.246976609e-06 -1.21245903e-06 -1.135810003e-06 -1.210413693e-06)
5(-1.157728912e-06 -1.273935349e-06 -1.225881846e-06 -1.129732664e-06 -1.195526477e-06)
5(-1.189208637e-06 -1.302480807e-06 -1.237262556e-06 -1.118690562e-06 -1.176389817e-06)
5(-1.218830261e-06 -1.331264039e-06 -1.247439076e-06 -1.106266957e-06 -1.159368763e-06)
5(-1.253952979e-06 -1.362071505e-06 -1.255156758e-06 -1.088377553e-06 -1.134709476e-06)
5(-1.294146612e-06 -1.393304968e-06 -1.256762829e-06 -1.053223808e-06 -1.083263043e-06)
5(-1.336073883e-06 -1.423995515e-06 -1.254668379e-06 -9.848278279e-07 -9.694283591e-07)
5(-1.383470065e-06 -1.455762007e-06 -1.243115686e-06 -8.720372554e-07 -7.818619797e-07)
5(-1.430922073e-06 -1.489126673e-06 -1.213874291e-06 -7.228254463e-07 -5.601075076e-07)
5(-1.480487495e-06 -1.524127899e-06 -1.156868956e-06 -5.548906966e-07 -3.581649316e-07)
5(-1.528994474e-06 -1.561924218e-06 -1.06466584e-06 -3.793441193e-07 -2.191911836e-07)
5(-1.572528758e-06 -1.58760523e-06 -9.492627436e-07 -2.161712013e-07 -1.325429985e-07)
5(-1.610484174e-06 -1.587255597e-06 -8.210586213e-07 -7.674188425e-08 -7.208683175e-08)
5(-1.651121443e-06 -1.551031363e-06 -6.959535069e-07 1.688472307e-08 -2.112985334e-08)
5(-1.664403052e-06 -1.480169193e-06 -5.903226643e-07 6.059935666e-08 1.156149935e-08)
5(-1.633909368e-06 -1.3954879e-06 -5.275044683e-07 5.460971949e-08 1.40254618e-08)
5(-1.53416698e-06 -1.314017513e-06 -5.152122018e-07 5.356716359e-09 -4.664984436e-08)
5(-1.403368042e-06 -1.246677828e-06 -5.551779306e-07 -9.667952976e-08 -1.689021046e-07)
5(-1.291042887e-06 -1.211535297e-06 -6.403677104e-07 -2.518712163e-07 -3.534785019e-07)
5(-1.247419185e-06 -1.226367655e-06 -7.61968177e-07 -4.590846433e-07 -6.002312141e-07)
5(-1.279035409e-06 -1.293560295e-06 -9.275611922e-07 -7.242054388e-07 -9.036427507e-07)
5(-1.371958597e-06 -1.40766882e-06 -1.138417658e-06 -1.053280333e-06 -1.276591098e-06)
5(-1.516057375e-06 -1.566529176e-06 -1.400151834e-06 -1.453127683e-06 -1.727665697e-06)
5(-1.698883547e-06 -1.768690996e-06 -1.720146728e-06 -1.919962293e-06 -2.244112661e-06)
5(-1.9125819e-06 -2.010320787e-06 -2.103196408e-06 -2.463958894e-06 -2.837157842e-06)
5(-2.152816971e-06 -2.299756429e-06 -2.563451753e-06 -3.09199042e-06 -3.513431695e-06)
5(-2.401013442e-06 -2.489887477e-06 -3.072997063e-06 -3.93050841e-06 -4.289831245e-06)
)


60
(
5(-1.380208973e-07 -6.433809803e-07 -8.003463199e-07 -6.74166965e-07 -8.802102996e-07)
5(-3.824551978e-07 -5.648239547e-07 -6.574823354e-07 -6.253838646e-07 -6.559675758e-07)
5(-5.357049678e-07 -5.666461507e-07 -6.15809595e-07 -6.122673506e-07 -5.624487093e-07)
5(-6.067395803e-07 -6.165456957e-07 -6.423144955e-07 -6.318558397e-07 -5.785959303e-07)
5(-6.195296651e-07 -6.674312955e-07 -6.899244076e-07 -6.780845886e-07 -6.677163628e-07)
5(-6.144714556e-07 -7.025553015e-07 -7.335509208e-07 -7.354303404e-07 -7.738151839e-07)
5(-6.244625174e-07 -7.317281337e-07 -7.692497705e-07 -7.775324924e-07 -8.373162321e-07)
5(-6.563616861e-07 -7.588680009e-07 -7.971277898e-07 -8.077980683e-07 -8.656536847e-07)
5(-6.911964243e-07 -7.826816293e-07 -8.229125807e-07 -8.366703238e-07 -8.85382177e-07)
5(-7.212486026e-07 -8.084519888e-07 -8.502755986e-07 -8.680405677e-07 -9.158368625e-07)
5(-7.455210135e-07 -8.357647545e-07 -8.795576028e-07 -9.003626861e-07 -9.534014768e-07)
5(-7.679477122e-07 -8.644115809e-07 -9.085591996e-07 -9.309504804e-07 -9.926516298e-07)
5(-7.895158925e-07 -8.917394522e-07 -9.364616106e-07 -9.589730497e-07 -1.027063216e-06)
5(-8.129772197e-07 -9.181962561e-07 -9.631764604e-07 -9.855509111e-07 -1.05716146e-06)
5(-8.373761604e-07 -9.440538606e-07 -9.886718146e-07 -1.010949982e-06 -1.085071294e-06)
5(-8.610855742e-07 -9.699817173e-07 -1.014187079e-06 -1.035957659e-06 -1.112981073e-06)
5(-8.847392722e-07 -9.959727232e-07 -1.038510655e-06 -1.060027237e-06 -1.141561093e-06)
5(-9.069503456e-07 -1.021297092e-06 -1.063980261e-06 -1.084068976e-06 -1.167833868e-06)
5(-9.30119645e-07 -1.046992675e-06 -1.088501259e-06 -1.107128764e-06 -1.193806816e-06)
5(-9.532018825e-07 -1.071967393e-06 -1.11322687e-06 -1.129753108e-06 -1.217031844e-06)
5(-9.763751611e-07 -1.096921848e-06 -1.137363264e-06 -1.151805481e-06 -1.240146601e-06)
5(-1.000709336e-06 -1.122474193e-06 -1.15965701e-06 -1.172935939e-06 -1.265158938e-06)
5(-1.024697109e-06 -1.147312361e-06 -1.181452727e-06 -1.19394407e-06 -1.289787847e-06)
5(-1.048059374e-06 -1.172730952e-06 -1.203348111e-06 -1.213821993e-06 -1.313772332e-06)
5(-1.071572935e-06 -1.198783493e-06 -1.225865126e-06 -1.232982265e-06 -1.336193147e-06)
5(-1.096483284e-06 -1.224970962e-06 -1.249205016e-06 -1.251605711e-06 -1.354625022e-06)
5(-1.12113305e-06 -1.251471658e-06 -1.273427365e-06 -1.269837977e-06 -1.371366131e-06)
5(-1.146413657e-06 -1.278520276e-06 -1.296453207e-06 -1.286933232e-06 -1.388744718e-06)
5(-1.171644186e-06 -1.305773005e-06 -1.319428188e-06 -1.304291924e-06 -1.407211373e-06)
5(-1.199601299e-06 -1.333781623e-06 -1.342399775e-06 -1.321293961e-06 -1.42363263e-06)
5(-1.226451052e-06 -1.362363696e-06 -1.365565178e-06 -1.337344872e-06 -1.440076441e-06)
5(-1.255823538e-06 -1.393712674e-06 -1.389790017e-06 -1.351143047e-06 -1.45291719e-06)
5(-1.289582919e-06 -1.425901935e-06 -1.413001473e-06 -1.363218939e-06 -1.461435902e-06)
5(-1.324126715e-06 -1.460432936e-06 -1.437370765e-06 -1.370653037e-06 -1.462263605e-06)
5(-1.36220461e-06 -1.496812318e-06 -1.461661789e-06 -1.376362132e-06 -1.45986162e-06)