/*--------------------------------*- C++ -*----------------------------------*\
| =========                 |                                                 |
| \\      /  F ield         | OpenFOAM: The Open Source CFD Toolbox           |
|  \\    /   O peration     | Version:  2.3.1                                 |
|   \\  /    A nd           | Web:      www.OpenFOAM.org                      |
|    \\/     M anipulation  |                                                 |
\*---------------------------------------------------------------------------*/
FoamFile
{
    version     2.0;
    format      ascii;
    class       dictionary;
    location    "constant";
    object      DPSI11;
}
// * * * * * * * * * * * * * * * * * * * * * * * * * * * * * * * * * * * * * //

DPSI11_table
60
(

60
(
5(-5.414596011e-07 -8.040809464e-07 -7.461109976e-07 -5.792783171e-07 -8.914086843e-07)
5(-8.952698668e-07 -2.435441321e-07 -6.060677582e-07 -5.340788268e-07 -1.22192567e-06)
5(-8.701930593e-07 2.529799737e-07 -1.666301119e-07 -4.369895828e-07 -8.8372681e-08)
5(-7.340390302e-08 1.121188762e-08 3.819909949e-08 -8.388859322e-09 5.734187452e-07)
5(6.824068159e-07 -1.218420447e-07 -3.994562524e-07 2.111660756e-07 -4.660390857e-07)
5(6.354393204e-07 -1.121045985e-07 -3.252147662e-07 -1.538904672e-07 3.764339917e-08)
5(-9.665066059e-08 -4.606867051e-08 2.264823316e-07 -7.792813053e-08 -1.427512209e-07)
5(-6.7464144e-08 2.749149936e-08 1.274447623e-07 1.021968994e-07 -2.454188573e-07)
5(1.726439284e-07 6.36657015e-08 4.874989628e-08 -4.417276196e-09 2.373574183e-07)
5(8.985302896e-09 3.695539039e-08 1.068276464e-07 -2.353137023e-08 5.064367578e-08)
5(6.380479635e-09 -6.338042405e-10 -9.537026305e-08 1.483385439e-08 -5.465191837e-08)
5(-1.040095275e-07 1.204512334e-08 -1.080882436e-07 4.85574075e-08 -2.604896413e-08)
5(3.773717915e-09 3.065630092e-08 -3.87485358e-09 -1.314642177e-08 2.070088057e-09)
5(2.635473545e-08 -6.566643306e-09 -7.74166165e-09 -2.371214675e-08 -3.98160152e-08)
5(-2.749296749e-08 -1.944631414e-09 1.717931486e-09 5.3532606e-08 7.720778014e-09)
5(4.591512014e-08 2.332667288e-08 3.787477602e-08 1.915764661e-08 4.623682266e-08)
5(1.155035764e-08 3.116520735e-09 1.225818701e-08 3.788225723e-08 5.21644794e-08)
5(3.129110841e-10 1.46926635e-08 1.452593369e-08 2.97229544e-08 2.290796068e-08)
5(3.767478247e-08 5.998481629e-08 4.656094403e-08 5.816677376e-08 3.052255642e-09)
5(4.243958479e-08 3.070166287e-08 1.349353199e-08 5.413242956e-08 -3.229830181e-09)
5(1.760710809e-08 -1.256998567e-08 1.207504317e-09 -1.0743175e-07 -6.25829729e-08)
5(6.468322314e-08 3.676922015e-08 3.057213219e-08 -2.303199747e-08 6.062584257e-09)
5(4.885997383e-08 8.534092858e-08 2.155304976e-08 9.056262093e-08 6.623117236e-08)
5(3.726916077e-08 7.9540759e-08 5.363509977e-08 5.659786327e-08 2.826030701e-08)
5(6.271796468e-08 3.933138548e-08 1.003018002e-07 1.095682028e-07 3.757504273e-08)
5(6.132493731e-08 2.091208598e-08 4.226137783e-08 9.602415713e-08 1.34254263e-08)
5(5.232986724e-08 3.032861462e-08 2.676209072e-08 5.653286907e-08 1.075767061e-08)
5(8.881897191e-08 7.566761014e-08 4.757404867e-08 1.40073299e-08 1.051906932e-08)
5(1.173575161e-07 1.130915203e-07 5.347932174e-09 -5.198248089e-08 -1.445337919e-08)
5(1.137184131e-07 1.221866157e-07 7.218937624e-08 1.033940183e-08 -1.957529476e-08)
5(1.210402975e-07 8.131099208e-08 4.33187528e-08 -1.915241492e-08 -1.646456435e-07)
5(9.262253284e-08 7.530238043e-08 2.327001503e-08 -7.193649483e-08 -4.110968291e-08)
5(1.099624669e-07 1.203174112e-07 1.119323353e-07 -2.540101411e-08 -7.236436263e-08)
5(1.391114486e-07 9.48046992e-08 6.288289846e-08 -4.31574978e-08 -2.407540356e-07)
5(1.342835859e-07 1.273456064e-07 1.337808976e-07 -1.382276432e-08 -7.455852167e-08)
5(1.279519417e-07 4.398999941e-08 -6.247674419e-08 -1.22255423e-07 -8.62138631e-08)
5(1.237835417e-07 3.314011284e-08 -2.095997893e-07 -1.129418379e-07 -5.376455435e-07)
5(1.405436812e-07 1.020309032e-07 4.616285043e-08 -8.741992093e-08 -1.693037465e-07)
5(2.088547602e-07 5.068707458e-08 1.312205469e-07 -1.096084706e-07 -1.194043062e-06)
5(1.732398573e-07 -2.000899178e-08 -9.576530878e-08 -1.544304999e-07 -1.52328043e-06)
5(4.592422217e-08 -7.927427866e-08 -2.837769059e-07 -7.645673117e-07 9.625086941e-09)
5(2.625619719e-08 -1.315288936e-07 -2.754018e-07 -1.919603928e-06 1.336665909e-08)
5(6.249840302e-08 -7.615331433e-08 1.873454234e-07 -1.272096185e-06 1.011652662e-07)
5(5.350176996e-08 -7.227332759e-08 8.713277831e-08 -2.866710108e-08 4.933231845e-08)
5(-9.601430341e-08 -1.405804754e-07 -6.861331825e-07 1.875266796e-08 -4.821884527e-08)
5(-2.210168941e-07 -2.90554482e-07 -2.036615475e-06 1.29253931e-07 -1.504560534e-08)
5(-3.107953834e-07 -9.33523736e-07 -2.210536536e-06 4.502851287e-08 4.622850976e-08)
5(-2.970851252e-07 -6.831415634e-07 -6.040944288e-07 2.002604388e-08 9.322552513e-08)
5(-2.871259532e-07 -2.034628837e-06 -1.353089933e-08 5.375964318e-09 6.255888539e-08)
5(-5.904873452e-07 -2.109980981e-06 3.127933569e-08 7.532105818e-08 6.855101195e-08)
5(-2.164253719e-06 -1.249749595e-08 4.039553729e-08 1.433955916e-07 1.0916262e-07)
5(-2.478347818e-06 1.470946194e-07 5.954937838e-08 1.202250109e-07 7.910018599e-08)
5(-6.906853786e-07 1.348209794e-07 1.448079719e-07 1.215260977e-07 1.583702213e-07)
5(2.695476142e-08 1.054181761e-07 2.01632323e-07 1.953423013e-07 2.31545686e-07)
5(4.254562587e-07 1.610922158e-07 2.1227978e-07 1.98991809e-07 1.977717429e-07)
5(1.09829804e-06 2.813339783e-07 2.449399218e-07 1.783402061e-07 3.297544161e-07)
5(1.24341644e-06 5.861524123e-07 3.619687017e-07 4.15992549e-07 4.440518482e-08)
5(9.782488176e-07 1.067183242e-06 8.834307542e-07 -6.402452093e-07 2.930663828e-07)
5(1.03942243e-06 2.074506181e-06 2.455597291e-06 3.148385753e-06 2.845990865e-06)
5(1.25092823e-06 2.855093037e-06 3.647475853e-06 8.296944704e-06 4.768435368e-06)
)


60
(
5(-1.981406035e-07 2.628268132e-08 -3.494587534e-07 -2.113654332e-07 -4.975253678e-07)
5(-1.586471038e-07 2.966493596e-08 -2.75024395e-07 -1.627559092e-07 -3.970272402e-07)
5(-5.795419968e-08 3.56565818e-08 -9.302781028e-08 -4.777711037e-08 -1.552560084e-07)
5(3.21177009e-08 4.670821721e-08 5.355482788e-08 4.0204239e-08 4.914518282e-08)
5(8.916388702e-08 5.647925301e-08 1.13385128e-07 7.536715574e-08 1.450107622e-07)
5(9.053357584e-08 5.662384415e-08 8.968868513e-08 6.881027554e-08 1.184919156e-07)
5(5.536739105e-08 4.973230931e-08 4.636787761e-08 5.019564568e-08 4.929336249e-08)
5(3.383281978e-08 4.296555432e-08 2.695329942e-08 3.4702557e-08 1.454242749e-08)
5(3.980759552e-08 4.623443724e-08 3.018261776e-08 3.809141804e-08 2.063128579e-08)
5(5.021658495e-08 5.568190074e-08 4.744618664e-08 5.164312747e-08 4.609573834e-08)
5(5.91681683e-08 6.013043286e-08 6.254618135e-08 5.883641482e-08 6.576983202e-08)
5(6.731244187e-08 6.34135058e-08 6.948527432e-08 6.185942763e-08 6.703197902e-08)
5(6.649824985e-08 6.724514832e-08 6.834203411e-08 6.663405204e-08 6.251208637e-08)
5(6.841157849e-08 6.977581906e-08 6.853350088e-08 6.965986865e-08 6.336246288e-08)
5(7.469222618e-08 7.618560567e-08 7.485106103e-08 7.158010063e-08 6.655969494e-08)
5(8.094612304e-08 8.415985772e-08 8.461814138e-08 7.94356435e-08 7.258745322e-08)
5(8.709044139e-08 9.129703245e-08 9.173899992e-08 8.590782885e-08 7.853964553e-08)
5(9.643925585e-08 9.749972967e-08 9.758157869e-08 9.179991359e-08 8.338108587e-08)
5(1.04779879e-07 1.048820195e-07 1.039103801e-07 9.957273365e-08 9.01031045e-08)
5(1.135158086e-07 1.1499014e-07 1.119850176e-07 1.046678385e-07 9.333034331e-08)
5(1.227668439e-07 1.248075202e-07 1.197081616e-07 1.111699963e-07 9.506852136e-08)
5(1.323130388e-07 1.337529569e-07 1.274270609e-07 1.170137476e-07 1.018397794e-07)
5(1.465549282e-07 1.442304256e-07 1.384013078e-07 1.185204255e-07 1.050196204e-07)
5(1.5965064e-07 1.552726869e-07 1.465731469e-07 1.261866298e-07 1.074128383e-07)
5(1.726216053e-07 1.665847457e-07 1.589335003e-07 1.381666136e-07 1.116082112e-07)
5(1.884952557e-07 1.774696358e-07 1.704278358e-07 1.461837925e-07 1.131369634e-07)
5(2.022438326e-07 1.913864282e-07 1.750726604e-07 1.49826909e-07 1.115321568e-07)
5(2.179237495e-07 2.077124502e-07 1.851771445e-07 1.506152289e-07 1.137116527e-07)
5(2.365713738e-07 2.180062975e-07 1.944220008e-07 1.534226532e-07 1.11163221e-07)
5(2.545601993e-07 2.286016436e-07 2.013110225e-07 1.555762999e-07 1.052795559e-07)
5(2.716806944e-07 2.411970747e-07 2.053178965e-07 1.549322837e-07 9.911381823e-08)
5(2.890125844e-07 2.5241168e-07 2.105385239e-07 1.513592756e-07 8.456989221e-08)
5(3.06279847e-07 2.615864902e-07 2.143414172e-07 1.439076699e-07 6.623578754e-08)
5(3.213748449e-07 2.695577257e-07 2.126235779e-07 1.329950625e-07 4.442005013e-08)
5(3.378553041e-07 2.743200648e-07 2.088036416e-07 1.185492129e-07 1.951548944e-08)
5(3.477844613e-07 2.72937502e-07 1.991743026e-07 9.481626977e-08 -5.252232409e-09)
5(3.542649672e-07 2.694098342e-07 1.834518505e-07 6.791441015e-08 -3.057221348e-08)
5(3.592284324e-07 2.548276612e-07 1.592555769e-07 4.222151966e-08 -7.846645589e-08)
5(3.487720002e-07 2.369148172e-07 1.266300793e-07 4.505504334e-10 -1.642063156e-07)
5(3.292555034e-07 2.061801054e-07 7.786954773e-08 -5.595759401e-08 -2.846969146e-07)
5(2.942646993e-07 1.703298226e-07 3.213143633e-08 -1.310614146e-07 -4.063093708e-07)
5(2.536355469e-07 1.21631871e-07 -1.531963285e-08 -2.372071741e-07 -4.98131604e-07)
5(1.98691603e-07 3.355013377e-08 -8.045435536e-08 -3.646445663e-07 -5.522389414e-07)
5(1.13052923e-07 -4.200266817e-08 -1.671626056e-07 -4.909156163e-07 -5.852546722e-07)
5(6.791063952e-09 -1.175109875e-07 -2.900853736e-07 -5.908314947e-07 -6.191579554e-07)
5(-1.137792939e-07 -2.180588785e-07 -4.479276664e-07 -6.531876233e-07 -6.468193304e-07)
5(-2.442333587e-07 -3.432067664e-07 -6.139886725e-07 -6.901950875e-07 -6.598407144e-07)
5(-3.793643845e-07 -4.960820289e-07 -7.487483008e-07 -7.172638869e-07 -6.482858895e-07)
5(-5.376132566e-07 -6.745909449e-07 -8.43579056e-07 -7.328776844e-07 -6.132842177e-07)
5(-7.101053967e-07 -8.62709664e-07 -9.049159471e-07 -7.314883128e-07 -5.657676877e-07)
5(-8.945582436e-07 -1.010163996e-06 -9.440629835e-07 -7.096765124e-07 -5.051219708e-07)
5(-1.088878096e-06 -1.096980135e-06 -9.563071479e-07 -6.745521176e-07 -4.459658478e-07)
5(-1.269590046e-06 -1.153016109e-06 -9.538423802e-07 -6.380084924e-07 -3.77853204e-07)
5(-1.433484147e-06 -1.18387248e-06 -9.481972841e-07 -5.914124386e-07 -3.062690007e-07)
5(-1.551810436e-06 -1.207789609e-06 -9.440299953e-07 -5.493255797e-07 -2.490281883e-07)
5(-1.642897678e-06 -1.257533344e-06 -9.530895342e-07 -5.346515134e-07 -2.087000824e-07)
5(-1.740819957e-06 -1.327374168e-06 -1.000747726e-06 -5.589817008e-07 -2.104496501e-07)
5(-1.915401304e-06 -1.486799162e-06 -1.14773286e-06 -6.734144221e-07 -2.988344071e-07)
5(-3.392912486e-06 -2.768630492e-06 -3.364141525e-06 -2.12814107e-06 -1.209881258e-06)
5(-4.758923232e-06 -3.943639177e-06 -5.483406518e-06 -3.504590339e-06 -2.054169587e-06)
)


60
(
5(-7.690430421e-08 1.05140895e-07 -2.187339441e-07 -1.172635451e-07 -3.523036114e-07)
5(-5.349826423e-08 9.569709824e-08 -1.605588657e-07 -8.132250276e-08 -2.679619752e-07)
5(2.139731304e-09 7.244941385e-08 -2.64985107e-08 3.994767143e-10 -7.878855097e-08)
5(5.834134592e-08 6.79696232e-08 7.484106248e-08 6.201725975e-08 6.846582064e-08)
5(9.681282256e-08 7.335311877e-08 1.133639745e-07 8.726204719e-08 1.36763273e-07)
5(9.432942654e-08 7.166264133e-08 9.676219166e-08 8.096905323e-08 1.168956164e-07)
5(7.056851019e-08 6.633324967e-08 6.577306546e-08 6.468242667e-08 6.668672686e-08)
5(5.824746087e-08 6.598444401e-08 5.123119483e-08 5.683492371e-08 4.133161198e-08)
5(6.180902842e-08 6.924589659e-08 5.536166431e-08 6.161927479e-08 5.055511367e-08)
5(7.031409875e-08 7.493689508e-08 7.031770005e-08 7.209812741e-08 7.089094422e-08)
5(7.882554813e-08 8.025568059e-08 8.337632544e-08 8.050588032e-08 8.197961358e-08)
5(8.63990501e-08 8.609702583e-08 8.960772676e-08 8.552139867e-08 8.642628142e-08)
5(9.029107842e-08 9.230637258e-08 9.279213857e-08 8.974048195e-08 8.66751047e-08)
5(9.415137415e-08 9.745907665e-08 9.70785055e-08 9.38222865e-08 8.861012174e-08)
5(9.995060373e-08 1.040551785e-07 1.033646821e-07 9.976897485e-08 9.358569525e-08)
5(1.089285477e-07 1.113776552e-07 1.118309148e-07 1.081882767e-07 1.011080094e-07)
5(1.190283162e-07 1.201179733e-07 1.206468325e-07 1.165578851e-07 1.074724641e-07)
5(1.274597025e-07 1.303933545e-07 1.299054162e-07 1.239251431e-07 1.13804441e-07)
5(1.379870015e-07 1.401547751e-07 1.392581958e-07 1.324841536e-07 1.216541239e-07)
5(1.47439939e-07 1.511420158e-07 1.480526848e-07 1.409250964e-07 1.291536063e-07)
5(1.610642777e-07 1.634338782e-07 1.579805467e-07 1.476148239e-07 1.348487929e-07)
5(1.750340357e-07 1.753536753e-07 1.696562491e-07 1.570024283e-07 1.403395596e-07)
5(1.878397213e-07 1.877017538e-07 1.827465083e-07 1.661545166e-07 1.479240035e-07)
5(2.028321567e-07 2.008468134e-07 1.94401977e-07 1.744581564e-07 1.544951319e-07)
5(2.195369735e-07 2.151256724e-07 2.062998969e-07 1.864397449e-07 1.59312535e-07)
5(2.3801062e-07 2.291376344e-07 2.175201103e-07 1.962710273e-07 1.659594049e-07)
5(2.531901551e-07 2.462077371e-07 2.314065489e-07 2.058495236e-07 1.707075541e-07)
5(2.742470572e-07 2.623683633e-07 2.439669128e-07 2.122000975e-07 1.742550931e-07)
5(2.954433619e-07 2.759898753e-07 2.559648547e-07 2.183887128e-07 1.764186809e-07)
5(3.142974875e-07 2.949815456e-07 2.691032121e-07 2.25309119e-07 1.761037179e-07)
5(3.353632274e-07 3.10422263e-07 2.771757174e-07 2.274352548e-07 1.742140155e-07)
5(3.553680392e-07 3.20750537e-07 2.865913101e-07 2.306202411e-07 1.651728424e-07)
5(3.751650327e-07 3.370399243e-07 2.955995966e-07 2.300618041e-07 1.532778482e-07)
5(3.919619797e-07 3.494981893e-07 2.960179603e-07 2.235947679e-07 1.369771014e-07)
5(4.003166626e-07 3.546063417e-07 2.974332354e-07 2.131614236e-07 1.178280599e-07)
5(4.139178566e-07 3.566733286e-07 2.949321222e-07 1.980209752e-07 9.770519063e-08)
5(4.263893182e-07 3.537430124e-07 2.809859337e-07 1.776920085e-07 7.232198978e-08)
5(4.219800114e-07 3.457091119e-07 2.598588388e-07 1.499023013e-07 2.546260792e-08)
5(4.080352523e-07 3.233748243e-07 2.28519918e-07 1.099248311e-07 -5.528247087e-08)
5(3.775190442e-07 2.921146859e-07 1.920174754e-07 5.616932202e-08 -1.625910892e-07)
5(3.425765922e-07 2.544189273e-07 1.436040519e-07 -1.557341468e-08 -2.759078745e-07)
5(2.909396397e-07 1.959023002e-07 8.185035159e-08 -1.167381743e-07 -3.739566192e-07)
5(2.121446728e-07 1.175992466e-07 9.997095325e-09 -2.434005363e-07 -4.531884854e-07)
5(1.190250951e-07 2.096026522e-08 -8.861688732e-08 -3.719454485e-07 -5.180435114e-07)
5(6.351269082e-09 -8.061134598e-08 -2.144842947e-07 -4.890066815e-07 -5.831486066e-07)
5(-1.263121552e-07 -1.866186487e-07 -3.704601081e-07 -5.873319627e-07 -6.50341072e-07)
5(-2.737651954e-07 -3.255790295e-07 -5.455083336e-07 -6.693940769e-07 -7.064662921e-07)
5(-4.296687055e-07 -5.015075454e-07 -7.076544316e-07 -7.476469122e-07 -7.450782339e-07)
5(-5.927085175e-07 -6.848187871e-07 -8.422658947e-07 -8.190950445e-07 -7.608919573e-07)
5(-7.661673704e-07 -8.697941945e-07 -9.549833135e-07 -8.736409213e-07 -7.561184819e-07)
5(-9.512054287e-07 -1.045467818e-06 -1.052438928e-06 -9.094526678e-07 -7.399817927e-07)
5(-1.142761639e-06 -1.185860874e-06 -1.131719533e-06 -9.289404781e-07 -7.159711058e-07)
5(-1.330548009e-06 -1.292888767e-06 -1.195328261e-06 -9.359192929e-07 -6.83611211e-07)
5(-1.502173823e-06 -1.390899341e-06 -1.246322268e-06 -9.301187985e-07 -6.40173258e-07)
5(-1.66104451e-06 -1.488631241e-06 -1.29142105e-06 -9.255928379e-07 -5.997085852e-07)
5(-1.819728247e-06 -1.58264567e-06 -1.346953558e-06 -9.367754061e-07 -5.808642269e-07)
5(-2.004704236e-06 -1.7157627e-06 -1.441364388e-06 -9.847995196e-07 -6.020061961e-07)
5(-2.364034246e-06 -1.993510233e-06 -1.659282633e-06 -1.143542845e-06 -7.235128337e-07)
5(-4.320662287e-06 -3.788134176e-06 -4.289235642e-06 -3.229014831e-06 -2.123245906e-06)
5(-6.026992929e-06 -5.395880976e-06 -6.761948964e-06 -5.200536327e-06 -3.435974724e-06)
)


60
(
5(3.011173852e-09 1.589949433e-07 -1.3704802e-07 -6.002457712e-08 -2.609417935e-07)
5(1.313668633e-08 1.418022296e-07 -8.946617941e-08 -3.115016241e-08 -1.89201804e-07)
5(3.95889295e-08 9.977179487e-08 1.575578847e-08 3.155299981e-08 -3.195018485e-08)
5(7.650894131e-08 8.463465885e-08 9.179147609e-08 7.869778843e-08 8.485430588e-08)
5(1.056884942e-07 8.67426971e-08 1.190505266e-07 9.854951902e-08 1.381688353e-07)
5(1.040095033e-07 8.635324927e-08 1.061879593e-07 9.281020526e-08 1.228782791e-07)
5(8.495647498e-08 8.2413455e-08 8.185281093e-08 7.894922641e-08 8.18370009e-08)
5(7.449718111e-08 8.150711871e-08 7.00887398e-08 7.411673618e-08 6.20385542e-08)
5(7.787076297e-08 8.572220318e-08 7.463235706e-08 7.966611404e-08 6.94045662e-08)
5(8.798999999e-08 9.199882072e-08 8.760671899e-08 8.891113057e-08 8.651746309e-08)
5(9.634405197e-08 9.811777308e-08 9.942988889e-08 9.672938324e-08 9.837904299e-08)
5(1.021332902e-07 1.042316365e-07 1.06840399e-07 1.033468283e-07 1.041607866e-07)
5(1.079265027e-07 1.10141008e-07 1.117674307e-07 1.093372488e-07 1.046984506e-07)
5(1.147342046e-07 1.169015383e-07 1.17570868e-07 1.143941562e-07 1.088113928e-07)
5(1.22062058e-07 1.250515882e-07 1.257862766e-07 1.208507105e-07 1.159748182e-07)
5(1.300311009e-07 1.346050784e-07 1.351007875e-07 1.304589415e-07 1.233436321e-07)
5(1.410969249e-07 1.440685093e-07 1.440491019e-07 1.391760675e-07 1.321261242e-07)
5(1.519750685e-07 1.549801771e-07 1.54457907e-07 1.485902888e-07 1.393663023e-07)
5(1.628870909e-07 1.663765394e-07 1.648171022e-07 1.587646926e-07 1.479086991e-07)
5(1.760249016e-07 1.776151404e-07 1.764840475e-07 1.692714563e-07 1.569681931e-07)
5(1.887780688e-07 1.920151935e-07 1.89056591e-07 1.788509618e-07 1.642730229e-07)
5(2.030610839e-07 2.059419027e-07 2.009461845e-07 1.889090348e-07 1.729752552e-07)
5(2.201105965e-07 2.187914774e-07 2.133073998e-07 2.011915884e-07 1.824724393e-07)
5(2.3742932e-07 2.337813343e-07 2.28736859e-07 2.11935348e-07 1.93677083e-07)
5(2.538758633e-07 2.515217734e-07 2.453294076e-07 2.244227179e-07 2.023994281e-07)
5(2.723893537e-07 2.689133112e-07 2.591881766e-07 2.379730902e-07 2.082840822e-07)
5(2.917603423e-07 2.852285789e-07 2.737420831e-07 2.500901692e-07 2.185279656e-07)
5(3.127151242e-07 3.034835398e-07 2.88721756e-07 2.593970291e-07 2.239640698e-07)
5(3.346572868e-07 3.214199724e-07 3.040633419e-07 2.704658822e-07 2.310710971e-07)
5(3.550628338e-07 3.390327436e-07 3.182725764e-07 2.806021943e-07 2.36448906e-07)
5(3.760132617e-07 3.562137721e-07 3.288098682e-07 2.872344401e-07 2.372189053e-07)
5(3.970204306e-07 3.722289948e-07 3.432781419e-07 2.936541753e-07 2.365212674e-07)
5(4.150444439e-07 3.872473352e-07 3.55663524e-07 2.970134189e-07 2.298779355e-07)
5(4.317254085e-07 3.99108772e-07 3.595088867e-07 2.964563992e-07 2.174165916e-07)
5(4.453885736e-07 4.075485448e-07 3.619572579e-07 2.925613473e-07 2.040311107e-07)
5(4.52657817e-07 4.103517072e-07 3.57847388e-07 2.826168995e-07 1.904090964e-07)
5(4.546878439e-07 4.066656194e-07 3.506415165e-07 2.64472401e-07 1.641420366e-07)
5(4.467567156e-07 3.961369135e-07 3.354705716e-07 2.384887404e-07 1.247701563e-07)
5(4.270499354e-07 3.742050067e-07 3.067153208e-07 2.027939421e-07 5.286211158e-08)
5(3.963032635e-07 3.42266863e-07 2.672137234e-07 1.543617498e-07 -4.609361939e-08)
5(3.457975004e-07 2.963813845e-07 2.148895639e-07 8.406492744e-08 -1.489976998e-07)
5(2.785248684e-07 2.314826766e-07 1.50489446e-07 -1.294037846e-08 -2.509218511e-07)
5(1.949651385e-07 1.484532126e-07 7.32784285e-08 -1.33174714e-07 -3.393313589e-07)
5(9.101810179e-08 4.97302245e-08 -2.571652914e-08 -2.62772357e-07 -4.201284281e-07)
5(-3.149014943e-08 -6.438642701e-08 -1.603921965e-07 -3.880499457e-07 -5.076859544e-07)
5(-1.755641927e-07 -1.939291484e-07 -3.191773227e-07 -5.033006635e-07 -6.012213718e-07)
5(-3.246572894e-07 -3.376764608e-07 -4.912208316e-07 -6.10520344e-07 -6.948055993e-07)
5(-4.884657434e-07 -5.018272422e-07 -6.593480128e-07 -7.19171973e-07 -7.711998285e-07)
5(-6.454376146e-07 -6.856976703e-07 -8.092127211e-07 -8.278519274e-07 -8.303057702e-07)
5(-8.043480903e-07 -8.74533762e-07 -9.534185459e-07 -9.306447178e-07 -8.74158503e-07)
5(-9.904214588e-07 -1.050956503e-06 -1.090289382e-06 -1.015469114e-06 -8.997121877e-07)
5(-1.166786267e-06 -1.20450256e-06 -1.213409477e-06 -1.08509549e-06 -9.145779209e-07)
5(-1.341413924e-06 -1.347124084e-06 -1.32463022e-06 -1.141817091e-06 -9.19464884e-07)
5(-1.521407362e-06 -1.491698038e-06 -1.42765674e-06 -1.18373201e-06 -9.091934977e-07)
5(-1.705600203e-06 -1.631175887e-06 -1.521592391e-06 -1.220133092e-06 -8.932138447e-07)
5(-1.903266685e-06 -1.780215527e-06 -1.616643711e-06 -1.258477272e-06 -8.994729498e-07)
5(-2.160004387e-06 -1.979190172e-06 -1.757773073e-06 -1.346261221e-06 -9.50111738e-07)
5(-2.624168214e-06 -2.351503927e-06 -2.067527328e-06 -1.566372871e-06 -1.115412897e-06)
5(-4.688817743e-06 -4.86888509e-06 -4.831592272e-06 -3.676801941e-06 -3.084023079e-06)
5(-6.443768404e-06 -7.124149047e-06 -7.366602732e-06 -5.634716508e-06 -4.929974359e-06)
)


60
(
5(6.462034555e-08 2.039245432e-07 -7.587454493e-08 -1.748982725e-08 -1.932194113e-07)
5(6.470482194e-08 1.805899657e-07 -3.623725082e-08 6.778461137e-09 -1.310150841e-07)
5(6.839440149e-08 1.228144619e-07 4.767927887e-08 5.611279602e-08 2.119126508e-09)
5(9.198601786e-08 9.884856289e-08 1.073271798e-07 9.311981237e-08 9.97587382e-08)
5(1.161654255e-07 9.955111275e-08 1.275231553e-07 1.088948839e-07 1.442309594e-07)
5(1.142156109e-07 9.924051338e-08 1.1587349e-07 1.038789789e-07 1.303629039e-07)
5(9.719306976e-08 9.55201239e-08 9.541336112e-08 9.268441628e-08 9.494042517e-08)
5(8.921332743e-08 9.588908032e-08 8.555855117e-08 8.860394863e-08 7.844761908e-08)
5(9.302906397e-08 9.941424479e-08 9.023284084e-08 9.366544148e-08 8.505792192e-08)
5(1.023392135e-07 1.061379967e-07 1.027766836e-07 1.032761468e-07 1.011226515e-07)
5(1.108661931e-07 1.131552237e-07 1.144485729e-07 1.121679854e-07 1.129233434e-07)
5(1.176880397e-07 1.189664162e-07 1.226152257e-07 1.188288062e-07 1.185621536e-07)
5(1.228967418e-07 1.266170755e-07 1.280952112e-07 1.246739751e-07 1.216593127e-07)
5(1.302934579e-07 1.345240042e-07 1.343247803e-07 1.314908374e-07 1.260937958e-07)
5(1.402556551e-07 1.431839013e-07 1.42449184e-07 1.394445607e-07 1.329694738e-07)
5(1.492297514e-07 1.526700337e-07 1.531805142e-07 1.48941544e-07 1.427213631e-07)
5(1.597964567e-07 1.631426803e-07 1.653147987e-07 1.576853326e-07 1.521561134e-07)
5(1.717957828e-07 1.753530539e-07 1.752640928e-07 1.698019404e-07 1.611795682e-07)
5(1.841175888e-07 1.872660239e-07 1.866066117e-07 1.820098713e-07 1.707077094e-07)
5(1.973423489e-07 2.000565638e-07 1.99912184e-07 1.920247904e-07 1.810583985e-07)
5(2.124186422e-07 2.147159895e-07 2.128501392e-07 2.040211434e-07 1.90706278e-07)
5(2.274072844e-07 2.293041545e-07 2.260806592e-07 2.152356705e-07 2.010718254e-07)
5(2.431789584e-07 2.446429445e-07 2.41314467e-07 2.272527493e-07 2.132476134e-07)
5(2.619034881e-07 2.616611486e-07 2.578298804e-07 2.418943411e-07 2.245516284e-07)
5(2.802269387e-07 2.773285217e-07 2.738881408e-07 2.57284624e-07 2.354487393e-07)
5(2.99861039e-07 2.967689546e-07 2.898847197e-07 2.718304059e-07 2.476044741e-07)
5(3.204974245e-07 3.164811331e-07 3.065295993e-07 2.855565056e-07 2.591502307e-07)
5(3.411065502e-07 3.330072942e-07 3.236230716e-07 2.992536475e-07 2.68251664e-07)
5(3.614013039e-07 3.524174426e-07 3.403090605e-07 3.12127442e-07 2.769481415e-07)
5(3.825236749e-07 3.725354864e-07 3.556488053e-07 3.239119672e-07 2.849093768e-07)
5(4.052477635e-07 3.908237775e-07 3.703436358e-07 3.347336306e-07 2.893437993e-07)
5(4.245218814e-07 4.075179076e-07 3.846859722e-07 3.443089635e-07 2.941686885e-07)
5(4.413504788e-07 4.210041185e-07 3.973375357e-07 3.508068891e-07 2.943476143e-07)
5(4.549032775e-07 4.323615594e-07 4.054280612e-07 3.533268092e-07 2.862853215e-07)
5(4.647085431e-07 4.417256643e-07 4.096278629e-07 3.520871253e-07 2.775219578e-07)
5(4.707309564e-07 4.42973776e-07 4.081109796e-07 3.443456101e-07 2.659172455e-07)
5(4.67612397e-07 4.378473855e-07 3.988556694e-07 3.305383403e-07 2.460837642e-07)
5(4.541636494e-07 4.267915017e-07 3.820873933e-07 3.088059186e-07 2.111209302e-07)
5(4.291646731e-07 4.028767875e-07 3.543000013e-07 2.765162264e-07 1.497713437e-07)
5(3.883157168e-07 3.644167401e-07 3.146358912e-07 2.299887992e-07 5.864583962e-08)
5(3.3073262e-07 3.105955646e-07 2.623822005e-07 1.619704468e-07 -4.241118437e-08)
5(2.533021429e-07 2.396283889e-07 1.938111261e-07 7.018514925e-08 -1.343852151e-07)
5(1.564360277e-07 1.515390999e-07 1.105164732e-07 -4.488815907e-08 -2.212613592e-07)
5(4.163679178e-08 4.528897514e-08 4.97286412e-09 -1.718044991e-07 -3.122708585e-07)
5(-8.325598206e-08 -7.508828178e-08 -1.251834813e-07 -2.979698643e-07 -4.130829613e-07)
5(-2.241446433e-07 -2.089332214e-07 -2.799765395e-07 -4.204359739e-07 -5.22681298e-07)
5(-3.758986157e-07 -3.579705046e-07 -4.542889529e-07 -5.437406487e-07 -6.329071516e-07)
5(-5.326955395e-07 -5.233761839e-07 -6.242069993e-07 -6.657154625e-07 -7.38046534e-07)
5(-6.953286611e-07 -7.011733981e-07 -7.784727048e-07 -7.937873333e-07 -8.353603541e-07)
5(-8.546565769e-07 -8.769108525e-07 -9.28904562e-07 -9.262522417e-07 -9.198273021e-07)
5(-1.01754478e-06 -1.046238399e-06 -1.083579518e-06 -1.049452559e-06 -9.918047369e-07)
5(-1.185791362e-06 -1.204832278e-06 -1.23167845e-06 -1.165741898e-06 -1.052328279e-06)
5(-1.35783817e-06 -1.357298161e-06 -1.37221807e-06 -1.261590322e-06 -1.09372925e-06)
5(-1.532648403e-06 -1.517271931e-06 -1.512594047e-06 -1.344154156e-06 -1.123816319e-06)
5(-1.721198667e-06 -1.689776701e-06 -1.651265503e-06 -1.428634281e-06 -1.149965127e-06)
5(-1.942697531e-06 -1.885391342e-06 -1.796905549e-06 -1.51517218e-06 -1.18923698e-06)
5(-2.236250888e-06 -2.140604854e-06 -2.002376535e-06 -1.639875532e-06 -1.269621432e-06)
5(-2.752598512e-06 -2.606867744e-06 -2.407208488e-06 -1.917808887e-06 -1.478442595e-06)
5(-4.874681164e-06 -5.050942755e-06 -5.535734091e-06 -4.479449839e-06 -4.04106888e-06)
5(-6.650251458e-06 -7.169844617e-06 -8.362885257e-06 -6.834440153e-06 -6.439066009e-06)
)


60
(
5(1.164524921e-07 2.436174413e-07 -2.611247913e-08 1.773841641e-08 -1.387156796e-07)
5(1.082390709e-07 2.148519616e-07 7.416627068e-09 3.827243862e-08 -8.39807043e-08)
5(9.317072325e-08 1.441170148e-07 7.496947118e-08 7.716456314e-08 3.0155429e-08)
5(1.060335209e-07 1.128493497e-07 1.220551952e-07 1.065900828e-07 1.133117941e-07)
5(1.263672866e-07 1.110294164e-07 1.366848317e-07 1.190179353e-07 1.515638944e-07)
5(1.248861736e-07 1.107660986e-07 1.253548631e-07 1.14369132e-07 1.387971274e-07)
5(1.092704831e-07 1.079928621e-07 1.077723257e-07 1.04589535e-07 1.06765282e-07)
5(1.020767817e-07 1.084550966e-07 9.935999745e-08 1.014535302e-07 9.220420976e-08)
5(1.063987555e-07 1.127223446e-07 1.040773176e-07 1.066056189e-07 9.906172343e-08)
5(1.152469725e-07 1.190219137e-07 1.160768713e-07 1.160964315e-07 1.141682689e-07)
5(1.240335301e-07 1.259768794e-07 1.275585972e-07 1.251207403e-07 1.257541422e-07)
5(1.312042498e-07 1.332662496e-07 1.361356172e-07 1.323163036e-07 1.320035368e-07)
5(1.381078237e-07 1.404696563e-07 1.424630727e-07 1.390447813e-07 1.360162751e-07)
5(1.454889093e-07 1.490603944e-07 1.497988169e-07 1.464751427e-07 1.416355236e-07)
5(1.543018512e-07 1.583456333e-07 1.588352834e-07 1.552745756e-07 1.497344877e-07)
5(1.65182952e-07 1.690271822e-07 1.697838436e-07 1.650284387e-07 1.595065316e-07)
5(1.764899864e-07 1.801070792e-07 1.810189056e-07 1.760886461e-07 1.694081385e-07)
5(1.891560539e-07 1.920150838e-07 1.931853567e-07 1.878745579e-07 1.802990375e-07)
5(2.022154112e-07 2.05309332e-07 2.057930683e-07 1.997113469e-07 1.90582263e-07)
5(2.159736086e-07 2.189037413e-07 2.186678007e-07 2.124480418e-07 2.019229439e-07)
5(2.31427757e-07 2.338893909e-07 2.334263888e-07 2.244394622e-07 2.138911953e-07)
5(2.468282974e-07 2.495708634e-07 2.479577327e-07 2.373230233e-07 2.25965052e-07)
5(2.638155036e-07 2.653919238e-07 2.634280188e-07 2.51730372e-07 2.387803015e-07)
5(2.828107658e-07 2.823964323e-07 2.809016184e-07 2.666484291e-07 2.518206283e-07)
5(3.013323929e-07 3.009369885e-07 2.976508754e-07 2.831264818e-07 2.650661918e-07)
5(3.201243991e-07 3.193840952e-07 3.146135854e-07 3.000972774e-07 2.783337613e-07)
5(3.410167706e-07 3.380800124e-07 3.330700734e-07 3.150294112e-07 2.908651768e-07)
5(3.634789417e-07 3.579224888e-07 3.514574253e-07 3.296289861e-07 3.040867369e-07)
5(3.839003113e-07 3.779960175e-07 3.682838765e-07 3.454035e-07 3.170144012e-07)
5(4.034189031e-07 3.961629049e-07 3.845580023e-07 3.591979405e-07 3.266279884e-07)
5(4.231208193e-07 4.129144879e-07 4.016983598e-07 3.716604962e-07 3.351692974e-07)
5(4.412008052e-07 4.308954017e-07 4.165102845e-07 3.833105338e-07 3.418783405e-07)
5(4.579822365e-07 4.460808597e-07 4.278147629e-07 3.921176954e-07 3.427249285e-07)
5(4.69471618e-07 4.559291338e-07 4.357192942e-07 3.97238162e-07 3.411675746e-07)
5(4.758025196e-07 4.611522743e-07 4.39939132e-07 3.964335709e-07 3.366193335e-07)
5(4.751119484e-07 4.607438735e-07 4.401028973e-07 3.903801712e-07 3.274843937e-07)
5(4.665881184e-07 4.544716581e-07 4.311288914e-07 3.79601271e-07 3.130834629e-07)
5(4.476133123e-07 4.389573588e-07 4.121132423e-07 3.599459309e-07 2.809285671e-07)
5(4.144938046e-07 4.096239613e-07 3.832411969e-07 3.264173167e-07 2.241920742e-07)
5(3.668494878e-07 3.666365129e-07 3.403662973e-07 2.803784979e-07 1.411256711e-07)
5(2.996032961e-07 3.082220906e-07 2.842026697e-07 2.171764043e-07 5.054772237e-08)
5(2.134597378e-07 2.312683629e-07 2.139797507e-07 1.27408048e-07 -3.748830477e-08)
5(1.129281905e-07 1.364027496e-07 1.269959028e-07 1.584261247e-08 -1.268210719e-07)
5(-1.357648312e-09 2.569772755e-08 1.690390906e-08 -1.053534832e-07 -2.187780099e-07)
5(-1.31151028e-07 -9.912054617e-08 -1.182193969e-07 -2.310936128e-07 -3.205100173e-07)
5(-2.75906659e-07 -2.387283877e-07 -2.740120905e-07 -3.565390762e-07 -4.366525996e-07)
5(-4.257372013e-07 -3.935803159e-07 -4.46212351e-07 -4.836779291e-07 -5.622682464e-07)