/*--------------------------------*- C++ -*----------------------------------*\
| =========                 |                                                 |
| \\      /  F ield         | OpenFOAM: The Open Source CFD Toolbox           |
|  \\    /   O peration     | Version:  2.3.1                                 |
|   \\  /    A nd           | Web:      www.OpenFOAM.org                      |
|    \\/     M anipulation  |                                                 |
\*---------------------------------------------------------------------------*/
FoamFile
{
    version     2.0;
    format      ascii;
    class       dictionary;
    location    "constant";
    object      DPSI22;
}
// * * * * * * * * * * * * * * * * * * * * * * * * * * * * * * * * * * * * * //

DPSI22_table
60
(

60
(
5(-1.567277729e-07 -2.628752998e-07 -3.528829169e-07 -5.44963472e-07 -6.823006918e-07)
5(-2.126802344e-07 -4.076147454e-07 -4.650187992e-07 -6.946821743e-07 -8.812984623e-07)
5(-3.168799606e-07 -4.183715287e-07 -5.510845993e-07 -8.411811582e-07 -1.281477262e-06)
5(-3.212605976e-07 -4.491595998e-07 -5.812385355e-07 -1.005625119e-06 -1.016376474e-06)
5(-3.765660241e-07 -5.05413268e-07 -6.646469327e-07 -1.013352558e-06 -1.30923935e-06)
5(-3.602467527e-07 -5.657972363e-07 -8.50867107e-07 -1.113402149e-06 -1.575553879e-06)
5(-3.923859405e-07 -6.222459074e-07 -9.076992674e-07 -1.266073003e-06 -1.561874715e-06)
5(-4.590955283e-07 -6.688767412e-07 -9.200264925e-07 -1.326644407e-06 -1.908402271e-06)
5(-4.372085121e-07 -7.096260902e-07 -9.999240613e-07 -1.401690642e-06 -1.920117149e-06)
5(-4.591414764e-07 -7.499469189e-07 -1.029602966e-06 -1.506241564e-06 -2.012828456e-06)
5(-4.840135811e-07 -7.997867047e-07 -1.101819203e-06 -1.595545046e-06 -2.137511365e-06)
5(-5.497838453e-07 -8.540577527e-07 -1.201067237e-06 -1.692486709e-06 -2.304193375e-06)
5(-6.222458968e-07 -9.061735031e-07 -1.284614913e-06 -1.773305511e-06 -2.417146484e-06)
5(-6.502914428e-07 -9.597435856e-07 -1.358209253e-06 -1.905299763e-06 -2.573210848e-06)
5(-7.024849645e-07 -1.025157866e-06 -1.448827424e-06 -1.996435576e-06 -2.716259563e-06)
5(-7.392669941e-07 -1.081057771e-06 -1.525822821e-06 -2.10345762e-06 -2.855244298e-06)
5(-7.868752701e-07 -1.150347701e-06 -1.616552741e-06 -2.221760825e-06 -2.989137559e-06)
5(-8.415457151e-07 -1.22421235e-06 -1.716688652e-06 -2.336456753e-06 -3.141299338e-06)
5(-9.010962905e-07 -1.302170567e-06 -1.820479927e-06 -2.473961284e-06 -3.3063873e-06)
5(-9.568172442e-07 -1.378000682e-06 -1.922783901e-06 -2.592844075e-06 -3.492457445e-06)
5(-1.025221091e-06 -1.476993883e-06 -2.055738338e-06 -2.75345678e-06 -3.687851422e-06)
5(-1.097738365e-06 -1.578764381e-06 -2.181245069e-06 -2.969721683e-06 -3.935230658e-06)
5(-1.171960777e-06 -1.685045506e-06 -2.328294032e-06 -3.115404349e-06 -4.115637054e-06)
5(-1.264720444e-06 -1.796635919e-06 -2.484869423e-06 -3.307878594e-06 -4.359738614e-06)
5(-1.361092553e-06 -1.928278705e-06 -2.650261581e-06 -3.501429539e-06 -4.596568504e-06)
5(-1.472367032e-06 -2.076055853e-06 -2.823832103e-06 -3.706983011e-06 -4.874570899e-06)
5(-1.59646655e-06 -2.248118535e-06 -3.051562448e-06 -3.948242253e-06 -5.166992117e-06)
5(-1.740701229e-06 -2.437807517e-06 -3.270212191e-06 -4.215754595e-06 -5.487295619e-06)
5(-1.891608747e-06 -2.638879687e-06 -3.538730271e-06 -4.52544061e-06 -5.826500987e-06)
5(-2.070682369e-06 -2.858592227e-06 -3.828002687e-06 -4.883225877e-06 -6.21186349e-06)
5(-2.267733504e-06 -3.106144651e-06 -4.121139969e-06 -5.207975176e-06 -6.596184249e-06)
5(-2.497426371e-06 -3.397647033e-06 -4.483997069e-06 -5.644458135e-06 -7.149375172e-06)
5(-2.760081233e-06 -3.708120503e-06 -4.847566666e-06 -6.055067099e-06 -7.458150856e-06)
5(-3.048810564e-06 -4.046251533e-06 -5.22748982e-06 -6.51325862e-06 -8.078130775e-06)
5(-3.37333716e-06 -4.438967984e-06 -5.682963453e-06 -6.983021716e-06 -8.558514371e-06)
5(-3.742803762e-06 -4.830683759e-06 -6.075492254e-06 -7.458240001e-06 -9.040434619e-06)
5(-4.152179635e-06 -5.34329807e-06 -6.727881818e-06 -8.042168526e-06 -9.501323234e-06)
5(-4.610340228e-06 -5.809006806e-06 -7.268232706e-06 -8.522876988e-06 -1.040722959e-05)
5(-5.10226086e-06 -6.352060099e-06 -7.783341286e-06 -9.095049389e-06 -1.045538556e-05)
5(-5.60650973e-06 -6.905360509e-06 -8.27593557e-06 -9.563402018e-06 -1.23984539e-05)
5(-6.192417961e-06 -7.542815456e-06 -8.966245765e-06 -1.011413817e-05 -1.257743638e-05)
5(-6.829758153e-06 -8.165232197e-06 -9.583411435e-06 -1.10283575e-05 -1.267766828e-05)
5(-7.481019237e-06 -8.845871929e-06 -1.022514984e-05 -1.246516588e-05 -1.260155363e-05)
5(-8.122888104e-06 -9.367160339e-06 -1.034140277e-05 -1.259634095e-05 -1.238399553e-05)
5(-8.749931887e-06 -9.974782384e-06 -1.091872334e-05 -1.256236646e-05 -1.220928036e-05)
5(-9.431259558e-06 -1.043831082e-05 -1.149707847e-05 -1.238786476e-05 -1.190072323e-05)
5(-1.00296828e-05 -1.09918142e-05 -1.276799657e-05 -1.211230318e-05 -1.151123396e-05)
5(-1.058011994e-05 -1.174876205e-05 -1.306019457e-05 -1.177294552e-05 -1.10694713e-05)
5(-1.096596833e-05 -1.180537264e-05 -1.280473605e-05 -1.135713988e-05 -1.061101224e-05)
5(-1.124428225e-05 -1.286587576e-05 -1.237284254e-05 -1.088743687e-05 -1.016304596e-05)
5(-1.144061148e-05 -1.250096786e-05 -1.184262675e-05 -1.038554023e-05 -9.727911499e-06)
5(-1.217272687e-05 -1.193562819e-05 -1.124438465e-05 -9.883852245e-06 -9.321900978e-06)
5(-1.20241976e-05 -1.126185176e-05 -1.061118085e-05 -9.383375484e-06 -8.92934523e-06)
5(-1.130822808e-05 -1.051909579e-05 -9.953667873e-06 -8.891095734e-06 -8.564900228e-06)
5(-1.033674722e-05 -9.742807419e-06 -9.29152183e-06 -8.430088427e-06 -8.232318333e-06)
5(-9.179856459e-06 -8.929712812e-06 -8.61890975e-06 -7.998813624e-06 -7.939913086e-06)
5(-7.838945325e-06 -8.076078615e-06 -7.938767041e-06 -7.583810371e-06 -7.720816607e-06)
5(-6.543242926e-06 -7.078145539e-06 -7.221798191e-06 -7.198615077e-06 -7.573020342e-06)
5(-5.351386386e-06 -5.993429816e-06 -6.24015197e-06 -7.509645032e-06 -7.536266813e-06)
5(-4.007012286e-06 -4.582007548e-06 -4.203799709e-06 -4.384296219e-06 -5.2373433e-06)
)


60
(
5(-1.550048513e-07 -2.517081484e-07 -3.45044515e-07 -5.254318128e-07 -6.59067713e-07)
5(-2.076038716e-07 -3.676143788e-07 -4.476165064e-07 -6.545776226e-07 -8.391575051e-07)
5(-2.909306378e-07 -3.903898077e-07 -5.25368965e-07 -7.760616669e-07 -1.176866695e-06)
5(-3.146310575e-07 -4.229661012e-07 -5.63617797e-07 -9.049235496e-07 -1.006697577e-06)
5(-3.492488239e-07 -4.700814033e-07 -6.313632345e-07 -9.275322177e-07 -1.21358085e-06)
5(-3.432374598e-07 -5.196954098e-07 -7.635664295e-07 -1.009908426e-06 -1.403103986e-06)
5(-3.703497594e-07 -5.664425823e-07 -8.146480694e-07 -1.124030407e-06 -1.418123015e-06)
5(-4.204874676e-07 -6.075701343e-07 -8.381628759e-07 -1.181062282e-06 -1.659115882e-06)
5(-4.200408579e-07 -6.457019575e-07 -9.038066393e-07 -1.248317238e-06 -1.69215976e-06)
5(-4.447910003e-07 -6.836182845e-07 -9.398118322e-07 -1.332939031e-06 -1.777436485e-06)
5(-4.709554349e-07 -7.273004954e-07 -1.001399945e-06 -1.408902652e-06 -1.879653422e-06)
5(-5.187978655e-07 -7.738408509e-07 -1.078466537e-06 -1.489771008e-06 -2.005879008e-06)
5(-5.711448912e-07 -8.19885544e-07 -1.147183181e-06 -1.561848821e-06 -2.102411195e-06)
5(-5.999546916e-07 -8.674117449e-07 -1.210909977e-06 -1.663122104e-06 -2.224202676e-06)
5(-6.432159524e-07 -9.223484804e-07 -1.285363276e-06 -1.742462773e-06 -2.339348752e-06)
5(-6.784977505e-07 -9.727195714e-07 -1.35243823e-06 -1.831982798e-06 -2.453073272e-06)
5(-7.20506567e-07 -1.031073451e-06 -1.428228543e-06 -1.928662135e-06 -2.565295891e-06)
5(-7.670839968e-07 -1.093080118e-06 -1.510166901e-06 -2.024798546e-06 -2.68856186e-06)
5(-8.17390334e-07 -1.158760958e-06 -1.596134869e-06 -2.134764708e-06 -2.821683234e-06)
5(-8.668673293e-07 -1.22438266e-06 -1.682547149e-06 -2.236423244e-06 -2.967165613e-06)
5(-9.241867098e-07 -1.304374471e-06 -1.787503032e-06 -2.362848311e-06 -3.12179944e-06)
5(-9.859105149e-07 -1.387740603e-06 -1.890493936e-06 -2.521622637e-06 -3.306742661e-06)
5(-1.04993265e-06 -1.475632838e-06 -2.007967205e-06 -2.646089074e-06 -3.457294312e-06)
5(-1.126143163e-06 -1.568394747e-06 -2.13315332e-06 -2.799139312e-06 -3.647359917e-06)
5(-1.205929994e-06 -1.674776608e-06 -2.266639847e-06 -2.955448791e-06 -3.836474593e-06)
5(-1.296886439e-06 -1.792879578e-06 -2.406450494e-06 -3.12192977e-06 -4.051339693e-06)
5(-1.397203046e-06 -1.927443087e-06 -2.579798525e-06 -3.311556919e-06 -4.281038602e-06)
5(-1.511551105e-06 -2.075099531e-06 -2.753546272e-06 -3.521483814e-06 -4.530385989e-06)
5(-1.633239835e-06 -2.232474115e-06 -2.957701907e-06 -3.758745324e-06 -4.795712152e-06)
5(-1.773954943e-06 -2.405032072e-06 -3.179312214e-06 -4.028417788e-06 -5.093802327e-06)
5(-1.928123526e-06 -2.598295717e-06 -3.40879672e-06 -4.28677394e-06 -5.397315197e-06)
5(-2.104621967e-06 -2.819738466e-06 -3.682065481e-06 -4.611432642e-06 -5.800185512e-06)
5(-2.304762053e-06 -3.057557542e-06 -3.96362477e-06 -4.932302291e-06 -6.080582594e-06)
5(-2.524894123e-06 -3.318511618e-06 -4.262176821e-06 -5.287123634e-06 -6.539345253e-06)
5(-2.770038844e-06 -3.615153705e-06 -4.60831214e-06 -5.658106745e-06 -6.931640121e-06)
5(-3.043333948e-06 -3.920030072e-06 -4.932688117e-06 -6.042984402e-06 -7.339718804e-06)
5(-3.351714012e-06 -4.297608495e-06 -5.403508741e-06 -6.498949733e-06 -7.746898929e-06)
5(-3.688295953e-06 -4.661851073e-06 -5.828110186e-06 -6.912254722e-06 -8.396496448e-06)
5(-4.055056665e-06 -5.079522092e-06 -6.251397693e-06 -7.383930946e-06 -8.606049612e-06)
5(-4.436625797e-06 -5.510668423e-06 -6.676503656e-06 -7.814403426e-06 -9.821199703e-06)
5(-4.867437781e-06 -6.001293556e-06 -7.222699688e-06 -8.299233049e-06 -1.012657517e-05)
5(-5.347865539e-06 -6.494589982e-06 -7.737724204e-06 -8.986532995e-06 -1.039883173e-05)
5(-5.834631392e-06 -7.033910164e-06 -8.276978731e-06 -9.956979327e-06 -1.057258162e-05)
5(-6.33103534e-06 -7.505865958e-06 -8.54950241e-06 -1.024850112e-05 -1.064981301e-05)
5(-6.831577247e-06 -8.021590368e-06 -9.064859662e-06 -1.045002608e-05 -1.072997922e-05)
5(-7.374224934e-06 -8.471900846e-06 -9.586281959e-06 -1.05600849e-05 -1.071284878e-05)
5(-7.879853048e-06 -8.970053042e-06 -1.046940736e-05 -1.059066917e-05 -1.061431954e-05)
5(-8.362659419e-06 -9.569652314e-06 -1.082509393e-05 -1.055129804e-05 -1.044755654e-05)
5(-8.756395279e-06 -9.793552894e-06 -1.086385465e-05 -1.042977464e-05 -1.022713907e-05)
5(-9.095161123e-06 -1.053315352e-05 -1.077192368e-05 -1.023641336e-05 -9.973859076e-06)
5(-9.377807027e-06 -1.049839729e-05 -1.058170937e-05 -9.979646591e-06 -9.699226959e-06)
5(-9.927667031e-06 -1.03164351e-05 -1.030619488e-05 -9.67626394e-06 -9.404981947e-06)
5(-9.987500621e-06 -1.002317674e-05 -9.95563474e-06 -9.339120008e-06 -9.100036282e-06)
5(-9.711538443e-06 -9.642438538e-06 -9.547122287e-06 -8.981347375e-06 -8.793956735e-06)
5(-9.250355175e-06 -9.180564636e-06 -9.094996869e-06 -8.612975463e-06 -8.498963182e-06)
5(-8.628782285e-06 -8.654937645e-06 -8.610141181e-06 -8.244640274e-06 -8.218956663e-06)
5(-7.855779462e-06 -8.077687457e-06 -8.097371832e-06 -7.878702193e-06 -7.974434135e-06)
5(-7.058147046e-06 -7.393459055e-06 -7.548331938e-06 -7.525513906e-06 -7.766853143e-06)
5(-6.260490761e-06 -6.646227739e-06 -6.863890646e-06 -7.510940694e-06 -7.603675058e-06)
5(-5.186354562e-06 -5.564343765e-06 -5.48550191e-06 -5.609549305e-06 -6.206089878e-06)
)


60
(
5(-1.508769077e-07 -2.299420394e-07 -3.274954689e-07 -4.824830858e-07 -6.098039389e-07)
5(-1.951718052e-07 -2.884907009e-07 -4.026913293e-07 -5.671471916e-07 -7.392571122e-07)
5(-2.288997524e-07 -3.359155547e-07 -4.636872027e-07 -6.407296576e-07 -8.514806492e-07)
5(-2.557980494e-07 -3.730886634e-07 -5.159542524e-07 -7.057511298e-07 -9.422495441e-07)
5(-2.812352538e-07 -4.071232746e-07 -5.615415749e-07 -7.659812302e-07 -1.017069117e-06)
5(-3.064463953e-07 -4.413051402e-07 -6.062249724e-07 -8.248562015e-07 -1.087853128e-06)
5(-3.31669481e-07 -4.754646872e-07 -6.530850201e-07 -8.829424371e-07 -1.162432434e-06)
5(-3.573626346e-07 -5.100604041e-07 -6.995116726e-07 -9.41661971e-07 -1.240256484e-06)
5(-3.836080436e-07 -5.452957239e-07 -7.465105661e-07 -1.001610541e-06 -1.318663113e-06)
5(-4.10173853e-07 -5.808628094e-07 -7.936550105e-07 -1.061176516e-06 -1.396620686e-06)
5(-4.375912262e-07 -6.169194048e-07 -8.41277098e-07 -1.120963658e-06 -1.472029922e-06)
5(-4.654849706e-07 -6.541285062e-07 -8.893976065e-07 -1.181703013e-06 -1.547452706e-06)
5(-4.944377137e-07 -6.922586087e-07 -9.390061316e-07 -1.243754138e-06 -1.625267327e-06)
5(-5.245134031e-07 -7.317035294e-07 -9.902602915e-07 -1.30659819e-06 -1.703473465e-06)
5(-5.559366294e-07 -7.726369838e-07 -1.043357518e-06 -1.371451856e-06 -1.784733941e-06)
5(-5.885847481e-07 -8.150612854e-07 -1.097922678e-06 -1.438252867e-06 -1.867196777e-06)
5(-6.228072426e-07 -8.593167661e-07 -1.154254056e-06 -1.507267665e-06 -1.952283073e-06)
5(-6.589267867e-07 -9.055960151e-07 -1.212922012e-06 -1.578795531e-06 -2.040473289e-06)
5(-6.969589889e-07 -9.546973119e-07 -1.274794433e-06 -1.653681195e-06 -2.1315967e-06)
5(-7.372108745e-07 -1.006156312e-06 -1.339611512e-06 -1.731843143e-06 -2.226755907e-06)
5(-7.800525559e-07 -1.060650407e-06 -1.408366828e-06 -1.814799552e-06 -2.327567514e-06)
5(-8.262513127e-07 -1.119172968e-06 -1.481355775e-06 -1.901670131e-06 -2.43335983e-06)
5(-8.758694089e-07 -1.181488274e-06 -1.558891282e-06 -1.995450344e-06 -2.544467364e-06)
5(-9.285488689e-07 -1.247877942e-06 -1.64132651e-06 -2.095877882e-06 -2.663842267e-06)
5(-9.861501784e-07 -1.319620835e-06 -1.731250069e-06 -2.20190088e-06 -2.792173902e-06)
5(-1.048223646e-06 -1.397599922e-06 -1.826525213e-06 -2.315094414e-06 -2.926763664e-06)
5(-1.11579483e-06 -1.482068405e-06 -1.929969029e-06 -2.437202165e-06 -3.071468758e-06)
5(-1.189332067e-06 -1.573110197e-06 -2.042303701e-06 -2.569640568e-06 -3.230939919e-06)
5(-1.27016124e-06 -1.672312499e-06 -2.163600641e-06 -2.712988598e-06 -3.395378186e-06)
5(-1.358492058e-06 -1.780914917e-06 -2.295930281e-06 -2.868978946e-06 -3.582016577e-06)
5(-1.454534978e-06 -1.899404245e-06 -2.439578184e-06 -3.037904057e-06 -3.777270093e-06)
5(-1.560393447e-06 -2.028851677e-06 -2.59629112e-06 -3.221385655e-06 -3.994444444e-06)
5(-1.676899012e-06 -2.170676184e-06 -2.768814787e-06 -3.422250195e-06 -4.227053227e-06)
5(-1.803786834e-06 -2.326260871e-06 -2.956903439e-06 -3.641341077e-06 -4.483832943e-06)
5(-1.944173625e-06 -2.496393081e-06 -3.161686178e-06 -3.8812578e-06 -4.758530943e-06)
5(-2.095944086e-06 -2.683089826e-06 -3.385184848e-06 -4.143733433e-06 -5.060769633e-06)
5(-2.263231245e-06 -2.887513364e-06 -3.629541454e-06 -4.431969486e-06 -5.38436573e-06)
5(-2.447245796e-06 -3.111988153e-06 -3.900127083e-06 -4.743457506e-06 -5.727024921e-06)
5(-2.645851179e-06 -3.359376981e-06 -4.19631138e-06 -5.079273423e-06 -6.100808492e-06)
5(-2.863829508e-06 -3.627891314e-06 -4.519953121e-06 -5.443374826e-06 -6.499835142e-06)
5(-3.103799473e-06 -3.925762612e-06 -4.873754317e-06 -5.834548129e-06 -6.93765623e-06)
5(-3.364169662e-06 -4.246019154e-06 -5.249635678e-06 -6.254299368e-06 -7.394213732e-06)
5(-3.64476605e-06 -4.596620618e-06 -5.650652018e-06 -6.70064946e-06 -7.845238489e-06)
5(-3.94657535e-06 -4.977785826e-06 -6.070917406e-06 -7.163474742e-06 -8.274606309e-06)
5(-4.277398408e-06 -5.374590606e-06 -6.508820753e-06 -7.628818218e-06 -8.673665334e-06)
5(-4.628575556e-06 -5.78675621e-06 -6.960807829e-06 -8.073619851e-06 -9.028420756e-06)
5(-4.999889254e-06 -6.207166004e-06 -7.42291663e-06 -8.477387873e-06 -9.314668661e-06)
5(-5.384191745e-06 -6.638804234e-06 -7.865756501e-06 -8.824733578e-06 -9.525516472e-06)
5(-5.772013447e-06 -7.066609586e-06 -8.270904814e-06 -9.101159397e-06 -9.654060698e-06)
5(-6.175084901e-06 -7.47931322e-06 -8.614496871e-06 -9.293091815e-06 -9.698581788e-06)
5(-6.566470871e-06 -7.853268548e-06 -8.870890546e-06 -9.389786478e-06 -9.670216382e-06)
5(-6.947472128e-06 -8.161967903e-06 -9.028973849e-06 -9.393166944e-06 -9.571580937e-06)
5(-7.30426287e-06 -8.376048646e-06 -9.079380074e-06 -9.30969756e-06 -9.420585766e-06)
5(-7.596802168e-06 -8.481496053e-06 -9.026364838e-06 -9.158053207e-06 -9.219633368e-06)
5(-7.797638488e-06 -8.465329011e-06 -8.879340796e-06 -8.941524119e-06 -8.992627502e-06)
5(-7.871743008e-06 -8.344620932e-06 -8.655148522e-06 -8.68303606e-06 -8.746748713e-06)
5(-7.817516777e-06 -8.134333237e-06 -8.37116361e-06 -8.394754099e-06 -8.481333716e-06)
5(-7.623522883e-06 -7.843093421e-06 -8.041357716e-06 -8.079338465e-06 -8.206132812e-06)
5(-7.292511079e-06 -7.48226737e-06 -7.680642631e-06 -7.741992294e-06 -7.91682131e-06)
5(-6.563821517e-06 -6.663894255e-06 -7.025202356e-06 -7.156658177e-06 -7.401832208e-06)
)


60
(
5(-1.486792943e-07 -2.217527059e-07 -3.151512376e-07 -4.555059453e-07 -5.729890834e-07)
5(-1.920120732e-07 -2.778824177e-07 -3.819364944e-07 -5.308157308e-07 -6.875882809e-07)
5(-2.247632403e-07 -3.23509098e-07 -4.41242524e-07 -5.994822226e-07 -7.852180098e-07)
5(-2.509379392e-07 -3.593093913e-07 -4.906334703e-07 -6.594111196e-07 -8.664375745e-07)
5(-2.756214413e-07 -3.918098736e-07 -5.338123979e-07 -7.141875206e-07 -9.347646304e-07)
5(-3.003207626e-07 -4.241870981e-07 -5.751014078e-07 -7.675361661e-07 -9.99817179e-07)
5(-3.247703955e-07 -4.566479262e-07 -6.175218825e-07 -8.206110458e-07 -1.066664538e-06)
5(-3.494487095e-07 -4.89145849e-07 -6.606674709e-07 -8.74250924e-07 -1.135714373e-06)
5(-3.744896233e-07 -5.218302514e-07 -7.038603746e-07 -9.277041039e-07 -1.204783538e-06)
5(-3.998437593e-07 -5.547605672e-07 -7.470192378e-07 -9.809770003e-07 -1.271306409e-06)
5(-4.25766474e-07 -5.883287542e-07 -7.899713161e-07 -1.033894535e-06 -1.337468333e-06)
5(-4.520811864e-07 -6.224078097e-07 -8.334438935e-07 -1.087383268e-06 -1.403490276e-06)
5(-4.790825251e-07 -6.569673614e-07 -8.777023063e-07 -1.14124889e-06 -1.469824222e-06)
5(-5.068705137e-07 -6.925512707e-07 -9.227875706e-07 -1.196142932e-06 -1.537426381e-06)
5(-5.356680396e-07 -7.290694647e-07 -9.688123964e-07 -1.252053685e-06 -1.605488724e-06)
5(-5.65476634e-07 -7.667364845e-07 -1.016032902e-06 -1.309069809e-06 -1.674988648e-06)
5(-5.963655671e-07 -8.056174111e-07 -1.06481758e-06 -1.367066711e-06 -1.746029674e-06)
5(-6.285775529e-07 -8.458852402e-07 -1.115340492e-06 -1.426518351e-06 -1.819298411e-06)
5(-6.622257666e-07 -8.878433241e-07 -1.167030936e-06 -1.489166982e-06 -1.894219934e-06)
5(-6.974495092e-07 -9.3156542e-07 -1.221339087e-06 -1.553436554e-06 -1.971781492e-06)
5(-7.347998314e-07 -9.772921192e-07 -1.278202036e-06 -1.6207732e-06 -2.05256908e-06)
5(-7.737920146e-07 -1.025490951e-06 -1.337858998e-06 -1.691641921e-06 -2.136450719e-06)
5(-8.153344967e-07 -1.076271008e-06 -1.400077966e-06 -1.76496942e-06 -2.22529375e-06)
5(-8.592312284e-07 -1.130180377e-06 -1.46603353e-06 -1.84295709e-06 -2.319209462e-06)
5(-9.068547399e-07 -1.187379753e-06 -1.536221627e-06 -1.925791925e-06 -2.417871158e-06)
5(-9.563821941e-07 -1.247934377e-06 -1.611060626e-06 -2.013418804e-06 -2.523284096e-06)
5(-1.010463113e-06 -1.31369683e-06 -1.691018823e-06 -2.107188266e-06 -2.635433034e-06)
5(-1.068670317e-06 -1.382886211e-06 -1.776205904e-06 -2.207223424e-06 -2.756850159e-06)
5(-1.131285891e-06 -1.457674189e-06 -1.868309792e-06 -2.316272014e-06 -2.884527702e-06)
5(-1.197215722e-06 -1.538572731e-06 -1.966801541e-06 -2.432777901e-06 -3.02366751e-06)
5(-1.270187676e-06 -1.625551197e-06 -2.073289776e-06 -2.559752846e-06 -3.174632473e-06)
5(-1.349366414e-06 -1.72050565e-06 -2.189514406e-06 -2.697938283e-06 -3.337862024e-06)
5(-1.433431236e-06 -1.823829887e-06 -2.315426564e-06 -2.848375912e-06 -3.522186503e-06)
5(-1.524525847e-06 -1.934204753e-06 -2.453450005e-06 -3.01351755e-06 -3.720107399e-06)
5(-1.62357301e-06 -2.055744783e-06 -2.605062377e-06 -3.195642415e-06 -3.939880762e-06)
5(-1.733684807e-06 -2.188942052e-06 -2.770210663e-06 -3.396131562e-06 -4.179497352e-06)
5(-1.848552249e-06 -2.334795292e-06 -2.952452331e-06 -3.617016786e-06 -4.442732749e-06)
5(-1.976939693e-06 -2.495011538e-06 -3.154857773e-06 -3.861436574e-06 -4.729526159e-06)
5(-2.114514044e-06 -2.672510533e-06 -3.380417942e-06 -4.131986887e-06 -5.052078824e-06)
5(-2.266720654e-06 -2.870128082e-06 -3.63009383e-06 -4.432574581e-06 -5.410025044e-06)
5(-2.436198288e-06 -3.088383264e-06 -3.905449797e-06 -4.76468744e-06 -5.809955774e-06)
5(-2.613454844e-06 -3.327768928e-06 -4.211135152e-06 -5.130476842e-06 -6.237684423e-06)
5(-2.813225561e-06 -3.594593557e-06 -4.544754694e-06 -5.5352401e-06 -6.697059486e-06)
5(-3.025770848e-06 -3.891881208e-06 -4.909154269e-06 -5.975248304e-06 -7.165751915e-06)
5(-3.260051843e-06 -4.219444889e-06 -5.307050425e-06 -6.442064958e-06 -7.62930842e-06)
5(-3.517287639e-06 -4.570059139e-06 -5.736718877e-06 -6.922804633e-06 -8.077579313e-06)
5(-3.79355956e-06 -4.944741948e-06 -6.195526756e-06 -7.397119451e-06 -8.499126444e-06)
5(-4.097241767e-06 -5.347207709e-06 -6.672415698e-06 -7.852304761e-06 -8.873425282e-06)
5(-4.423772599e-06 -5.777548521e-06 -7.150207334e-06 -8.275625532e-06 -9.185934502e-06)
5(-4.774481589e-06 -6.221837718e-06 -7.608397182e-06 -8.638714169e-06 -9.420505374e-06)
5(-5.157222042e-06 -6.67809631e-06 -8.021404873e-06 -8.926722762e-06 -9.566385653e-06)
5(-5.566378769e-06 -7.121875563e-06 -8.365433112e-06 -9.125977875e-06 -9.629258035e-06)
5(-6.005647368e-06 -7.523388841e-06 -8.625835873e-06 -9.230915403e-06 -9.618085743e-06)
5(-6.448973263e-06 -7.851565465e-06 -8.785724911e-06 -9.243039337e-06 -9.5273939e-06)
5(-6.872147819e-06 -8.091612281e-06 -8.835665103e-06 -9.164373722e-06 -9.378205902e-06)
5(-7.210965591e-06 -8.216981609e-06 -8.779951329e-06 -9.007626014e-06 -9.182708877e-06)
5(-7.443875354e-06 -8.217434046e-06 -8.630092625e-06 -8.788905148e-06 -8.943326567e-06)
5(-7.519327197e-06 -8.096063701e-06 -8.402066613e-06 -8.52071874e-06 -8.675865467e-06)
5(-7.379886357e-06 -7.82715419e-06 -8.10319064e-06 -8.220721967e-06 -8.38790893e-06)
5(-6.778788712e-06 -7.104889752e-06 -7.392869014e-06 -7.56530985e-06 -7.717607172e-06)
)


60
(
5(-1.469522919e-07 -2.157275288e-07 -3.048965914e-07 -4.33835875e-07 -5.421706041e-07)
5(-1.897905069e-07 -2.701672044e-07 -3.68071522e-07 -5.040473994e-07 -6.469314977e-07)
5(-2.220202967e-07 -3.142948869e-07 -4.243914552e-07 -5.681863197e-07 -7.358279888e-07)
5(-2.476461531e-07 -3.49012896e-07 -4.713123337e-07 -6.242249217e-07 -8.095478293e-07)
5(-2.717693224e-07 -3.80358909e-07 -5.124690469e-07 -6.753258556e-07 -8.729566599e-07)
5(-2.958063816e-07 -4.113122363e-07 -5.514769827e-07 -7.245666041e-07 -9.328241051e-07)
5(-3.195715144e-07 -4.420578752e-07 -5.909531243e-07 -7.737606215e-07 -9.936483689e-07)
5(-3.433563823e-07 -4.729366434e-07 -6.311446708e-07 -8.230899256e-07 -1.05579534e-06)
5(-3.675347546e-07 -5.039053024e-07 -6.711295256e-07 -8.718556362e-07 -1.117488314e-06)
5(-3.918201795e-07 -5.348927029e-07 -7.109839276e-07 -9.201154361e-07 -1.177594794e-06)
5(-4.164148686e-07 -5.661049587e-07 -7.505419141e-07 -9.682530771e-07 -1.236548061e-06)
5(-4.413928749e-07 -5.977103462e-07 -7.904071258e-07 -1.016512815e-06 -1.295213079e-06)
5(-4.669219622e-07 -6.297484326e-07 -8.305891014e-07 -1.064671107e-06 -1.353345789e-06)
5(-4.930814605e-07 -6.623784822e-07 -8.713616051e-07 -1.113266285e-06 -1.413618402e-06)
5(-5.197833245e-07 -6.95736581e-07 -9.126473533e-07 -1.162729043e-06 -1.472362841e-06)
5(-5.472809062e-07 -7.297252375e-07 -9.54545254e-07 -1.212859424e-06 -1.533313078e-06)
5(-5.756930312e-07 -7.646337466e-07 -9.974667569e-07 -1.263356179e-06 -1.593906575e-06)
5(-6.049622726e-07 -8.004125316e-07 -1.041591323e-06 -1.315540049e-06 -1.656100351e-06)
5(-6.353973599e-07 -8.37276759e-07 -1.086856155e-06 -1.368482343e-06 -1.720488592e-06)
5(-6.671072162e-07 -8.755430922e-07 -1.133651015e-06 -1.423301923e-06 -1.785233964e-06)
5(-7.002023905e-07 -9.152017503e-07 -1.181760031e-06 -1.47946662e-06 -1.853151786e-06)
5(-7.341545495e-07 -9.561800017e-07 -1.232084671e-06 -1.538087934e-06 -1.923199914e-06)
5(-7.701841074e-07 -9.992464335e-07 -1.284302149e-06 -1.598473773e-06 -1.996395195e-06)
5(-8.084649327e-07 -1.044309227e-06 -1.339358058e-06 -1.661651595e-06 -2.072720552e-06)
5(-8.481601549e-07 -1.091525472e-06 -1.396289822e-06 -1.728329866e-06 -2.151142796e-06)
5(-8.902430631e-07 -1.140724601e-06 -1.456026063e-06 -1.798533573e-06 -2.235296863e-06)
5(-9.34725358e-07 -1.192939167e-06 -1.51929957e-06 -1.872386701e-06 -2.324836501e-06)
5(-9.823851115e-07 -1.24832352e-06 -1.586639085e-06 -1.950559905e-06 -2.417002093e-06)
5(-1.032766873e-06 -1.307050402e-06 -1.658096394e-06 -2.034761562e-06 -2.521801279e-06)
5(-1.085759865e-06 -1.369704139e-06 -1.733897645e-06 -2.124511038e-06 -2.628057947e-06)
5(-1.143575631e-06 -1.436130666e-06 -1.815456858e-06 -2.221267959e-06 -2.747191671e-06)
5(-1.203959351e-06 -1.507328445e-06 -1.904485547e-06 -2.326356198e-06 -2.873663966e-06)
5(-1.268452227e-06 -1.584585868e-06 -1.998424309e-06 -2.440865846e-06 -3.015258109e-06)
5(-1.338573481e-06 -1.667237231e-06 -2.101000862e-06 -2.566643787e-06 -3.169017197e-06)
5(-1.412241033e-06 -1.756209373e-06 -2.213126103e-06 -2.704637777e-06 -3.34368258e-06)
5(-1.493637017e-06 -1.852783048e-06 -2.336907325e-06 -2.856277864e-06 -3.532414302e-06)
5(-1.578175769e-06 -1.959225841e-06 -2.474598141e-06 -3.02565024e-06 -3.743060599e-06)
5(-1.670435759e-06 -2.076562333e-06 -2.625379611e-06 -3.215847988e-06 -3.98115511e-06)
5(-1.769594945e-06 -2.206295727e-06 -2.794013573e-06 -3.429499807e-06 -4.24541079e-06)
5(-1.8784185e-06 -2.349462821e-06 -2.98336936e-06 -3.669266576e-06 -4.555041703e-06)
5(-1.991923197e-06 -2.507696894e-06 -3.19633442e-06 -3.940560904e-06 -4.892720257e-06)
5(-2.119064281e-06 -2.68390272e-06 -3.437093633e-06 -4.247673512e-06 -5.283142775e-06)
5(-2.251032279e-06 -2.881842688e-06 -3.70674167e-06 -4.595111414e-06 -5.707003224e-06)
5(-2.39388422e-06 -3.105055191e-06 -4.009746736e-06 -4.98730069e-06 -6.163817157e-06)
5(-2.54411331e-06 -3.352465332e-06 -4.348602333e-06 -5.420670598e-06 -6.63435998e-06)
5(-2.713399023e-06 -3.626277513e-06 -4.729503081e-06 -5.88780939e-06 -7.123904822e-06)
5(-2.891849416e-06 -3.926704198e-06 -5.148781544e-06 -6.377587552e-06 -7.618075926e-06)
5(-3.104952996e-06 -4.251351591e-06 -5.60639419e-06 -6.875517856e-06 -8.09228911e-06)
5(-3.340655634e-06 -4.607987744e-06 -6.093108527e-06 -7.372885394e-06 -8.538733651e-06)
5(-3.591939822e-06 -5.003736988e-06 -6.590187648e-06 -7.853886112e-06 -8.933257497e-06)
5(-3.900932713e-06 -5.441969896e-06 -7.088817557e-06 -8.295170189e-06 -9.25363162e-06)
5(-4.244371298e-06 -5.903611824e-06 -7.56905823e-06 -8.673530795e-06 -9.494846142e-06)
5(-4.636991157e-06 -6.389117964e-06 -8.004842552e-06 -8.974909596e-06 -9.645733224e-06)
5(-5.064833728e-06 -6.863496255e-06 -8.380038581e-06 -9.177531844e-06 -9.703817723e-06)
5(-5.537726897e-06 -7.30584215e-06 -8.66247169e-06 -9.281887277e-06 -9.675580729e-06)
5(-5.993221653e-06 -7.681181053e-06 -8.836025082e-06 -9.282620588e-06 -9.56697565e-06)
5(-6.429352984e-06 -7.936337177e-06 -8.871162372e-06 -9.188491914e-06 -9.397474434e-06)
5(-6.752866938e-06 -8.063387892e-06 -8.786665495e-06 -9.019980298e-06 -9.183442152e-06)
5(-6.89226046e-06 -7.964104773e-06 -8.54275071e-06 -8.771214625e-06 -8.929937059e-06)
5(-6.322672401e-06 -7.288938315e-06 -7.772784505e-06 -8.020589161e-06 -8.248593313e-06)
)


60
(
5(-1.454372616e-07 -2.107412464e-07 -2.959132744e-07 -4.153888681e-07 -5.15380615e-07)
5(-1.878602091e-07 -2.636182331e-07 -3.561985899e-07 -4.815393397e-07 -6.123193689e-07)
5(-2.196519405e-07 -3.063761647e-07 -4.099309988e-07 -5.418966799e-07 -6.944264904e-07)
5(-2.447740138e-07 -3.402357366e-07 -4.54936881e-07 -5.948190471e-07 -7.627557371e-07)
5(-2.684304315e-07 -3.706086814e-07 -4.941828272e-07 -6.429021469e-07 -8.213645908e-07)
5(-2.918812398e-07 -4.002959122e-07 -5.312542035e-07 -6.891118992e-07 -8.767637939e-07)
5(-3.15062007e-07 -4.298105266e-07 -5.684476255e-07 -7.348520353e-07 -9.333357595e-07)
5(-3.381698144e-07 -4.592652361e-07 -6.062485661e-07 -7.804741076e-07 -9.89638095e-07)
5(-3.615528714e-07 -4.886820163e-07 -6.43709371e-07 -8.256570463e-07 -1.046107411e-06)
5(-3.849990254e-07 -5.182315122e-07 -6.809357922e-07 -8.702772815e-07 -1.100771633e-06)
5(-4.086230001e-07 -5.476045129e-07 -7.176538181e-07 -9.14316824e-07 -1.154194518e-06)
5(-4.324691417e-07 -5.773854881e-07 -7.545456198e-07 -9.581098396e-07 -1.206946223e-06)
5(-4.568495652e-07 -6.073839252e-07 -7.913783273e-07 -1.002028306e-06 -1.259809833e-06)
5(-4.817758558e-07 -6.377471736e-07 -8.288818243e-07 -1.046042959e-06 -1.312564435e-06)
5(-5.070325975e-07 -6.685099971e-07 -8.66583333e-07 -1.090348741e-06 -1.366060897e-06)
5(-5.329094151e-07 -6.998169266e-07 -9.050097994e-07 -1.135001047e-06 -1.419782888e-06)
5(-5.593620396e-07 -7.317219447e-07 -9.434156958e-07 -1.180125971e-06 -1.473214732e-06)
5(-5.867365211e-07 -7.643020398e-07 -9.82552941e-07 -1.226407643e-06 -1.527857238e-06)
5(-6.149438064e-07 -7.976522451e-07 -1.022895252e-06 -1.272262824e-06 -1.582963385e-06)
5(-6.439159737e-07 -8.319616908e-07 -1.063919377e-06 -1.319715937e-06 -1.639580546e-06)
5(-6.740182182e-07 -8.673316193e-07 -1.106054142e-06 -1.368075616e-06 -1.696739051e-06)
5(-7.052225567e-07 -9.03437431e-07 -1.14938662e-06 -1.417568904e-06 -1.756152987e-06)
5(-7.378015748e-07 -9.410667199e-07 -1.194340663e-06 -1.469079561e-06 -1.817049812e-06)
5(-7.720866417e-07 -9.799090256e-07 -1.240536883e-06 -1.522105538e-06 -1.879127732e-06)
5(-8.066366497e-07 -1.02022881e-06 -1.288256553e-06 -1.57695806e-06 -1.944087382e-06)
5(-8.443316143e-07 -1.062633313e-06 -1.338231856e-06 -1.633635884e-06 -2.013614105e-06)
5(-8.833406766e-07 -1.106275296e-06 -1.390262438e-06 -1.693159567e-06 -2.083380515e-06)
5(-9.250042067e-07 -1.152404115e-06 -1.444793095e-06 -1.755972729e-06 -2.157703014e-06)
5(-9.662596087e-07 -1.201136968e-06 -1.501823816e-06 -1.821688153e-06 -2.238843438e-06)
5(-1.012411735e-06 -1.252065236e-06 -1.561985306e-06 -1.891757884e-06 -2.322715133e-06)
5(-1.058993421e-06 -1.305188308e-06 -1.625851321e-06 -1.966343746e-06 -2.416992308e-06)
5(-1.110611393e-06 -1.361722394e-06 -1.694414611e-06 -2.046795088e-06 -2.517632926e-06)
5(-1.163629536e-06 -1.4219249e-06 -1.767435027e-06 -2.133461527e-06 -2.624134074e-06)