/*--------------------------------*- C++ -*----------------------------------*\
| =========                 |                                                 |
| \\      /  F ield         | OpenFOAM: The Open Source CFD Toolbox           |
|  \\    /   O peration     | Version:  2.3.1                                 |
|   \\  /    A nd           | Web:      www.OpenFOAM.org                      |
|    \\/     M anipulation  |                                                 |
\*---------------------------------------------------------------------------*/
FoamFile
{
    version     2.0;
    format      ascii;
    class       dictionary;
    location    "constant";
    object      DPSI31;
}
// * * * * * * * * * * * * * * * * * * * * * * * * * * * * * * * * * * * * * //

DPSI31_table
60
(

60
(
5(5.486590761e-07 8.82617523e-07 6.641529878e-07 8.782896535e-07 7.739535177e-07)
5(9.446998712e-07 1.750504285e-06 1.112237707e-06 1.323226524e-06 1.216087112e-06)
5(2.017604425e-06 1.649295946e-06 1.475395743e-06 1.798192143e-06 2.344757978e-06)
5(2.625975093e-06 1.721090501e-06 1.490946039e-06 2.341126471e-06 1.351278254e-06)
5(2.634885218e-06 2.011321925e-06 1.789834015e-06 2.241714845e-06 2.094229417e-06)
5(2.136900934e-06 2.334826448e-06 2.715521655e-06 2.512486561e-06 2.769276493e-06)
5(2.101011105e-06 2.621873862e-06 2.875412364e-06 3.006521727e-06 2.580951673e-06)
5(2.720716072e-06 2.82070604e-06 2.759886684e-06 3.103686568e-06 3.532704384e-06)
5(2.547474811e-06 2.959778825e-06 3.054572091e-06 3.257247605e-06 3.419263686e-06)
5(2.76484699e-06 3.089298275e-06 3.036331774e-06 3.538042108e-06 3.553804756e-06)
5(2.885161161e-06 3.287352041e-06 3.259677093e-06 3.74006219e-06 3.781742063e-06)
5(3.131790793e-06 3.48851616e-06 3.634144925e-06 3.961978158e-06 4.138810723e-06)
5(3.478733126e-06 3.665248971e-06 3.895369768e-06 4.096430119e-06 4.307948202e-06)
5(3.511246915e-06 3.834184844e-06 4.076126126e-06 4.44282436e-06 4.608680594e-06)
5(3.825503287e-06 4.084155675e-06 4.34578796e-06 4.591558562e-06 4.849108202e-06)
5(3.960385671e-06 4.251310163e-06 4.513963722e-06 4.797020943e-06 5.064437992e-06)
5(4.149946238e-06 4.46897443e-06 4.733169796e-06 5.018499202e-06 5.237102666e-06)
5(4.358856832e-06 4.686208253e-06 4.959378661e-06 5.1954596e-06 5.446638741e-06)
5(4.58717263e-06 4.892419603e-06 5.183167118e-06 5.441175873e-06 5.677306824e-06)
5(4.737866166e-06 5.033925673e-06 5.356581054e-06 5.571536169e-06 5.933936676e-06)
5(4.97430352e-06 5.316201092e-06 5.659479458e-06 5.834159998e-06 6.180208189e-06)
5(5.188190887e-06 5.557318719e-06 5.867628269e-06 6.287082345e-06 6.55491968e-06)
5(5.351382344e-06 5.762656115e-06 6.130607785e-06 6.395443063e-06 6.677602639e-06)
5(5.624348442e-06 5.928925419e-06 6.375705546e-06 6.63733096e-06 6.945187314e-06)
5(5.83333042e-06 6.166053081e-06 6.591790483e-06 6.819318493e-06 7.138431576e-06)
5(6.083999512e-06 6.430773584e-06 6.768522411e-06 6.979276051e-06 7.395023654e-06)
5(6.32643669e-06 6.726034981e-06 7.120054562e-06 7.199871198e-06 7.634397197e-06)
5(6.623091747e-06 7.001203259e-06 7.332746322e-06 7.440196359e-06 7.891718591e-06)
5(6.824825692e-06 7.241412338e-06 7.666997742e-06 7.744390225e-06 8.133929171e-06)
5(7.104646276e-06 7.463873896e-06 7.979397317e-06 8.11978341e-06 8.434295088e-06)
5(7.347888101e-06 7.70675536e-06 8.19764049e-06 8.306360118e-06 8.67304563e-06)
5(7.648779217e-06 8.034294114e-06 8.576656333e-06 8.74276815e-06 9.24830616e-06)
5(7.982833635e-06 8.311110149e-06 8.842940285e-06 9.023574102e-06 9.212032819e-06)
5(8.285635787e-06 8.570137366e-06 9.057512411e-06 9.358260679e-06 9.82241178e-06)
5(8.594762604e-06 8.914103787e-06 9.417097565e-06 9.652389834e-06 1.006532101e-05)
5(8.941575219e-06 9.117839128e-06 9.480971208e-06 9.901612949e-06 1.030711154e-05)
5(9.284566853e-06 9.626987082e-06 1.021324834e-05 1.036343968e-05 1.05212645e-05)
5(9.655050094e-06 9.843246846e-06 1.053142977e-05 1.053933397e-05 1.160441076e-05)
5(9.976803015e-06 1.019309223e-05 1.072018201e-05 1.090417785e-05 1.099242966e-05)
5(1.019318403e-05 1.047359457e-05 1.080446782e-05 1.10370766e-05 1.394865452e-05)
5(1.054763787e-05 1.090408384e-05 1.134334546e-05 1.137988969e-05 1.374396429e-05)
5(1.094491264e-05 1.123029763e-05 1.170380633e-05 1.256992453e-05 1.348617866e-05)
5(1.125870951e-05 1.167048469e-05 1.213721412e-05 1.499037482e-05 1.307344562e-05)
5(1.147629802e-05 1.171046621e-05 1.144748958e-05 1.467320442e-05 1.251585803e-05)
5(1.163634256e-05 1.199482274e-05 1.190965072e-05 1.442834734e-05 1.211778658e-05)
5(1.193621393e-05 1.20132046e-05 1.248856154e-05 1.379799838e-05 1.166235147e-05)
5(1.209996825e-05 1.239346945e-05 1.532004065e-05 1.318770572e-05 1.112521975e-05)
5(1.231711737e-05 1.343401544e-05 1.593263942e-05 1.262759428e-05 1.050131536e-05)
5(1.217915272e-05 1.301362274e-05 1.535340874e-05 1.198945675e-05 9.872699688e-06)
5(1.20562937e-05 1.63943379e-05 1.460687397e-05 1.140672074e-05 9.360688893e-06)
5(1.216822044e-05 1.575514593e-05 1.379284123e-05 1.060897325e-05 8.79610334e-06)
5(1.480153805e-05 1.472014535e-05 1.292332362e-05 9.914072054e-06 8.308687051e-06)
5(1.516107376e-05 1.35620421e-05 1.20199645e-05 9.211823745e-06 7.908569792e-06)
5(1.390851125e-05 1.240793602e-05 1.095753096e-05 8.568443593e-06 7.385289483e-06)
5(1.250615208e-05 1.121493242e-05 9.925770654e-06 7.792933597e-06 6.970963699e-06)
5(1.018186312e-05 9.86983847e-06 8.82319641e-06 7.210911624e-06 6.618464926e-06)
5(7.204319587e-06 8.303818758e-06 7.681912617e-06 6.488097505e-06 6.00768429e-06)
5(4.332732534e-06 6.172390458e-06 6.220851615e-06 5.362209033e-06 6.216893724e-06)
5(1.463498176e-06 3.276993632e-06 3.70304917e-06 6.509603118e-06 4.910249568e-06)
5(-4.617307689e-06 -3.559327181e-06 -5.497225624e-06 -5.273803919e-06 -1.892788617e-06)
)


60
(
5(4.887457082e-07 7.331105274e-07 6.002992659e-07 7.739357781e-07 7.079406953e-07)
5(7.859575642e-07 1.328072074e-06 9.377796303e-07 1.102377657e-06 1.054637127e-06)
5(1.535205212e-06 1.281162706e-06 1.217549576e-06 1.443241461e-06 1.936223103e-06)
5(2.041582889e-06 1.348067067e-06 1.263771519e-06 1.816190891e-06 1.260897036e-06)
5(1.959012976e-06 1.540973032e-06 1.460870019e-06 1.760552281e-06 1.721952471e-06)
5(1.609595264e-06 1.751476408e-06 2.03277679e-06 1.942976911e-06 2.147228745e-06)
5(1.601449161e-06 1.93668711e-06 2.14205292e-06 2.257229222e-06 2.048374537e-06)
5(1.982359338e-06 2.072475771e-06 2.091493143e-06 2.332386803e-06 2.64728156e-06)
5(1.909012918e-06 2.176673798e-06 2.289214457e-06 2.447799787e-06 2.598958794e-06)
5(2.053811374e-06 2.273121475e-06 2.304297321e-06 2.633220521e-06 2.707070683e-06)
5(2.146810461e-06 2.407262814e-06 2.45824972e-06 2.773360417e-06 2.862957234e-06)
5(2.302650558e-06 2.54378764e-06 2.692331936e-06 2.924787052e-06 3.089859702e-06)
5(2.517649274e-06 2.667716649e-06 2.864648257e-06 3.028563896e-06 3.213766474e-06)
5(2.561119666e-06 2.788574731e-06 2.993298116e-06 3.247491684e-06 3.410971538e-06)
5(2.760456029e-06 2.954456606e-06 3.173095621e-06 3.35974588e-06 3.574969816e-06)
5(2.859570721e-06 3.07434174e-06 3.294312959e-06 3.503894441e-06 3.725141558e-06)
5(2.993074216e-06 3.221253172e-06 3.444443239e-06 3.656181865e-06 3.852720583e-06)
5(3.13544271e-06 3.368736896e-06 3.598032505e-06 3.786121371e-06 3.99957359e-06)
5(3.288303476e-06 3.512943838e-06 3.753335113e-06 3.952317398e-06 4.159980329e-06)
5(3.401435549e-06 3.622017914e-06 3.881225434e-06 4.057879015e-06 4.332646469e-06)
5(3.558948874e-06 3.807318468e-06 4.079002048e-06 4.235786845e-06 4.504797031e-06)
5(3.709917418e-06 3.971438299e-06 4.227155634e-06 4.512837592e-06 4.743675731e-06)
5(3.832634216e-06 4.118436412e-06 4.406929733e-06 4.611631686e-06 4.847982647e-06)
5(4.013172798e-06 4.244606376e-06 4.576329364e-06 4.783429202e-06 5.033280639e-06)
5(4.161758719e-06 4.410298183e-06 4.734389798e-06 4.921875286e-06 5.179146852e-06)
5(4.33389291e-06 4.591003239e-06 4.866972563e-06 5.050353157e-06 5.358811555e-06)
5(4.502408909e-06 4.789876707e-06 5.095624015e-06 5.2107711e-06 5.53391519e-06)
5(4.699746661e-06 4.978669316e-06 5.256017616e-06 5.387236006e-06 5.719923629e-06)
5(4.85220151e-06 5.148366685e-06 5.477551412e-06 5.596567221e-06 5.89766988e-06)
5(5.043007212e-06 5.312970279e-06 5.692606077e-06 5.846484629e-06 6.110712519e-06)
5(5.217977275e-06 5.492431163e-06 5.859668478e-06 5.999172258e-06 6.292156822e-06)
5(5.423493034e-06 5.714318134e-06 6.113226708e-06 6.283090702e-06 6.652300727e-06)
5(5.64820103e-06 5.910408519e-06 6.309444741e-06 6.491436894e-06 6.696505096e-06)
5(5.85708821e-06 6.10398224e-06 6.482971409e-06 6.729512945e-06 7.080908391e-06)
5(6.070461241e-06 6.339172522e-06 6.729606748e-06 6.949350205e-06 7.27553793e-06)
5(6.293704667e-06 6.504824079e-06 6.831141463e-06 7.14757197e-06 7.475018347e-06)
5(6.528190276e-06 6.828315878e-06 7.276656481e-06 7.462557552e-06 7.660310458e-06)
5(6.769286156e-06 7.001115572e-06 7.510991242e-06 7.629936082e-06 8.293679572e-06)
5(6.983256239e-06 7.24930133e-06 7.680202385e-06 7.893111625e-06 8.054581077e-06)
5(7.141362798e-06 7.45057877e-06 7.796197978e-06 8.040735973e-06 9.657062112e-06)
5(7.360641497e-06 7.73944247e-06 8.157264578e-06 8.295328955e-06 9.637583062e-06)
5(7.611114948e-06 7.961889038e-06 8.41217247e-06 8.986713035e-06 9.592042042e-06)
5(7.797461089e-06 8.245450202e-06 8.704681992e-06 1.031172099e-05 9.462637685e-06)
5(7.930992386e-06 8.330973821e-06 8.416934833e-06 1.022994154e-05 9.241320227e-06)
5(8.029934997e-06 8.51286156e-06 8.711835031e-06 1.018259402e-05 9.091420942e-06)
5(8.197377649e-06 8.560709113e-06 9.0667534e-06 9.926575108e-06 8.894439109e-06)
5(8.284269362e-06 8.784745515e-06 1.056938323e-05 9.661573717e-06 8.636241495e-06)
5(8.390315672e-06 9.336787418e-06 1.093075626e-05 9.399149688e-06 8.312733481e-06)
5(8.301353828e-06 9.129265738e-06 1.0665717e-05 9.071718522e-06 7.959735097e-06)
5(8.228717136e-06 1.086359058e-05 1.029516937e-05 8.74384667e-06 7.642266291e-06)
5(8.263487483e-06 1.054343352e-05 9.862382142e-06 8.281404444e-06 7.27898473e-06)
5(9.583515262e-06 1.000545952e-05 9.374012864e-06 7.839447477e-06 6.928579785e-06)
5(9.743706709e-06 9.373054133e-06 8.830956491e-06 7.369729053e-06 6.610710111e-06)
5(9.088115704e-06 8.727233788e-06 8.180812417e-06 6.909459788e-06 6.204789757e-06)
5(8.350187536e-06 8.01197443e-06 7.516776771e-06 6.3607979e-06 5.849458081e-06)
5(7.119377229e-06 7.197992441e-06 6.796697482e-06 5.890880545e-06 5.508873732e-06)
5(5.531159879e-06 6.252619621e-06 6.029797526e-06 5.339755344e-06 5.031295497e-06)
5(3.948788156e-06 4.982820578e-06 5.081915598e-06 4.572382519e-06 4.946500596e-06)
5(2.236824406e-06 3.257907417e-06 3.557579842e-06 4.902726356e-06 4.085112988e-06)
5(-1.411539909e-06 -8.536080492e-07 -1.632328063e-06 -1.77434362e-06 2.583044693e-08)
)


60
(
5(3.91570243e-07 5.015933366e-07 4.927460408e-07 6.002386823e-07 5.93581589e-07)
5(5.350005064e-07 6.237394607e-07 6.483178624e-07 7.358025908e-07 7.672215234e-07)
5(6.464092605e-07 7.181436776e-07 7.798739485e-07 8.508753394e-07 9.208920413e-07)
5(7.258620922e-07 7.933022352e-07 8.739692117e-07 9.435376261e-07 1.031467985e-06)
5(7.881802444e-07 8.606142948e-07 9.40385839e-07 1.02024894e-06 1.105789258e-06)
5(8.392825938e-07 9.263568152e-07 1.000357341e-06 1.095746654e-06 1.172413635e-06)
5(8.959286047e-07 9.906623033e-07 1.072979499e-06 1.168808793e-06 1.250805965e-06)
5(9.598979874e-07 1.057037005e-06 1.14713922e-06 1.244936191e-06 1.338337759e-06)
5(1.025543154e-06 1.125355597e-06 1.2248079e-06 1.325513125e-06 1.427312134e-06)
5(1.085566712e-06 1.191078791e-06 1.298396022e-06 1.401381378e-06 1.513943125e-06)
5(1.150071594e-06 1.254830561e-06 1.370446007e-06 1.475776247e-06 1.592577075e-06)
5(1.208155881e-06 1.320890988e-06 1.439101265e-06 1.550247213e-06 1.66897901e-06)
5(1.269360946e-06 1.386131716e-06 1.509906026e-06 1.626268903e-06 1.749618334e-06)
5(1.332902957e-06 1.45318243e-06 1.582929114e-06 1.700046394e-06 1.828512182e-06)
5(1.398076084e-06 1.521601618e-06 1.657946608e-06 1.776483414e-06 1.910379465e-06)
5(1.461862012e-06 1.589490321e-06 1.731636262e-06 1.853280896e-06 1.991357756e-06)
5(1.528193737e-06 1.658741854e-06 1.805159396e-06 1.930229277e-06 2.07301938e-06)
5(1.596408218e-06 1.728269982e-06 1.879704781e-06 2.008150064e-06 2.15536617e-06)
5(1.663788893e-06 1.801770016e-06 1.956969015e-06 2.087603579e-06 2.238104986e-06)
5(1.734301469e-06 1.874850349e-06 2.034823535e-06 2.167044427e-06 2.321138928e-06)
5(1.805805864e-06 1.949194835e-06 2.115118451e-06 2.25121899e-06 2.408757904e-06)
5(1.879754792e-06 2.026663559e-06 2.19735216e-06 2.33296118e-06 2.496381912e-06)
5(1.955987735e-06 2.10582765e-06 2.281473544e-06 2.420914565e-06 2.585158054e-06)
5(2.032748757e-06 2.185569852e-06 2.364807655e-06 2.513029665e-06 2.678504456e-06)
5(2.113351294e-06 2.268689732e-06 2.456073125e-06 2.603737084e-06 2.775599082e-06)
5(2.193732715e-06 2.354949367e-06 2.543419581e-06 2.696246116e-06 2.873042871e-06)
5(2.277260708e-06 2.444753388e-06 2.637093203e-06 2.792359004e-06 2.974244811e-06)
5(2.363496853e-06 2.533641583e-06 2.734392656e-06 2.893309187e-06 3.083446784e-06)
5(2.452702919e-06 2.625706701e-06 2.83309603e-06 2.997968614e-06 3.187757519e-06)
5(2.54266758e-06 2.722538185e-06 2.936762255e-06 3.107370078e-06 3.306827913e-06)
5(2.634732365e-06 2.822059834e-06 3.043105325e-06 3.220321659e-06 3.422425964e-06)
5(2.729010276e-06 2.923961053e-06 3.153663782e-06 3.337336137e-06 3.548861534e-06)
5(2.825249013e-06 3.028742352e-06 3.269755823e-06 3.460770201e-06 3.678593168e-06)
5(2.920765109e-06 3.137072739e-06 3.389481823e-06 3.589119275e-06 3.817223309e-06)
5(3.019080493e-06 3.246298537e-06 3.511659613e-06 3.723490509e-06 3.95677786e-06)
5(3.112097381e-06 3.358817101e-06 3.638264498e-06 3.863027101e-06 4.107627058e-06)
5(3.208116268e-06 3.472671885e-06 3.766522003e-06 4.011896862e-06 4.25896794e-06)
5(3.296840125e-06 3.585400879e-06 3.902181998e-06 4.160830943e-06 4.409530843e-06)
5(3.379894508e-06 3.703631683e-06 4.039868575e-06 4.310034007e-06 4.569855456e-06)
5(3.458931632e-06 3.812291122e-06 4.179699704e-06 4.46548212e-06 4.734196882e-06)
5(3.529966662e-06 3.929210914e-06 4.326874324e-06 4.622835513e-06 4.915926445e-06)
5(3.592338671e-06 4.027228529e-06 4.459961748e-06 4.783018343e-06 5.098790519e-06)
5(3.635025831e-06 4.127107323e-06 4.589809305e-06 4.949029786e-06 5.270478659e-06)
5(3.666483443e-06 4.22866849e-06 4.709924368e-06 5.115637319e-06 5.41919961e-06)
5(3.687887166e-06 4.303407472e-06 4.826148517e-06 5.27756667e-06 5.54304124e-06)
5(3.699612913e-06 4.364139155e-06 4.932577866e-06 5.418057026e-06 5.637358105e-06)
5(3.693432865e-06 4.40703524e-06 5.045586442e-06 5.526269074e-06 5.694001688e-06)
5(3.682183365e-06 4.445833685e-06 5.143367136e-06 5.595425748e-06 5.706061472e-06)
5(3.642525312e-06 4.473591851e-06 5.220669035e-06 5.620417611e-06 5.672646236e-06)
5(3.627866069e-06 4.503148447e-06 5.261250591e-06 5.594131341e-06 5.587863582e-06)
5(3.596785339e-06 4.52627495e-06 5.253091268e-06 5.511846108e-06 5.459523304e-06)
5(3.575665217e-06 4.523133088e-06 5.192692232e-06 5.375345676e-06 5.284610623e-06)
5(3.557810454e-06 4.47601071e-06 5.069945127e-06 5.183936181e-06 5.077936295e-06)
5(3.538311806e-06 4.382500666e-06 4.891414662e-06 4.948932035e-06 4.824646763e-06)
5(3.499865058e-06 4.217101195e-06 4.654537018e-06 4.663265504e-06 4.551012481e-06)
5(3.40978644e-06 4.002654702e-06 4.371636565e-06 4.343435253e-06 4.250282462e-06)
5(3.259246771e-06 3.731198901e-06 4.041439156e-06 3.997368204e-06 3.923103953e-06)
5(3.002596547e-06 3.37894749e-06 3.656182322e-06 3.605082012e-06 3.565375509e-06)
5(2.54908498e-06 2.88149788e-06 3.15023312e-06 3.141613241e-06 3.150998035e-06)
5(1.654568096e-06 1.239043355e-06 2.15439868e-06 2.046525744e-06 1.69520323e-06)
)


60
(
5(3.403596768e-07 4.176956684e-07 4.337068619e-07 5.188958615e-07 5.283871031e-07)
5(4.469768331e-07 5.128019059e-07 5.468654132e-07 6.185738882e-07 6.55836369e-07)
5(5.263434406e-07 5.876833758e-07 6.415146633e-07 7.050921806e-07 7.644828247e-07)
5(5.866353137e-07 6.47077611e-07 7.139303307e-07 7.774207126e-07 8.497497714e-07)
5(6.352504222e-07 7.010136982e-07 7.699231583e-07 8.402686164e-07 9.138250624e-07)
5(6.809679166e-07 7.541445077e-07 8.227151715e-07 9.013077152e-07 9.740940566e-07)
5(7.281924868e-07 8.076418327e-07 8.802085275e-07 9.620423451e-07 1.038984586e-06)
5(7.784260693e-07 8.605575939e-07 9.401448773e-07 1.024961032e-06 1.108692919e-06)
5(8.283553691e-07 9.132858737e-07 1.000089805e-06 1.086951021e-06 1.178984638e-06)
5(8.778811479e-07 9.652061029e-07 1.059147076e-06 1.148358971e-06 1.243966104e-06)
5(9.278978894e-07 1.01790436e-06 1.115485649e-06 1.207835269e-06 1.308383513e-06)
5(9.76644326e-07 1.070483143e-06 1.171976087e-06 1.268180577e-06 1.37216256e-06)
5(1.02511628e-06 1.122185584e-06 1.228942079e-06 1.327735524e-06 1.435836324e-06)
5(1.074413881e-06 1.175357352e-06 1.286488012e-06 1.388331516e-06 1.500572e-06)
5(1.125786751e-06 1.229018016e-06 1.344304183e-06 1.449308331e-06 1.565106441e-06)
5(1.178733777e-06 1.283619942e-06 1.40277012e-06 1.51079322e-06 1.630384215e-06)
5(1.229627459e-06 1.338911122e-06 1.462059115e-06 1.571897653e-06 1.69590339e-06)
5(1.282771354e-06 1.394787941e-06 1.523171985e-06 1.632864316e-06 1.763214785e-06)
5(1.336930898e-06 1.451666395e-06 1.582526519e-06 1.698015927e-06 1.830451556e-06)
5(1.391665562e-06 1.509414754e-06 1.645197276e-06 1.761967016e-06 1.898655479e-06)
5(1.449544747e-06 1.567880384e-06 1.708653291e-06 1.828229353e-06 1.968038818e-06)
5(1.505646772e-06 1.627890864e-06 1.774071086e-06 1.897045584e-06 2.03952781e-06)
5(1.564612757e-06 1.68892903e-06 1.838805475e-06 1.964748688e-06 2.113263076e-06)
5(1.623732849e-06 1.751894807e-06 1.906225288e-06 2.036226131e-06 2.188971596e-06)
5(1.686616801e-06 1.816855159e-06 1.975736263e-06 2.110060961e-06 2.267187902e-06)
5(1.747463002e-06 1.881289475e-06 2.047336682e-06 2.184880354e-06 2.348796747e-06)
5(1.811780123e-06 1.951924446e-06 2.121681435e-06 2.263471554e-06 2.432400538e-06)
5(1.878335763e-06 2.019143676e-06 2.196141817e-06 2.342470525e-06 2.520883238e-06)
5(1.942486735e-06 2.090455858e-06 2.275247942e-06 2.428582333e-06 2.610083615e-06)
5(2.008488046e-06 2.163718033e-06 2.354614115e-06 2.514444173e-06 2.705344648e-06)
5(2.075181238e-06 2.23647915e-06 2.436221495e-06 2.605782726e-06 2.803072225e-06)
5(2.143181343e-06 2.312960365e-06 2.522517536e-06 2.700662328e-06 2.904990248e-06)
5(2.209430162e-06 2.392434963e-06 2.609433502e-06 2.798856483e-06 3.017061128e-06)
5(2.274722053e-06 2.466428859e-06 2.699840195e-06 2.901287968e-06 3.131531823e-06)
5(2.337887587e-06 2.54517817e-06 2.794829466e-06 3.008985098e-06 3.252437059e-06)
5(2.404748233e-06 2.623643118e-06 2.888404531e-06 3.121187245e-06 3.377942313e-06)
5(2.460252712e-06 2.701739366e-06 2.984765764e-06 3.23682264e-06 3.508110742e-06)
5(2.511365525e-06 2.778046461e-06 3.083286107e-06 3.356040524e-06 3.639753719e-06)
5(2.557283964e-06 2.853037891e-06 3.184165548e-06 3.478151555e-06 3.782350793e-06)
5(2.596500301e-06 2.927394978e-06 3.286239597e-06 3.605349988e-06 3.933532425e-06)
5(2.630891853e-06 2.994542562e-06 3.383715273e-06 3.734764053e-06 4.092217436e-06)
5(2.645760423e-06 3.051779786e-06 3.481452576e-06 3.865462736e-06 4.255565134e-06)
5(2.652218835e-06 3.104988297e-06 3.571204658e-06 4.003683113e-06 4.420330273e-06)
5(2.646176147e-06 3.150425107e-06 3.656271737e-06 4.145033995e-06 4.576090838e-06)
5(2.627592982e-06 3.191599984e-06 3.737315426e-06 4.283822974e-06 4.714614186e-06)
5(2.605536148e-06 3.215328333e-06 3.815791788e-06 4.414992746e-06 4.834210253e-06)
5(2.574408517e-06 3.225347139e-06 3.895353421e-06 4.528535988e-06 4.929449138e-06)
5(2.543540423e-06 3.235201878e-06 3.971615014e-06 4.617171071e-06 4.993654781e-06)
5(2.506745328e-06 3.251588301e-06 4.040521573e-06 4.685339199e-06 5.020741112e-06)
5(2.471492781e-06 3.262679461e-06 4.094439446e-06 4.715255882e-06 5.001397604e-06)
5(2.444113803e-06 3.284261831e-06 4.122899528e-06 4.70310199e-06 4.936691901e-06)
5(2.426204794e-06 3.297743553e-06 4.116579773e-06 4.642692048e-06 4.826028123e-06)
5(2.41742811e-06 3.297494352e-06 4.07292356e-06 4.530231108e-06 4.672902236e-06)
5(2.410638294e-06 3.261824646e-06 3.985938227e-06 4.376887475e-06 4.48419486e-06)
5(2.394035326e-06 3.195417357e-06 3.848360129e-06 4.171109275e-06 4.252688143e-06)
5(2.352452221e-06 3.079873285e-06 3.662361723e-06 3.923002695e-06 3.991740442e-06)
5(2.266919329e-06 2.905654199e-06 3.428301995e-06 3.635225789e-06 3.695689114e-06)
5(2.108358654e-06 2.659576496e-06 3.122657669e-06 3.302313453e-06 3.367905858e-06)
5(1.85117541e-06 2.282684285e-06 2.6879429e-06 2.883576082e-06 2.973594515e-06)
5(1.470161093e-06 1.327659751e-06 1.809594992e-06 2.01516335e-06 1.430420055e-06)
)


60
(
5(3.076295795e-07 3.690324986e-07 3.954338011e-07 4.68368842e-07 4.84873726e-07)
5(3.96175649e-07 4.515864175e-07 4.883097431e-07 5.514544233e-07 5.896162933e-07)
5(4.62302052e-07 5.165390216e-07 5.661358611e-07 6.243960734e-07 6.785829687e-07)
5(5.12483929e-07 5.68239573e-07 6.276189105e-07 6.865634365e-07 7.497723629e-07)
5(5.555583817e-07 6.153346791e-07 6.783166818e-07 7.4190386e-07 8.084297799e-07)
5(5.965174068e-07 6.617057136e-07 7.258750988e-07 7.948344685e-07 8.63208636e-07)
5(6.383014838e-07 7.073393297e-07 7.75312071e-07 8.48455153e-07 9.202296868e-07)
5(6.808937058e-07 7.533434948e-07 8.269045732e-07 9.027207534e-07 9.796220688e-07)
5(7.247055005e-07 7.990723623e-07 8.777295361e-07 9.559031919e-07 1.038897629e-06)
5(7.674160585e-07 8.440670408e-07 9.282619556e-07 1.008159794e-06 1.095918191e-06)
5(8.093502048e-07 8.889157327e-07 9.770824043e-07 1.060206285e-06 1.151734988e-06)
5(8.518851367e-07 9.338961885e-07 1.026301821e-06 1.112343496e-06 1.206904384e-06)
5(8.94560268e-07 9.791111496e-07 1.075222407e-06 1.163664708e-06 1.261528666e-06)
5(9.376218979e-07 1.024690872e-06 1.124844002e-06 1.215347058e-06 1.318661379e-06)
5(9.803578992e-07 1.071138182e-06 1.174385366e-06 1.267970677e-06 1.373356191e-06)
5(1.024528643e-06 1.117316109e-06 1.224061571e-06 1.32106658e-06 1.430330674e-06)
5(1.069824741e-06 1.164471731e-06 1.274602174e-06 1.37302134e-06 1.486377064e-06)
5(1.113953247e-06 1.211886081e-06 1.326030943e-06 1.427785333e-06 1.543618858e-06)
5(1.160908168e-06 1.259761055e-06 1.377839162e-06 1.481501203e-06 1.602546285e-06)
5(1.20700246e-06 1.30885908e-06 1.431158681e-06 1.537513358e-06 1.660850053e-06)
5(1.254550531e-06 1.358936353e-06 1.483872009e-06 1.592992474e-06 1.721535197e-06)
5(1.303352957e-06 1.408535617e-06 1.539187765e-06 1.651099087e-06 1.784016308e-06)
5(1.352048111e-06 1.460345712e-06 1.594324085e-06 1.70907232e-06 1.847713965e-06)
5(1.400864145e-06 1.512884959e-06 1.652698447e-06 1.76913124e-06 1.913269374e-06)
5(1.451372183e-06 1.566789721e-06 1.709830084e-06 1.831164141e-06 1.978584775e-06)
5(1.502391413e-06 1.620215668e-06 1.768397809e-06 1.89519444e-06 2.048564579e-06)
5(1.553348423e-06 1.675334778e-06 1.828660125e-06 1.960689232e-06 2.121189545e-06)
5(1.606101591e-06 1.731296592e-06 1.891237271e-06 2.027604664e-06 2.193507038e-06)
5(1.658782356e-06 1.788184214e-06 1.955062553e-06 2.098541702e-06 2.274103857e-06)
5(1.710238948e-06 1.846512062e-06 2.019316077e-06 2.170356205e-06 2.352375442e-06)
5(1.762249303e-06 1.904178626e-06 2.08542691e-06 2.245219459e-06 2.437565298e-06)
5(1.812633239e-06 1.962294871e-06 2.156555976e-06 2.323156483e-06 2.523857468e-06)
5(1.861864623e-06 2.022155524e-06 2.223242318e-06 2.40360941e-06 2.616920651e-06)
5(1.911104105e-06 2.080616584e-06 2.293639852e-06 2.487377955e-06 2.711090227e-06)
5(1.955103077e-06 2.138602702e-06 2.36454973e-06 2.573885695e-06 2.81555827e-06)
5(1.996895618e-06 2.193888565e-06 2.436912674e-06 2.661100509e-06 2.919040793e-06)
5(2.032599314e-06 2.248575851e-06 2.512266491e-06 2.751818644e-06 3.028619511e-06)
5(2.063326916e-06 2.30102727e-06 2.582853916e-06 2.846672084e-06 3.144464315e-06)
5(2.087177444e-06 2.350351101e-06 2.65426919e-06 2.943896109e-06 3.261575809e-06)
5(2.103352205e-06 2.394702914e-06 2.724350338e-06 3.040883733e-06 3.392691887e-06)
5(2.10877095e-06 2.43194502e-06 2.791763236e-06 3.140297175e-06 3.525334412e-06)
5(2.106201786e-06 2.462354667e-06 2.857098129e-06 3.243848537e-06 3.668551752e-06)
5(2.090189017e-06 2.485630596e-06 2.917392014e-06 3.349544791e-06 3.814884558e-06)
5(2.067676524e-06 2.501836033e-06 2.971267013e-06 3.460497264e-06 3.957010716e-06)
5(2.037851972e-06 2.510272756e-06 3.018249208e-06 3.573134273e-06 4.091888751e-06)
5(2.004211634e-06 2.512492198e-06 3.068939083e-06 3.682133074e-06 4.21924473e-06)
5(1.969492803e-06 2.507163892e-06 3.115703185e-06 3.783008874e-06 4.330529182e-06)
5(1.930733606e-06 2.494185857e-06 3.162775239e-06 3.870367303e-06 4.424571332e-06)
5(1.904072681e-06 2.48255691e-06 3.216457713e-06 3.943363505e-06 4.490043817e-06)
5(1.861380327e-06 2.478032477e-06 3.25783533e-06 3.998634433e-06 4.524491791e-06)
5(1.833742443e-06 2.483886133e-06 3.290832345e-06 4.027722479e-06 4.509936609e-06)
5(1.812542489e-06 2.49218874e-06 3.311847179e-06 4.021996041e-06 4.464459875e-06)
5(1.794025953e-06 2.493643731e-06 3.30932915e-06 3.97885283e-06 4.367338842e-06)
5(1.774560697e-06 2.484289695e-06 3.27952454e-06 3.889962061e-06 4.225415668e-06)
5(1.759283536e-06 2.461210241e-06 3.214894797e-06 3.760267563e-06 4.038270849e-06)
5(1.725385603e-06 2.399694672e-06 3.104002718e-06 3.58224244e-06 3.807733162e-06)
5(1.673283275e-06 2.289013733e-06 2.9268182e-06 3.346491714e-06 3.545421073e-06)
5(1.577524607e-06 2.120514862e-06 2.676411331e-06 3.061033733e-06 3.23821802e-06)
5(1.441242387e-06 1.857659514e-06 2.273161838e-06 2.641557294e-06 2.84788469e-06)
5(1.210613125e-06 1.618593741e-06 1.700757924e-06 1.701079377e-06 1.794501254e-06)
)


60
(
5(2.848977319e-07 3.369010265e-07 3.683469735e-07 4.33431131e-07 4.531825249e-07)
5(3.632547258e-07 4.116757872e-07 4.492326691e-07 5.068361757e-07 5.444267713e-07)
5(4.21617663e-07 4.705963566e-07 5.175814814e-07 5.714850262e-07 6.220167762e-07)
5(4.661177735e-07 5.1789622e-07 5.72784194e-07 6.275557692e-07 6.855856917e-07)
5(5.054137632e-07 5.606662304e-07 6.192402944e-07 6.77797031e-07 7.390842408e-07)
5(5.430550781e-07 6.021455315e-07 6.629953839e-07 7.26149607e-07 7.895227859e-07)
5(5.813513355e-07 6.437502796e-07 7.075257575e-07 7.743532819e-07 8.418054701e-07)
5(6.197302605e-07 6.850432033e-07 7.538067461e-07 8.227166139e-07 8.94213621e-07)
5(6.588199683e-07 7.258837845e-07 7.99119564e-07 8.705452891e-07 9.471549657e-07)
5(6.969901439e-07 7.671041753e-07 8.442961046e-07 9.176674994e-07 9.982775478e-07)
5(7.349156697e-07 8.068203934e-07 8.87776555e-07 9.640465133e-07 1.048240518e-06)
5(7.727296438e-07 8.476650929e-07 9.319707008e-07 1.010079569e-06 1.097572399e-06)
5(8.110587407e-07 8.881169915e-07 9.750962825e-07 1.056438542e-06 1.147213555e-06)
5(8.506467201e-07 9.289038475e-07 1.019877436e-06 1.102755871e-06 1.196787634e-06)
5(8.888798537e-07 9.697827139e-07 1.063757736e-06 1.149372279e-06 1.247191647e-06)
5(9.279641523e-07 1.011093465e-06 1.109379882e-06 1.196229444e-06 1.297836678e-06)
5(9.676966779e-07 1.052816841e-06 1.153377278e-06 1.243064427e-06 1.347988245e-06)
5(1.008311638e-06 1.094926465e-06 1.198216552e-06 1.292321678e-06 1.399239286e-06)
5(1.048741264e-06 1.137488634e-06 1.244668704e-06 1.338773206e-06 1.450742819e-06)
5(1.090179962e-06 1.180682526e-06 1.290657436e-06 1.388152463e-06 1.503676497e-06)
5(1.131772562e-06 1.224947312e-06 1.337737839e-06 1.437452228e-06 1.556791043e-06)
5(1.17374339e-06 1.268255336e-06 1.385236199e-06 1.487551353e-06 1.611900119e-06)
5(1.217318358e-06 1.313593425e-06 1.434312234e-06 1.539630736e-06 1.667873237e-06)
5(1.260677098e-06 1.35909833e-06 1.483357898e-06 1.592128047e-06 1.724719184e-06)
5(1.303135507e-06 1.404754441e-06 1.53273514e-06 1.645993264e-06 1.783109107e-06)
5(1.348183636e-06 1.452542516e-06 1.584047179e-06 1.700629651e-06 1.844738533e-06)
5(1.391165341e-06 1.49827779e-06 1.635704447e-06 1.75679821e-06 1.905896687e-06)
5(1.436049493e-06 1.545746354e-06 1.688511409e-06 1.815028712e-06 1.969698999e-06)
5(1.478645566e-06 1.594311253e-06 1.74138132e-06 1.873625393e-06 2.037253137e-06)
5(1.522339642e-06 1.642301692e-06 1.795248221e-06 1.934515131e-06 2.105364129e-06)
5(1.562570884e-06 1.688424169e-06 1.849924162e-06 1.996628154e-06 2.178053588e-06)
5(1.604070688e-06 1.735420204e-06 1.906039037e-06 2.061339723e-06 2.253580225e-06)
5(1.642476006e-06 1.781257415e-06 1.961987734e-06 2.126202263e-06 2.329448579e-06)
5(1.677120269e-06 1.827258233e-06 2.016048619e-06 2.19404421e-06 2.409163626e-06)
5(1.709907771e-06 1.870289191e-06 2.071593638e-06 2.263463645e-06 2.494476622e-06)
5(1.737732395e-06 1.910426292e-06 2.125477286e-06 2.333562553e-06 2.582485766e-06)
5(1.758621184e-06 1.950005774e-06 2.180690414e-06 2.405225224e-06 2.67176507e-06)
5(1.774072495e-06 1.98426886e-06 2.23277154e-06 2.478142077e-06 2.766117719e-06)
5(1.781102042e-06 2.012654104e-06 2.283051384e-06 2.551645939e-06 2.863772706e-06)
5(1.779303364e-06 2.036483327e-06 2.330893199e-06 2.623225762e-06 2.96622016e-06)
5(1.769810723e-06 2.053058599e-06 2.374178205e-06 2.697657007e-06 3.07836724e-06)
5(1.75175152e-06 2.063531624e-06 2.412892968e-06 2.773102295e-06 3.196142019e-06)
5(1.726710881e-06 2.066924409e-06 2.447824841e-06 2.8512972e-06 3.313790402e-06)
5(1.694800439e-06 2.06299416e-06 2.476126208e-06 2.930673104e-06 3.434035101e-06)
5(1.661596473e-06 2.052896486e-06 2.501445512e-06 3.011499762e-06 3.549125984e-06)
5(1.622104322e-06 2.036252147e-06 2.51890713e-06 3.091651548e-06 3.66529044e-06)
5(1.588250388e-06 2.012328388e-06 2.537593433e-06 3.166585781e-06 3.768781677e-06)
5(1.55339237e-06 1.985585738e-06 2.55987827e-06 3.238001424e-06 3.863683459e-06)
5(1.521848559e-06 1.961726401e-06 2.581727406e-06 3.297836189e-06 3.94295206e-06)
5(1.490428723e-06 1.940939592e-06 2.596078853e-06 3.347743888e-06 4.004223677e-06)
5(1.46157231e-06 1.928956512e-06 2.610054759e-06 3.386062816e-06 4.035028498e-06)
5(1.429115448e-06 1.920671989e-06 2.622010228e-06 3.409602016e-06 4.033238705e-06)
5(1.405440312e-06 1.906097068e-06 2.623178943e-06 3.404818558e-06 3.993452457e-06)