/*--------------------------------*- C++ -*----------------------------------*\
| =========                 |                                                 |
| \\      /  F ield         | OpenFOAM: The Open Source CFD Toolbox           |
|  \\    /   O peration     | Version:  2.3.1                                 |
|   \\  /    A nd           | Web:      www.OpenFOAM.org                      |
|    \\/     M anipulation  |                                                 |
\*---------------------------------------------------------------------------*/
FoamFile
{
    version     2.0;
    format      ascii;
    class       dictionary;
    location    "constant";
    object      DPSI59;
}
// * * * * * * * * * * * * * * * * * * * * * * * * * * * * * * * * * * * * * //

DPSI59_table
60
(

60
(
5(5.612005172e-16 1.284787004e-16 -1.987914665e-17 1.163625562e-16 -3.15182767e-17)
5(1.995739058e-16 3.662490147e-17 -2.805227769e-17 3.211975834e-17 -3.032758784e-18)
5(-3.351864781e-17 -1.770157468e-17 9.184266678e-18 1.700532026e-17 1.530980296e-17)
5(-4.132607707e-17 -1.606285156e-17 2.37882851e-17 1.041874103e-17 -9.588648823e-18)
5(-3.985314163e-17 -2.327948379e-17 1.314468572e-17 1.929607138e-17 9.952049191e-18)
5(-6.048246329e-18 8.564466472e-18 6.568251856e-18 1.943702055e-18 1.300644368e-17)
5(5.436588473e-17 3.064129586e-17 8.671741313e-18 -1.237918223e-18 -1.464353039e-17)
5(5.400210635e-19 -5.965283763e-18 6.386696651e-18 1.900644935e-17 1.228913476e-17)
5(2.000366424e-17 1.205721748e-17 7.485461094e-18 9.594476418e-18 7.381504194e-18)
5(8.10490013e-19 3.008619832e-19 1.084535448e-17 1.292716382e-17 3.687682535e-18)
5(8.599202039e-18 4.738658669e-18 9.984368377e-18 1.153069977e-17 3.487588376e-18)
5(2.106880146e-17 1.26691605e-17 8.248462395e-18 8.807635111e-18 4.558953118e-18)
5(7.208064337e-18 6.147262741e-18 6.98485091e-18 7.08738896e-18 4.860131142e-18)
5(1.443586327e-17 9.631257409e-18 7.733595869e-18 7.036641193e-18 2.871160787e-18)
5(8.570997316e-18 6.265003933e-18 5.478939437e-18 5.475586477e-18 3.585230847e-18)
5(7.367715605e-18 6.585960189e-18 6.525005699e-18 5.479843119e-18 3.393287968e-18)
5(7.259431538e-18 5.836696269e-18 5.641931815e-18 4.794068366e-18 2.431686869e-18)
5(5.6795331e-18 5.07675318e-18 4.425774738e-18 3.307703991e-18 2.034327498e-18)
5(4.411580797e-18 3.598118896e-18 3.201407018e-18 2.529865154e-18 1.288073794e-18)
5(4.749942136e-18 3.284440201e-18 2.321956086e-18 2.173245562e-18 1.373635159e-18)
5(3.907586713e-18 2.728857142e-18 1.734418848e-18 1.568249837e-18 1.107034728e-18)
5(3.275364076e-18 2.089778936e-18 1.460485212e-18 1.347996504e-18 5.873090118e-19)
5(2.89278242e-18 1.90136204e-18 1.107453358e-18 9.452937782e-19 5.119124107e-19)
5(1.847114586e-18 1.420506102e-18 9.647046576e-19 6.900049426e-19 3.975302026e-19)
5(1.433043587e-18 1.211178186e-18 8.576017072e-19 5.516878492e-19 3.436213256e-19)
5(8.095906014e-19 9.259126202e-19 8.468920342e-19 5.150677853e-19 3.605508017e-19)
5(6.884957434e-19 8.008513635e-19 6.971096597e-19 4.382328778e-19 3.819809812e-19)
5(7.740974892e-19 6.708856708e-19 5.441716852e-19 4.956142041e-19 4.539823156e-19)
5(7.812827388e-19 7.84403465e-19 6.792447849e-19 5.637049616e-19 5.416080644e-19)
5(6.686761998e-19 9.090553583e-19 9.705569554e-19 7.308463892e-19 6.581891916e-19)
5(7.633903685e-19 1.149483898e-18 1.333716693e-18 1.069927095e-18 9.954574487e-19)
5(1.08055029e-18 1.66004402e-18 1.946133686e-18 1.503461867e-18 1.33694452e-18)
5(1.310598149e-18 2.252191968e-18 2.858032829e-18 2.074350165e-18 1.606894773e-18)
5(1.93964169e-18 3.209495253e-18 4.31449202e-18 3.293830394e-18 2.405671113e-18)
5(3.745938858e-18 5.054143182e-18 5.938552154e-18 4.277914675e-18 2.983406269e-18)
5(4.970505462e-18 6.632028277e-18 8.630410498e-18 6.328962403e-18 3.606019729e-18)
5(1.071527595e-17 1.149095733e-17 1.029584963e-17 5.824638208e-18 3.180199055e-18)
5(1.417496553e-17 1.555815234e-17 1.303696136e-17 6.547872914e-18 3.783609389e-18)
5(2.153705577e-17 1.971711997e-17 1.429603966e-17 6.711030452e-18 2.446545605e-18)
5(2.999407693e-17 2.41121667e-17 1.446780112e-17 6.56647697e-18 2.027727089e-18)
5(3.583825151e-17 2.662165465e-17 1.18514897e-17 3.8778903e-18 1.017792357e-18)
5(3.440068263e-17 2.432443515e-17 8.838792499e-18 2.173553326e-18 5.112379447e-19)
5(3.147589273e-17 2.013872112e-17 5.064112926e-18 8.482986956e-19 -1.026365224e-49)
5(2.331200478e-17 1.391531467e-17 2.872848492e-18 7.376718552e-19 -3.61873587e-20)
5(1.503210882e-17 8.492961106e-18 1.084867245e-18 1.990427249e-19 -3.674602913e-21)
5(6.774858949e-18 3.796618705e-18 3.809345357e-19 1.497464253e-20 -1.0942151e-47)
5(2.471237124e-18 1.325644551e-18 7.155978118e-20 3.833090777e-21 1.301591883e-20)
5(1.10655457e-18 5.598609201e-19 2.122232055e-21 2.0362412e-21 -1.953084065e-46)
5(1.394935479e-19 7.038117273e-20 2.995350575e-22 5.139870484e-22 -7.962309955e-46)
5(1.671623115e-20 8.424521151e-21 6.807067518e-24 -1.658104833e-45 -2.910370053e-45)
5(2.01229188e-21 1.014662577e-21 -8.574449343e-46 -5.882367306e-45 -1.028318283e-44)
5(2.254261526e-22 1.14228579e-22 -2.992264628e-45 -2.030244653e-44 -3.545330413e-44)
5(7.116294435e-26 3.612624786e-26 -1.005989548e-44 -6.675286023e-44 -1.162198691e-43)
5(-7.372978e-46 -3.591255202e-45 -3.208203975e-44 -2.128258087e-43 -3.708831908e-43)
5(-2.406495757e-45 -1.158474864e-44 -1.005418063e-43 -6.489608037e-43 -1.126548306e-42)
5(1.499322074e-47 -3.226420738e-44 -2.975786292e-43 -1.896008775e-42 -3.287965659e-42)
5(1.145008052e-44 -9.159617374e-44 -8.494361827e-43 -5.142847768e-42 -8.851978061e-42)
5(-1.430739187e-43 -2.956671069e-43 -2.243683577e-42 -1.3291718e-41 -2.271538666e-41)
5(-4.470970724e-43 -1.494713978e-42 -3.537799045e-42 -3.122793454e-41 -5.860406695e-41)
5(-1.046390106e-42 -2.200932244e-41 -4.1428355e-41 -1.625525618e-40 -2.876586007e-40)
)


60
(
5(2.09115023e-15 7.870009032e-16 1.265882813e-16 4.739934224e-16 1.379901059e-16)
5(9.557661014e-16 5.463444523e-16 2.283737249e-16 2.642843427e-16 1.616893365e-16)
5(5.334171901e-16 4.599859622e-16 2.912635634e-16 2.117442875e-16 1.812760185e-16)
5(4.836487123e-16 4.819391842e-16 3.42594935e-16 2.250102233e-16 2.000301029e-16)
5(7.409403353e-16 6.220431267e-16 3.959390248e-16 2.780839258e-16 2.180445171e-16)
5(1.040500051e-15 7.781543486e-16 4.423516673e-16 3.291302796e-16 2.365428788e-16)
5(1.266559355e-15 8.963670277e-16 4.764555358e-16 3.617939986e-16 2.411951105e-16)
5(1.379796919e-15 9.810311407e-16 5.065640939e-16 3.649610253e-16 2.428698048e-16)
5(1.427481457e-15 1.03788456e-15 5.358151466e-16 3.613276429e-16 2.443789049e-16)
5(1.401775743e-15 1.038273009e-15 5.49941941e-16 3.580699885e-16 2.398960744e-16)
5(1.571269328e-15 1.123829353e-15 5.515535472e-16 3.561856382e-16 2.331777633e-16)
5(1.57096707e-15 1.126931521e-15 5.534745064e-16 3.486251462e-16 2.241702864e-16)
5(1.627803866e-15 1.150575221e-15 5.439625138e-16 3.365153989e-16 2.110106161e-16)
5(1.647261657e-15 1.15567584e-15 5.316826986e-16 3.192521028e-16 1.939308986e-16)
5(1.644478708e-15 1.146605851e-15 5.130512647e-16 2.982277427e-16 1.762991567e-16)
5(1.598076277e-15 1.108656638e-15 4.840080887e-16 2.729422139e-16 1.576120423e-16)
5(1.585778115e-15 1.085632631e-15 4.500974122e-16 2.448348266e-16 1.377325136e-16)
5(1.540357208e-15 1.041481783e-15 4.11256745e-16 2.164758146e-16 1.185247121e-16)
5(1.45282869e-15 9.769752692e-16 3.731372573e-16 1.883028471e-16 1.003063427e-16)
5(1.365165801e-15 9.091159184e-16 3.320031685e-16 1.611847936e-16 8.330086634e-17)
5(1.259545548e-15 8.303989585e-16 2.888584241e-16 1.345005807e-16 6.754259812e-17)
5(1.156877834e-15 7.523252475e-16 2.460316029e-16 1.097308343e-16 5.296458291e-17)
5(1.04834074e-15 6.729396407e-16 2.064573694e-16 8.784484203e-17 4.084373294e-17)
5(8.981897448e-16 5.722313757e-16 1.678237479e-16 6.819581712e-17 3.086601125e-17)
5(7.719315641e-16 4.865048656e-16 1.344423656e-16 5.211546424e-17 2.293657182e-17)
5(6.437989606e-16 4.016297715e-16 1.04436069e-16 3.855825958e-17 1.677502562e-17)
5(5.246095105e-16 3.239565528e-16 7.925912187e-17 2.806262725e-17 1.224454217e-17)
5(4.256698578e-16 2.588742599e-16 5.823380304e-17 2.026546606e-17 9.256210285e-18)
5(3.342323688e-16 2.005575018e-16 4.171469397e-17 1.470093183e-17 7.562450882e-18)
5(2.539365324e-16 1.50889102e-16 2.960432557e-17 1.113123382e-17 6.968383446e-18)
5(1.874453974e-16 1.105390122e-16 2.092686233e-17 9.286120238e-18 7.522907647e-18)
5(1.347213075e-16 7.914293956e-17 1.526800617e-17 9.087022736e-18 9.223714341e-18)
5(9.348853902e-17 5.531181642e-17 1.227865414e-17 1.047758883e-17 1.220849415e-17)
5(6.090881703e-17 3.732882117e-17 1.174347842e-17 1.380498057e-17 1.706027204e-17)
5(3.789158865e-17 2.5521102e-17 1.386994679e-17 1.94170355e-17 2.379273512e-17)
5(2.152000979e-17 1.854538665e-17 1.90069408e-17 2.766049911e-17 3.268659867e-17)
5(1.445636405e-17 1.805577983e-17 2.764622675e-17 3.856245356e-17 4.343117769e-17)
5(1.467629775e-17 2.331943442e-17 4.009577064e-17 5.14898787e-17 5.473711914e-17)
5(2.409310727e-17 3.513296322e-17 5.541564294e-17 6.500411035e-17 6.527120476e-17)
5(4.199959044e-17 5.287985456e-17 7.193946361e-17 7.657700327e-17 7.280362573e-17)
5(6.650842148e-17 7.373325145e-17 8.553411064e-17 8.238410309e-17 7.42005764e-17)
5(9.126216437e-17 9.236388198e-17 9.264700425e-17 7.959433688e-17 6.666581579e-17)
5(1.107596829e-16 1.034307842e-16 8.970082847e-17 6.749290152e-17 5.079246746e-17)
5(1.174986183e-16 1.019995009e-16 7.606605692e-17 4.94024443e-17 3.220005304e-17)
5(1.070657125e-16 8.750025464e-17 5.578888846e-17 3.048262533e-17 1.641806054e-17)
5(8.341873113e-17 6.444051307e-17 3.453628183e-17 1.546410733e-17 6.601171916e-18)
5(5.475277703e-17 4.003290633e-17 1.756031634e-17 6.163950692e-18 2.039885473e-18)
5(2.927934474e-17 2.025643267e-17 7.123383684e-18 1.870462362e-18 4.626561675e-19)
5(1.268234363e-17 8.249713682e-18 2.225337645e-18 4.139496159e-19 7.392609158e-20)
5(4.000870445e-18 2.45574595e-18 4.976663196e-19 6.627585251e-20 7.697417579e-21)
5(9.404560116e-19 5.453832552e-19 7.661736924e-20 6.734896342e-21 5.734301505e-22)
5(1.30010617e-19 7.28449998e-20 7.559975655e-21 4.553363138e-22 3.057544873e-23)
5(1.329726251e-20 7.172479366e-21 4.673338335e-22 2.175266376e-23 1.275721393e-24)
5(5.860060695e-22 3.109611163e-22 1.498608552e-23 5.894232648e-25 4.905122305e-26)
5(1.647768922e-23 6.94139894e-24 -2.164633413e-24 1.014898792e-26 1.538240328e-24)
5(4.263189229e-22 1.953042953e-25 -4.373348881e-22 -1.457084084e-25 4.463858756e-22)
5(4.125765604e-20 2.707556915e-23 -7.992319724e-20 -6.171792963e-23 1.198883862e-19)
5(-2.048976253e-18 -8.306898836e-22 -1.220284207e-17 -1.107616196e-20 2.705494006e-17)
5(7.172543258e-17 1.369854739e-19 -1.78241601e-17 -9.757632708e-20 -3.879771714e-17)
5(-2.192529386e-41 3.624842031e-42 -1.795762749e-40 -7.370731771e-40 -1.093553634e-39)
)


60
(
5(5.991728324e-15 2.725252315e-15 6.561121121e-16 1.259247818e-15 5.390790384e-16)
5(4.271775475e-15 2.718707647e-15 1.13149362e-15 9.390436022e-16 5.908142762e-16)
5(3.506473184e-15 2.783031126e-15 1.493104395e-15 8.958083462e-16 6.550162535e-16)
5(3.90543221e-15 3.20565116e-15 1.784135503e-15 1.00855334e-15 7.312624335e-16)
5(5.059646397e-15 3.927427989e-15 2.075689551e-15 1.206663398e-15 8.179267211e-16)
5(6.737575012e-15 4.910855459e-15 2.370138032e-15 1.406932991e-15 8.934913899e-16)
5(8.077937e-15 5.743673169e-15 2.628120049e-15 1.534240607e-15 9.393874182e-16)
5(8.984751745e-15 6.354027856e-15 2.826326239e-15 1.594200118e-15 9.666798586e-16)
5(9.430045429e-15 6.713770879e-15 2.978931334e-15 1.612208552e-15 9.737254054e-16)
5(1.010201418e-14 7.151126835e-15 3.099440923e-15 1.631784903e-15 9.72774179e-16)
5(1.096689608e-14 7.66242832e-15 3.181259427e-15 1.627320838e-15 9.533700589e-16)
5(1.165735619e-14 8.058407388e-15 3.231292356e-15 1.610159504e-15 9.207144409e-16)
5(1.20189964e-14 8.231376167e-15 3.206029834e-15 1.565851264e-15 8.738634681e-16)
5(1.245702458e-14 8.41957845e-15 3.136489649e-15 1.495533202e-15 8.146109549e-16)
5(1.255971307e-14 8.429132066e-15 3.036958393e-15 1.399914572e-15 7.495409954e-16)
5(1.284531976e-14 8.496569477e-15 2.8962272e-15 1.295096382e-15 6.758215172e-16)
5(1.252219761e-14 8.244589569e-15 2.734741506e-15 1.176531056e-15 5.981420062e-16)
5(1.233227506e-14 8.020257713e-15 2.529167014e-15 1.055177859e-15 5.202795452e-16)
5(1.201555327e-14 7.719542505e-15 2.300386476e-15 9.249709439e-16 4.465611175e-16)
5(1.148634978e-14 7.296985565e-15 2.05876902e-15 7.981193902e-16 3.765696068e-16)
5(1.117001111e-14 6.977504139e-15 1.812395647e-15 6.753563532e-16 3.121208319e-16)
5(1.016337068e-14 6.297355064e-15 1.562160448e-15 5.602868519e-16 2.51374483e-16)
5(9.482249215e-15 5.789771556e-15 1.323347587e-15 4.536595144e-16 1.971758235e-16)
5(8.516681946e-15 5.143361794e-15 1.097532662e-15 3.591472532e-16 1.520972123e-16)
5(7.737723507e-15 4.604529402e-15 8.928554986e-16 2.775318242e-16 1.148884173e-16)
5(6.724677538e-15 3.959067275e-15 7.110272033e-16 2.099363e-16 8.406536441e-17)
5(5.826956372e-15 3.390263539e-15 5.551870973e-16 1.544188081e-16 6.086502808e-17)
5(5.130365162e-15 2.93583203e-15 4.206525947e-16 1.110784172e-16 4.287113398e-17)
5(4.206140587e-15 2.386425887e-15 3.144807059e-16 7.82550325e-17 3.046923171e-17)
5(3.516939803e-15 1.972344765e-15 2.304037178e-16 5.367357196e-17 2.175135315e-17)
5(2.849048649e-15 1.580105728e-15 1.630172725e-16 3.676008748e-17 1.667238171e-17)
5(2.282856002e-15 1.254025766e-15 1.147290499e-16 2.584163841e-17 1.428286426e-17)
5(1.761698292e-15 9.618623401e-16 8.086803743e-17 1.971310588e-17 1.459830972e-17)
5(1.336470649e-15 7.242267757e-16 5.54893099e-17 1.743639028e-17 1.710084508e-17)
5(9.771038119e-16 5.268312583e-16 3.944589574e-17 1.935251447e-17 2.28881592e-17)
5(7.538602416e-16 4.035403729e-16 3.073223048e-17 2.534832468e-17 3.220753384e-17)
5(4.900490859e-16 2.642715825e-16 2.935762577e-17 3.578921349e-17 4.488989842e-17)
5(3.184777008e-16 1.761993596e-16 3.53147325e-17 5.107107337e-17 6.140609949e-17)
5(1.987956298e-16 1.192363351e-16 4.876025576e-17 7.036666268e-17 8.058080571e-17)
5(1.297325607e-16 9.21702099e-17 6.847897178e-17 9.175046666e-17 9.988706979e-17)
5(1.05929518e-16 9.122707228e-17 9.107017357e-17 1.10430381e-16 1.144442226e-16)
5(1.007795202e-16 1.005427629e-16 1.113389869e-16 1.205873057e-16 1.182185433e-16)
5(1.175242744e-16 1.180913982e-16 1.227029309e-16 1.171383175e-16 1.068469001e-16)
5(1.336151734e-16 1.289273647e-16 1.203950766e-16 1.001783482e-16 8.295566993e-17)
5(1.3957657e-16 1.268988363e-16 1.031986538e-16 7.387072399e-17 5.459813274e-17)
5(1.270753418e-16 1.088138149e-16 7.595573554e-17 4.615269946e-17 3.000163003e-17)
5(9.928328195e-17 8.034402092e-17 4.734512144e-17 2.36128078e-17 1.315665891e-17)
5(6.522448781e-17 4.96501853e-17 2.41997796e-17 9.718803495e-18 4.564634546e-18)
5(3.508501457e-17 2.509394211e-17 9.852664154e-18 3.064325125e-18 1.212264092e-18)
5(1.494788527e-17 1.00022852e-17 3.071015412e-18 7.265204803e-19 2.226435418e-19)
5(4.819415141e-18 3.018893081e-18 6.902100711e-19 1.213722947e-19 2.991383386e-20)
5(1.049227399e-18 6.223825153e-19 1.036663362e-19 1.311892641e-20 2.540613348e-21)
5(1.413123379e-19 8.055582321e-20 9.891292081e-21 9.132271093e-22 1.452812348e-22)
5(9.582733298e-21 5.357656064e-21 5.393784582e-22 3.51112949e-23 4.576589662e-24)
5(5.415008685e-22 2.192878422e-22 -1.302217166e-23 9.898038693e-25 -8.551123083e-23)
5(2.870605962e-20 -2.638212676e-23 -5.496927729e-21 5.31130056e-23 -1.882178726e-20)
5(7.078661123e-18 -7.892819431e-21 -1.391515328e-18 1.334939174e-20 -4.576664481e-18)
5(2.191895814e-15 -1.755560146e-18 -4.920034859e-16 3.252002235e-18 -1.294630576e-15)
5(9.461169166e-13 3.663461888e-16 -2.712322714e-13 1.481135644e-16 -4.397432197e-13)
5(1.473015901e-38 7.769989909e-39 -1.13117877e-39 -3.714599591e-39 -4.605677912e-39)
)


60
(
5(1.39226496e-14 7.025149789e-15 1.933755858e-15 2.638832289e-15 1.279455748e-15)
5(1.279792013e-14 8.440941905e-15 3.423280341e-15 2.33946488e-15 1.44173569e-15)
5(1.296091008e-14 9.752597897e-15 4.603586944e-15 2.440506086e-15 1.632490348e-15)
5(1.499628599e-14 1.147488839e-14 5.536982445e-15 2.803803652e-15 1.847272165e-15)
5(1.940166795e-14 1.422071816e-14 6.459711442e-15 3.325012732e-15 2.064937711e-15)
5(2.508604825e-14 1.765089415e-14 7.409108331e-15 3.82013443e-15 2.251477486e-15)
5(3.00003913e-14 2.064290061e-14 8.172953296e-15 4.149678219e-15 2.385844009e-15)
5(3.341801152e-14 2.289047259e-14 8.831832588e-15 4.333798793e-15 2.472600171e-15)
5(3.675566025e-14 2.506667688e-14 9.393083924e-15 4.423449429e-15 2.505359791e-15)
5(4.013904458e-14 2.709110189e-14 9.769890644e-15 4.485114348e-15 2.506631522e-15)
5(4.301372469e-14 2.879163086e-14 1.006246477e-14 4.505638624e-15 2.472344147e-15)
5(4.651822802e-14 3.069013026e-14 1.019023332e-14 4.468548969e-15 2.405730436e-15)
5(4.962572199e-14 3.231760374e-14 1.019514773e-14 4.355237393e-15 2.295600707e-15)
5(5.148844461e-14 3.32216208e-14 1.005295561e-14 4.165003802e-15 2.146886848e-15)
5(5.236624541e-14 3.356229128e-14 9.793355146e-15 3.917168056e-15 1.994212794e-15)
5(5.361968072e-14 3.398391396e-14 9.394265145e-15 3.629562262e-15 1.815566844e-15)
5(5.500026984e-14 3.437370277e-14 8.878374219e-15 3.316113559e-15 1.622059758e-15)
5(5.445217928e-14 3.371763263e-14 8.280799569e-15 2.986214644e-15 1.430287619e-15)
5(5.489763506e-14 3.350580006e-14 7.606709166e-15 2.644174113e-15 1.238518053e-15)
5(5.368887789e-14 3.24413855e-14 6.920154524e-15 2.307199145e-15 1.058806608e-15)
5(5.238311595e-14 3.13021603e-14 6.2026902e-15 1.969755963e-15 8.859173867e-16)
5(5.110361159e-14 3.012461763e-14 5.449703575e-15 1.658092244e-15 7.270800445e-16)
5(4.911120303e-14 2.861783001e-14 4.744979836e-15 1.368410843e-15 5.814621711e-16)
5(4.547813076e-14 2.629938195e-14 4.08011976e-15 1.107723778e-15 4.571472134e-16)
5(4.234692093e-14 2.42623878e-14 3.460015038e-15 8.775681569e-16 3.54331512e-16)
5(3.944358123e-14 2.236112124e-14 2.88302212e-15 6.803263618e-16 2.676089914e-16)
5(3.599874076e-14 2.023854012e-14 2.384964137e-15 5.166742854e-16 1.966288216e-16)
5(3.297972601e-14 1.83652626e-14 1.943778293e-15 3.863925835e-16 1.426341301e-16)
5(2.909012768e-14 1.60938705e-14 1.5659637e-15 2.82259447e-16 1.008848056e-16)
5(2.537083483e-14 1.395734577e-14 1.254477359e-15 2.025202753e-16 7.065922782e-17)
5(2.200714206e-14 1.203478849e-14 9.922461692e-16 1.436235915e-16 4.899109988e-17)
5(1.860520311e-14 1.013051486e-14 7.806166873e-16 1.0201469e-16 3.492951207e-17)
5(1.525058874e-14 8.279357e-15 6.059554852e-16 7.131916418e-17 2.585337157e-17)
5(1.250092277e-14 6.757320991e-15 4.604499849e-16 5.073433981e-17 2.18747716e-17)
5(9.644123551e-15 5.208344314e-15 3.481301177e-16 3.816643526e-17 2.167882008e-17)
5(7.368038087e-15 3.965654687e-15 2.521465341e-16 3.341786685e-17 2.700783897e-17)
5(5.450946451e-15 2.927933191e-15 1.837491734e-16 3.583165125e-17 3.702029087e-17)
5(3.750948697e-15 2.016733827e-15 1.356106973e-16 4.513303936e-17 5.27562148e-17)
5(2.562843488e-15 1.378253109e-15 1.055810582e-16 6.260956878e-17 7.48716894e-17)
5(1.620462157e-15 8.800063666e-16 9.557801541e-17 8.675613806e-17 1.016101765e-16)
5(9.175585334e-16 5.162802409e-16 1.014296671e-16 1.141287736e-16 1.294060327e-16)
5(5.549136651e-16 3.356390887e-16 1.183680161e-16 1.369926518e-16 1.474314459e-16)
5(3.253404128e-16 2.28588967e-16 1.375863453e-16 1.480779194e-16 1.497405533e-16)
5(2.257387657e-16 1.866205033e-16 1.485371523e-16 1.420258678e-16 1.32770222e-16)
5(1.885412492e-16 1.699359085e-16 1.433136677e-16 1.195089316e-16 1.024944557e-16)
5(1.742967174e-16 1.560139732e-16 1.210470325e-16 8.669379019e-17 6.787244452e-17)
5(1.52581827e-16 1.310065485e-16 8.819104776e-17 5.279285419e-17 3.755764296e-17)
5(1.190524538e-16 9.566913494e-17 5.406230163e-17 2.677741113e-17 1.677151774e-17)
5(7.857390596e-17 5.888015156e-17 2.70730977e-17 1.074214421e-17 5.831583052e-18)
5(4.291147446e-17 2.996250116e-17 1.079704949e-17 3.24477671e-18 1.493110157e-18)
5(1.862497352e-17 1.206953338e-17 3.247654252e-18 7.346557235e-19 2.874975361e-19)
5(6.011981557e-18 3.61966892e-18 6.759183986e-19 1.162883363e-19 3.595981817e-20)
5(1.241571737e-18 7.140176784e-19 9.535545456e-20 1.159942397e-20 2.942486411e-21)
5(1.612046677e-19 8.9177996e-20 8.053115158e-21 6.62826153e-22 1.608649756e-22)
5(1.123111462e-20 6.498696686e-21 3.37677525e-22 1.312561957e-23 9.886856666e-22)
5(-1.477124395e-19 1.119482091e-21 -1.620549695e-21 -1.109244809e-21 1.587561896e-19)
5(-3.144155066e-17 1.860155065e-19 6.634472987e-19 -2.170019413e-19 3.169936234e-17)
5(-9.336349198e-15 4.840760822e-17 6.919033614e-16 -5.651876095e-17 8.413318931e-15)
5(-4.661535936e-12 1.792420792e-14 6.789594572e-13 -2.121917694e-14 3.525341857e-12)
5(-1.798525462e-08 -7.501051211e-12 3.66689335e-09 -2.335493191e-12 1.146106852e-08)
)


60
(
5(2.86406652e-14 1.538359339e-14 4.384200532e-15 4.744771839e-15 2.429113861e-15)
5(3.17488892e-14 2.093326173e-14 7.865524237e-15 4.688659653e-15 2.823134329e-15)
5(3.616486193e-14 2.586262378e-14 1.068710485e-14 5.160270245e-15 3.24718519e-15)
5(4.344579658e-14 3.124432018e-14 1.296126454e-14 6.003592399e-15 3.699870097e-15)
5(5.577311487e-14 3.885730418e-14 1.514704974e-14 7.048415294e-15 4.143094634e-15)
5(7.137171752e-14 4.814942707e-14 1.731259492e-14 8.015611441e-15 4.520753034e-15)
5(8.612394851e-14 5.697016151e-14 1.919543178e-14 8.696961413e-15 4.802767453e-15)
5(9.76982122e-14 6.411692254e-14 2.081058823e-14 9.125625478e-15 4.987608529e-15)
5(1.080683762e-13 7.051412362e-14 2.214935981e-14 9.371970281e-15 5.091599948e-15)
5(1.195073386e-13 7.732776771e-14 2.332040639e-14 9.531541029e-15 5.11805363e-15)
5(1.301377081e-13 8.332960458e-14 2.402503619e-14 9.587012486e-15 5.078229616e-15)
5(1.420640063e-13 8.9900098e-14 2.456468459e-14 9.522335858e-15 4.95253648e-15)
5(1.521673294e-13 9.530173015e-14 2.474563246e-14 9.304130386e-15 4.758608178e-15)
5(1.659654472e-13 1.022916284e-13 2.452642949e-14 8.953928376e-15 4.503395036e-15)
5(1.705587553e-13 1.044502686e-13 2.407175329e-14 8.485449992e-15 4.198559008e-15)
5(1.76238005e-13 1.069392575e-13 2.334797607e-14 7.953006186e-15 3.849255426e-15)
5(1.834129981e-13 1.101474784e-13 2.248194839e-14 7.314400888e-15 3.490289883e-15)
5(1.88305495e-13 1.119507897e-13 2.133594591e-14 6.63881217e-15 3.122215767e-15)
5(1.915805308e-13 1.127917903e-13 2.005694873e-14 5.96484452e-15 2.736233998e-15)
5(1.940206455e-13 1.131884454e-13 1.872774067e-14 5.269778597e-15 2.366220236e-15)
5(1.946840189e-13 1.126132573e-13 1.73342868e-14 4.59005034e-15 2.013150085e-15)
5(1.919769873e-13 1.102127466e-13 1.584584889e-14 3.942193027e-15 1.682718832e-15)
5(1.904791948e-13 1.084710441e-13 1.443778037e-14 3.348379867e-15 1.385314489e-15)
5(1.877670444e-13 1.060856916e-13 1.302841613e-14 2.798951593e-15 1.12091775e-15)
5(1.797553414e-13 1.010485688e-13 1.16930128e-14 2.299995711e-15 8.869182752e-16)
5(1.735123786e-13 9.702389652e-14 1.052182389e-14 1.869654717e-15 6.883390873e-16)
5(1.618462003e-13 9.00652557e-14 9.215730351e-15 1.509393782e-15 5.268682224e-16)
5(1.522721554e-13 8.435095333e-14 8.132378832e-15 1.206060476e-15 3.963254767e-16)
5(1.400279882e-13 7.738718151e-14 7.188544594e-15 9.506414578e-16 2.920101411e-16)
5(1.299814886e-13 7.150352569e-14 6.243762474e-15 7.454800008e-16 2.120960943e-16)
5(1.160212901e-13 6.361994549e-14 5.318526275e-15 5.868109107e-16 1.516367615e-16)
5(1.002914263e-13 5.496472132e-14 4.5410373e-15 4.59384916e-16 1.076483808e-16)
5(8.564628846e-14 4.687377352e-14 3.790324679e-15 3.545775322e-16 7.65612941e-17)
5(7.162350363e-14 3.919502038e-14 3.148843221e-15 2.687266478e-16 5.506718152e-17)
5(5.955827257e-14 3.251744363e-14 2.530406358e-15 2.041439173e-16 4.114774154e-17)
5(4.757378918e-14 2.592045943e-14 1.960684056e-15 1.540378331e-16 3.432010148e-17)
5(3.586365788e-14 1.957832582e-14 1.516519495e-15 1.177044126e-16 3.465711551e-17)
5(2.618861161e-14 1.430627568e-14 1.119442136e-15 9.544904099e-17 4.322041648e-17)
5(1.801368574e-14 9.823487361e-15 7.606832872e-16 8.790193095e-17 6.036196905e-17)
5(1.179260892e-14 6.436766059e-15 5.181107712e-16 9.553261865e-17 8.825429503e-17)
5(7.310207714e-15 3.997603296e-15 3.512512029e-16 1.158236458e-16 1.234371885e-16)
5(4.124778346e-15 2.278755418e-15 2.552950163e-16 1.415377449e-16 1.547898085e-16)
5(2.173437599e-15 1.235616733e-15 2.128520707e-16 1.64254331e-16 1.747950831e-16)
5(1.124348616e-15 6.781380703e-16 1.960947207e-16 1.734463427e-16 1.739877086e-16)
5(5.573787239e-16 3.834780574e-16 1.883987799e-16 1.621088938e-16 1.515705695e-16)
5(3.300566574e-16 2.628586911e-16 1.726490345e-16 1.334962565e-16 1.147502681e-16)
5(2.43264374e-16 2.076310353e-16 1.420794573e-16 9.457203473e-17 7.531685384e-17)
5(1.954319857e-16 1.648234482e-16 1.024375144e-16 5.642259525e-17 4.082169605e-17)
5(1.50828675e-16 1.196712159e-16 6.246667284e-17 2.776113294e-17 1.791755088e-17)
5(1.022515758e-16 7.51914539e-17 3.133623e-17 1.085381638e-17 6.251732063e-18)
5(5.767951706e-17 3.917782627e-17 1.247319616e-17 3.220594706e-18 1.582153822e-18)
5(2.647780421e-17 1.648689925e-17 3.634898815e-18 6.835032123e-19 2.840255616e-19)
5(9.332459854e-18 5.437181492e-18 7.934945301e-19 9.990949246e-20 3.398126113e-20)
5(2.203831885e-18 1.226350908e-18 1.166214653e-19 8.761244453e-21 2.369532489e-21)
5(2.857254937e-19 1.547040248e-19 9.543607096e-21 4.474594786e-22 1.298214967e-21)
5(-1.160545612e-19 1.695312116e-20 5.330813176e-22 -4.795787542e-22 1.556666327e-19)
5(-2.845806477e-17 5.782999396e-20 2.741429562e-18 -7.874682104e-20 2.442736313e-17)
5(-7.314134403e-15 9.57932451e-18 1.371960519e-15 -1.402607885e-17 4.921064195e-15)
5(-2.802127435e-12 -8.282799445e-16 7.758449454e-13 -4.105102663e-16 1.375984079e-12)
5(9.395734144e-26 4.773330483e-26 5.146908938e-30 -5.19574079e-38 -3.442490768e-38)
)


60
(
5(5.421676397e-14 3.01589871e-14 8.434914567e-15 7.698585394e-15 4.061608341e-15)
5(6.99085226e-14 4.535595551e-14 1.537422637e-14 8.196658762e-15 4.826718372e-15)
5(8.585375534e-14 5.870381128e-14 2.113570503e-14 9.338100115e-15 5.622727589e-15)
5(1.063717846e-13 7.254457038e-14 2.569969524e-14 1.09356239e-14 6.434858767e-15)
5(1.381929881e-13 9.162485671e-14 3.009796526e-14 1.276983307e-14 7.210846524e-15)
5(1.77821438e-13 1.149264004e-13 3.466132605e-14 1.444163136e-14 7.883592266e-15)
5(2.135630672e-13 1.360049797e-13 3.864448506e-14 1.571213153e-14 8.400366736e-15)
5(2.468975917e-13 1.557117918e-13 4.209357501e-14 1.65485411e-14 8.769220708e-15)
5(2.773794547e-13 1.7381414e-13 4.518756707e-14 1.710826817e-14 8.997248023e-15)
5(3.109133298e-13 1.930262987e-13 4.770366767e-14 1.74642609e-14 9.113968569e-15)
5(3.450873242e-13 2.123603774e-13 4.995864629e-14 1.767290548e-14 9.083932148e-15)
5(3.790822437e-13 2.310718075e-13 5.151016036e-14 1.764690241e-14 8.938877816e-15)
5(4.158328787e-13 2.508990757e-13 5.261074454e-14 1.738028566e-14 8.64840424e-15)
5(4.445955624e-13 2.663154646e-13 5.315944481e-14 1.685870463e-14 8.255152598e-15)
5(4.783615192e-13 2.838977675e-13 5.31746651e-14 1.613785328e-14 7.766636743e-15)
5(5.065672564e-13 2.983335323e-13 5.277062373e-14 1.528533733e-14 7.219367597e-15)
5(5.330454422e-13 3.114168209e-13 5.178617204e-14 1.43023959e-14 6.614472549e-15)
5(5.628214995e-13 3.261727513e-13 5.07547676e-14 1.32520752e-14 5.968093648e-15)
5(5.784090237e-13 3.333898821e-13 4.930576258e-14 1.211826036e-14 5.326053872e-15)
5(6.000621966e-13 3.435676162e-13 4.773660896e-14 1.098812574e-14 4.680440299e-15)
5(6.148585139e-13 3.500594676e-13 4.594876121e-14 9.861350103e-15 4.069070353e-15)
5(6.188878515e-13 3.508594865e-13 4.394594824e-14 8.764473548e-15 3.495084434e-15)
5(6.329785166e-13 3.567624094e-13 4.201234635e-14 7.758828028e-15 2.948305881e-15)
5(6.323883378e-13 3.552018732e-13 4.009901386e-14 6.807431876e-15 2.450708177e-15)
5(6.197222471e-13 3.472629978e-13 3.798004811e-14 5.935778895e-15 2.018522657e-15)
5(6.110377878e-13 3.411101842e-13 3.570630521e-14 5.179782375e-15 1.636389678e-15)
5(6.011247708e-13 3.344103756e-13 3.35568426e-14 4.499891558e-15 1.309397164e-15)
5(5.754017869e-13 3.196691365e-13 3.141077162e-14 3.876447113e-15 1.042594583e-15)
5(5.320825348e-13 2.957057401e-13 2.90084292e-14 3.326324657e-15 8.244869531e-16)
5(5.001964651e-13 2.771695971e-13 2.629797685e-14 2.872557313e-15 6.411976886e-16)
5(4.587309118e-13 2.541303377e-13 2.398163753e-14 2.480521893e-15 5.004650639e-16)
5(4.146187856e-13 2.297710244e-13 2.168137703e-14 2.102994451e-15 3.881948595e-16)
5(3.643216188e-13 2.016730932e-13 1.879184419e-14 1.770241655e-15 3.00057853e-16)
5(3.078527616e-13 1.706525187e-13 1.613095955e-14 1.472184034e-15 2.277711412e-16)
5(2.609843028e-13 1.44547068e-13 1.354071414e-14 1.213509976e-15 1.724240691e-16)
5(2.09236185e-13 1.161583254e-13 1.114662853e-14 9.736312118e-16 1.308512702e-16)
5(1.677986173e-13 9.314455762e-14 8.907642594e-15 7.484152772e-16 1.013024636e-16)
5(1.253935997e-13 6.967517073e-14 6.73450561e-15 5.656785804e-16 8.19179556e-17)
5(9.138843612e-14 5.073640058e-14 4.865186144e-15 4.191467374e-16 7.585814821e-17)
5(6.229210039e-14 3.465149157e-14 3.38992344e-15 3.070872146e-16 8.83706421e-17)
5(3.984476537e-14 2.218517004e-14 2.205638785e-15 2.433538868e-16 1.174706557e-16)
5(2.366282971e-14 1.321829257e-14 1.38032598e-15 2.121304898e-16 1.50726426e-16)
5(1.329383971e-14 7.456666552e-15 8.460097623e-16 2.082747193e-16 1.831348232e-16)
5(6.703866334e-15 3.802836566e-15 5.207678076e-16 2.106944908e-16 2.010622216e-16)
5(3.091327906e-15 1.811555267e-15 3.560935014e-16 2.061647183e-16 1.957972133e-16)
5(1.380087897e-15 8.702944176e-16 2.750933649e-16 1.866752526e-16 1.68666214e-16)
5(6.951933439e-16 4.885853666e-16 2.246724432e-16 1.504853377e-16 1.269722146e-16)
5(3.648746375e-16 2.962453636e-16 1.763573094e-16 1.043349681e-16 8.087886263e-17)
5(2.545787958e-16 2.131517299e-16 1.25184451e-16 6.175633408e-17 4.314092773e-17)
5(1.971231429e-16 1.5571687e-16 7.725177557e-17 3.000068111e-17 1.82955427e-17)
5(1.343777123e-16 9.858534072e-17 3.936280395e-17 1.158824091e-17 6.054356865e-18)
5(7.925582967e-17 5.394073074e-17 1.656769241e-17 3.382199485e-18 1.457422147e-18)