/*--------------------------------*- C++ -*----------------------------------*\
| =========                 |                                                 |
| \\      /  F ield         | OpenFOAM: The Open Source CFD Toolbox           |
|  \\    /   O peration     | Version:  2.3.1                                 |
|   \\  /    A nd           | Web:      www.OpenFOAM.org                      |
|    \\/     M anipulation  |                                                 |
\*---------------------------------------------------------------------------*/
FoamFile
{
    version     2.0;
    format      ascii;
    class       dictionary;
    location    "constant";
    object      DPSI13;
}
// * * * * * * * * * * * * * * * * * * * * * * * * * * * * * * * * * * * * * //

DPSI13_table
60
(

60
(
5(7.241759329e-13 6.465462979e-13 6.860073515e-13 3.787364605e-13 5.476231457e-13)
5(-9.477449098e-12 2.028391609e-13 5.443923858e-13 3.391423823e-13 5.650344074e-13)
5(-2.747636534e-11 -2.1159019e-13 1.544243196e-13 2.512514895e-13 1.016592791e-13)
5(-2.650916141e-11 -7.927773105e-14 -8.916369786e-14 -2.904972237e-14 -1.549746201e-13)
5(-6.638103029e-12 -4.085085874e-15 1.570904037e-13 -1.887251238e-13 7.444500648e-14)
5(4.580363178e-11 -2.35985354e-14 1.175141589e-13 8.230791411e-15 -1.271408718e-13)
5(4.572609913e-11 -1.02872826e-13 -3.064363471e-13 -3.806322192e-14 1.804903273e-14)
5(-5.933343744e-11 -2.210714165e-13 -3.032767371e-13 -1.677059788e-13 7.10179905e-14)
5(-1.005802985e-10 -6.056895146e-13 -3.487587761e-13 -1.286478665e-13 -1.925992248e-13)
5(-5.090148118e-11 -8.57500032e-13 -3.990798521e-13 -1.736808818e-13 -1.428461921e-13)
5(6.520509447e-11 -8.884040152e-14 -1.202821639e-13 -2.153455429e-13 -1.161894515e-13)
5(1.244161266e-10 2.855935877e-14 -1.288505824e-13 -3.085439994e-13 -1.663095165e-13)
5(4.513534223e-11 -6.509646682e-13 -4.148725331e-13 -2.903960019e-13 -1.934622524e-13)
5(-7.747259293e-13 -6.707592162e-13 -5.162960598e-13 -3.578825484e-13 -1.98027778e-13)
5(-5.671378847e-12 -1.93773864e-12 -9.645540635e-13 -7.158598104e-13 -3.370755328e-13)
5(-6.018676804e-12 -2.089266032e-12 -1.395108003e-12 -7.230056299e-13 -4.7404151e-13)
5(1.828550088e-12 -8.857308592e-13 -7.96932569e-13 -7.680626415e-13 -5.855303909e-13)
5(3.434429632e-12 -9.9114427e-13 -8.689725979e-13 -1.03689527e-12 -8.780584379e-13)
5(-2.045593699e-13 -1.667114098e-12 -1.897193243e-12 -1.618832475e-12 -1.03899611e-12)
5(-2.872096214e-12 -2.579808114e-12 -2.273986501e-12 -2.08496901e-12 -9.977444005e-13)
5(-3.531352255e-12 -3.464871008e-12 -3.264560206e-12 -1.727402395e-12 -1.09855355e-12)
5(-5.196166077e-12 -5.197295862e-12 -4.551365619e-12 -3.339977111e-12 -2.345270411e-12)
5(-6.742440337e-12 -8.10207502e-12 -5.899243582e-12 -5.76246995e-12 -3.757251394e-12)
5(-9.889258277e-12 -1.391565319e-11 -9.258129069e-12 -8.479565597e-12 -5.583319452e-12)
5(-1.430277397e-11 -2.366019976e-11 -1.538734415e-11 -1.422803451e-11 -8.739648058e-12)
5(-1.962634154e-11 -2.744093378e-11 -2.15040543e-11 -2.1967023e-11 -1.348528157e-11)
5(-2.897919434e-11 -2.779847127e-11 -3.324321716e-11 -3.324592766e-11 -2.112817297e-11)
5(-4.721786854e-11 -5.023523796e-11 -5.11837396e-11 -4.88767318e-11 -3.341519075e-11)
5(-7.259874134e-11 -9.042603903e-11 -7.609652656e-11 -6.795404533e-11 -4.848291344e-11)
5(-1.106665267e-10 -1.380109002e-10 -1.227161226e-10 -1.093557348e-10 -7.172083982e-11)
5(-1.662789399e-10 -1.962016516e-10 -1.717411206e-10 -1.44157944e-10 -7.476198252e-11)
5(-2.392269047e-10 -2.833619517e-10 -2.449827092e-10 -1.897986299e-10 -1.310887848e-10)
5(-3.486961557e-10 -4.084213069e-10 -3.646823803e-10 -2.508562023e-10 -1.267443612e-10)
5(-4.940549901e-10 -5.283846249e-10 -4.549179814e-10 -2.964842371e-10 -8.58806662e-11)
5(-6.574912393e-10 -7.045203837e-10 -6.303090028e-10 -3.444102391e-10 -1.271304619e-10)
5(-8.349476187e-10 -7.5829388e-10 -5.261611163e-10 -2.457712174e-10 -1.107729549e-10)
5(-9.997441623e-10 -8.496226727e-10 -4.013557904e-10 -1.877466843e-10 1.849128457e-10)
5(-1.144949033e-09 -8.953973866e-10 -5.451359783e-10 -6.231004818e-11 8.408091539e-11)
5(-1.285241309e-09 -7.193853294e-10 -4.920694223e-10 1.275881213e-10 2.649787715e-10)
5(-1.140579988e-09 -3.121012383e-10 1.274210715e-10 3.016249191e-10 4.169680998e-10)
5(-6.332485752e-10 1.950844193e-10 7.09177583e-10 5.517254912e-10 2.408929823e-12)
5(-1.074978718e-10 7.385629687e-10 9.119908169e-10 8.027928905e-10 3.678565336e-12)
5(4.213290046e-10 1.016108394e-09 5.08833217e-10 4.927427331e-10 -1.327710227e-11)
5(1.019714561e-09 1.169008457e-09 5.350065312e-10 -2.392952953e-27 -1.059802633e-12)
5(1.681006809e-09 1.250615625e-09 1.036510153e-09 -7.052642486e-27 1.35964253e-11)
5(1.963136611e-09 1.034243004e-09 5.940776285e-10 -2.650546804e-12 1.085043451e-12)
5(1.495971284e-09 8.634391019e-10 1.827372108e-10 1.879538205e-16 -1.843426948e-25)
5(1.238028063e-09 4.012297719e-10 5.300520604e-11 2.709436196e-12 -4.726978623e-25)
5(9.663861699e-10 7.472518927e-11 1.16638003e-11 -3.301148968e-25 -1.161859424e-24)
5(3.863681283e-10 3.083749601e-11 1.280345778e-12 -8.015329191e-25 -2.774981844e-24)
5(1.554299615e-10 5.75907126e-13 -4.300736171e-25 -1.877888215e-24 -6.408390957e-24)
5(5.970004593e-11 -2.399700969e-25 -1.000688031e-24 -4.265246968e-24 -1.436203495e-23)
5(1.147857621e-11 -5.443853911e-25 -2.274846783e-24 -9.395110159e-24 -3.154015014e-23)
5(1.091874895e-13 -1.206994012e-24 -5.021904675e-24 -2.024594688e-23 -6.69918931e-23)
5(-1.789069824e-24 -2.619802125e-24 -1.082469551e-23 -4.212457823e-23 -1.378783303e-22)
5(-6.599264824e-24 -5.620113935e-24 -2.291009409e-23 -8.527667264e-23 -2.689388253e-22)
5(-1.008672885e-23 -2.089185637e-23 -4.809899229e-23 -1.670755337e-22 -5.049593927e-22)
5(-9.856255692e-24 -4.475283983e-23 -1.341469224e-22 -2.024519907e-22 -9.031858849e-22)
5(-1.042526474e-23 -7.268066686e-23 -3.245290539e-22 -1.339029379e-21 -3.359282353e-21)
5(-1.139518092e-23 -9.06770329e-23 -4.493529153e-22 -2.532712293e-21 -5.633358935e-21)
)


60
(
5(5.903594819e-13 -1.086332022e-13 6.800063064e-13 2.434940544e-13 5.33979672e-13)
5(3.957583257e-13 -1.604273538e-13 4.587899104e-13 1.417018558e-13 3.699959264e-13)
5(-1.459102432e-14 -2.751416905e-13 1.937288644e-14 -7.910866385e-14 4.644742524e-14)
5(-3.96723621e-13 -4.300408412e-13 -3.272167388e-13 -2.836260642e-13 -2.143467896e-13)
5(-7.311341363e-13 -6.111767895e-13 -5.849934613e-13 -4.686308784e-13 -4.320351337e-13)
5(-9.344491898e-13 -7.831041286e-13 -7.203727635e-13 -5.98191932e-13 -5.539045125e-13)
5(-1.056339894e-12 -9.652738216e-13 -8.03340106e-13 -7.08749246e-13 -6.088904155e-13)
5(-1.224928602e-12 -1.202440728e-12 -9.387327656e-13 -8.770227272e-13 -7.073733215e-13)
5(-1.499065693e-12 -1.493320555e-12 -1.185714466e-12 -1.108441049e-12 -9.167131052e-13)
5(-1.941536606e-12 -1.841431238e-12 -1.54596817e-12 -1.405060488e-12 -1.203027069e-12)
5(-2.43318965e-12 -2.274647959e-12 -1.96630864e-12 -1.763890288e-12 -1.520028652e-12)
5(-2.942091641e-12 -2.778351299e-12 -2.425397808e-12 -2.178290206e-12 -1.889759382e-12)
5(-3.577462182e-12 -3.357364921e-12 -2.946831673e-12 -2.636234848e-12 -2.289985299e-12)
5(-4.290675717e-12 -4.05836935e-12 -3.55364936e-12 -3.186706251e-12 -2.760725919e-12)
5(-5.097810176e-12 -4.85977812e-12 -4.270131755e-12 -3.874027363e-12 -3.386124527e-12)
5(-6.174366102e-12 -5.812657528e-12 -5.155849572e-12 -4.721387838e-12 -4.195644877e-12)
5(-7.444229139e-12 -7.02132688e-12 -6.285655471e-12 -5.814778644e-12 -5.187362113e-12)
5(-8.853434416e-12 -8.54293614e-12 -7.71561654e-12 -7.229759636e-12 -6.488056464e-12)
5(-1.063581912e-11 -1.041599691e-11 -9.523435383e-12 -9.089991088e-12 -8.244963303e-12)
5(-1.29020163e-11 -1.283536483e-11 -1.193256933e-11 -1.163771997e-11 -1.074017567e-11)
5(-1.583496996e-11 -1.608056766e-11 -1.527646724e-11 -1.518472868e-11 -1.423988366e-11)
5(-1.953760212e-11 -2.061499258e-11 -1.995428245e-11 -2.0356857e-11 -1.936679956e-11)
5(-2.445851872e-11 -2.715698481e-11 -2.685296279e-11 -2.830081227e-11 -2.723084632e-11)
5(-3.191563754e-11 -3.669499358e-11 -3.722135226e-11 -4.036042353e-11 -3.948118846e-11)
5(-4.258712967e-11 -5.107284925e-11 -5.297662964e-11 -5.906619752e-11 -5.879488801e-11)
5(-5.836499391e-11 -7.300775278e-11 -7.765994953e-11 -8.831183129e-11 -8.875646948e-11)
5(-8.258330407e-11 -1.06631597e-10 -1.160231249e-10 -1.332728949e-10 -1.340119003e-10)
5(-1.196209756e-10 -1.58044099e-10 -1.746758611e-10 -2.014398711e-10 -2.03462298e-10)
5(-1.752452197e-10 -2.35235585e-10 -2.62848215e-10 -3.024800257e-10 -3.061795237e-10)
5(-2.593973507e-10 -3.485428986e-10 -3.925197226e-10 -4.480436644e-10 -4.500376199e-10)
5(-3.826244692e-10 -5.111149749e-10 -5.752048971e-10 -6.485913847e-10 -6.456454933e-10)
5(-5.56062598e-10 -7.338414914e-10 -8.238870921e-10 -9.126807693e-10 -8.992634634e-10)
5(-7.952667789e-10 -1.029315217e-09 -1.148268693e-09 -1.243105467e-09 -1.19721661e-09)
5(-1.112109915e-09 -1.406078174e-09 -1.548431802e-09 -1.623955142e-09 -1.522676696e-09)
5(-1.512098859e-09 -1.850314106e-09 -2.003256987e-09 -2.022356543e-09 -1.83251211e-09)
5(-1.986404269e-09 -2.336521974e-09 -2.467926303e-09 -2.378554712e-09 -2.05838858e-09)
5(-2.502499551e-09 -2.814980023e-09 -2.869197014e-09 -2.605042021e-09 -2.121158244e-09)
5(-3.002621362e-09 -3.185287955e-09 -3.095784529e-09 -2.59381722e-09 -1.891533242e-09)
5(-3.394405769e-09 -3.349190574e-09 -3.02363669e-09 -2.230993565e-09 -1.257535213e-09)
5(-3.553850561e-09 -3.162137185e-09 -2.525665641e-09 -1.450445164e-09 -2.242786742e-10)
5(-3.328433995e-09 -2.532663384e-09 -1.573442592e-09 -2.565048723e-10 1.024339044e-09)
5(-2.638665939e-09 -1.412056532e-09 -2.057707988e-10 1.223400069e-09 2.182161356e-09)
5(-1.442943105e-09 1.711346848e-10 1.425210293e-09 2.679105388e-09 2.947679208e-09)
5(2.335765865e-10 1.922680267e-09 3.021052559e-09 3.731026661e-09 3.165696837e-09)
5(2.131127529e-09 3.531055402e-09 4.23886372e-09 4.089483593e-09 2.849941725e-09)
5(3.861407268e-09 4.686776782e-09 4.784298028e-09 3.703160126e-09 2.156571838e-09)
5(5.072364406e-09 5.108688304e-09 4.508234382e-09 2.823583657e-09 1.359168764e-09)
5(5.463298487e-09 4.728291404e-09 3.548535527e-09 1.817395155e-09 7.049302588e-10)
5(5.010324257e-09 3.735918423e-09 2.320001407e-09 9.767205395e-10 3.009514415e-10)
5(3.904436161e-09 2.482066195e-09 1.252085804e-09 4.302086405e-10 1.078950568e-10)
5(2.546670901e-09 1.344114467e-09 5.533753415e-10 1.534991502e-10 3.372945502e-11)
5(1.352293624e-09 5.806337874e-10 1.920847546e-10 4.666992981e-11 9.236438161e-12)
5(5.531823261e-10 1.965990553e-10 5.451383908e-11 1.218275592e-11 2.274379914e-12)
5(1.7997907e-10 5.142932849e-11 1.286826802e-11 2.761930409e-12 4.936106364e-13)
5(3.930029549e-11 9.786969743e-12 2.344238256e-12 5.305726099e-13 9.559237069e-14)
5(5.913261618e-12 1.501356182e-12 3.466272314e-13 8.226523767e-14 1.475617206e-14)
5(5.288910844e-13 1.398620271e-13 3.892629394e-14 9.316564929e-15 1.800381717e-15)
5(3.154121653e-14 1.059399782e-14 2.212537238e-15 7.332592703e-16 1.247177449e-16)
5(9.304531812e-16 3.26091734e-16 -1.858067556e-13 4.950376752e-17 3.996062262e-18)
5(8.189040508e-18 -7.601181306e-17 -3.724434696e-13 -7.83978522e-17 4.697800012e-20)
)


60
(
5(3.490839663e-13 -5.063700117e-13 7.509197339e-13 2.159638455e-13 5.978736157e-13)
5(1.426504462e-13 -5.790094126e-13 4.42331439e-13 5.684358495e-14 3.763671178e-13)
5(-3.707236081e-13 -7.249391004e-13 -2.063545096e-13 -2.946872029e-13 -9.110366344e-14)
5(-9.799670589e-13 -9.916647861e-13 -7.772540267e-13 -6.580569822e-13 -5.085790896e-13)
5(-1.615969734e-12 -1.371220943e-12 -1.263938873e-12 -1.018848518e-12 -9.015522807e-13)
5(-2.108616617e-12 -1.784035738e-12 -1.600314216e-12 -1.318704616e-12 -1.184672068e-12)
5(-2.465053176e-12 -2.224503566e-12 -1.860559236e-12 -1.613534281e-12 -1.379955126e-12)
5(-2.901334173e-12 -2.764895056e-12 -2.229584187e-12 -2.009086504e-12 -1.665890546e-12)
5(-3.628644653e-12 -3.456993011e-12 -2.825082821e-12 -2.544451697e-12 -2.108493133e-12)
5(-4.650582361e-12 -4.325594864e-12 -3.62916468e-12 -3.219224732e-12 -2.715637546e-12)
5(-5.858832353e-12 -5.345571902e-12 -4.570575844e-12 -4.010748899e-12 -3.44219805e-12)
5(-7.109792664e-12 -6.461024514e-12 -5.6132024e-12 -4.890938707e-12 -4.216344096e-12)
5(-8.507017387e-12 -7.754986255e-12 -6.761739681e-12 -5.883897717e-12 -5.051744903e-12)
5(-1.024763175e-11 -9.314430386e-12 -8.094107475e-12 -7.055039322e-12 -6.092065324e-12)
5(-1.239164964e-11 -1.114748472e-11 -9.690877778e-12 -8.457145221e-12 -7.369539988e-12)
5(-1.457817982e-11 -1.324743869e-11 -1.155568171e-11 -1.011352897e-11 -8.892595438e-12)
5(-1.703624278e-11 -1.566006019e-11 -1.373652891e-11 -1.210733291e-11 -1.083949068e-11)
5(-2.021538488e-11 -1.843310719e-11 -1.632845336e-11 -1.462514101e-11 -1.326757359e-11)
5(-2.373741621e-11 -2.172410507e-11 -1.951428486e-11 -1.775805646e-11 -1.625373175e-11)
5(-2.799123383e-11 -2.56594111e-11 -2.346216364e-11 -2.17267972e-11 -2.010670635e-11)
5(-3.264866482e-11 -3.047835825e-11 -2.843631808e-11 -2.696059567e-11 -2.568415786e-11)
5(-3.815299329e-11 -3.674987487e-11 -3.480838045e-11 -3.394350166e-11 -3.316157857e-11)
5(-4.558246464e-11 -4.503566723e-11 -4.355569502e-11 -4.393828347e-11 -4.367355525e-11)
5(-5.505567598e-11 -5.635824987e-11 -5.62797686e-11 -5.884538363e-11 -5.977852922e-11)
5(-6.726475794e-11 -7.254196087e-11 -7.50959299e-11 -8.148902597e-11 -8.439413481e-11)
5(-8.470554993e-11 -9.631555583e-11 -1.032729231e-10 -1.154247398e-10 -1.220824467e-10)
5(-1.108886931e-10 -1.313822504e-10 -1.452514655e-10 -1.670839544e-10 -1.790624194e-10)
5(-1.479266674e-10 -1.844967205e-10 -2.09602987e-10 -2.456398252e-10 -2.661205071e-10)
5(-2.042005489e-10 -2.64072023e-10 -3.071932474e-10 -3.626561857e-10 -3.966238897e-10)
5(-2.880926771e-10 -3.809427482e-10 -4.497648457e-10 -5.32661324e-10 -5.776493055e-10)
5(-4.102656206e-10 -5.510000413e-10 -6.538740317e-10 -7.7112971e-10 -8.303523968e-10)
5(-5.871643424e-10 -7.884655077e-10 -9.38099997e-10 -1.093373586e-09 -1.164332214e-09)
5(-8.342280418e-10 -1.108095955e-09 -1.315659377e-09 -1.502666681e-09 -1.57975446e-09)
5(-1.162854285e-09 -1.523478767e-09 -1.791475474e-09 -1.998434661e-09 -2.057927593e-09)
5(-1.58757431e-09 -2.035293359e-09 -2.355659361e-09 -2.559982023e-09 -2.56558537e-09)
5(-2.116741279e-09 -2.62283637e-09 -2.974518312e-09 -3.124470192e-09 -3.031342765e-09)
5(-2.700007109e-09 -3.243238086e-09 -3.574674789e-09 -3.598917469e-09 -3.335410244e-09)
5(-3.318231121e-09 -3.819667361e-09 -4.040298037e-09 -3.854532227e-09 -3.328666075e-09)
5(-3.881184662e-09 -4.220594477e-09 -4.236425027e-09 -3.7401341e-09 -2.857164941e-09)
5(-4.23746357e-09 -4.300292763e-09 -4.004638338e-09 -3.116078652e-09 -1.82503552e-09)
5(-4.283187703e-09 -3.91993248e-09 -3.19815059e-09 -1.902782572e-09 -2.996846759e-10)
5(-3.844887608e-09 -2.946834713e-09 -1.774109868e-09 -1.417507512e-10 1.468640977e-09)
5(-2.782022942e-09 -1.365610126e-09 1.603365889e-10 1.940562944e-09 3.16696101e-09)
5(-1.146233298e-09 6.901061382e-10 2.374012631e-09 3.918596996e-09 4.420994046e-09)
5(9.254340309e-10 2.929782785e-09 4.470072442e-09 5.329732617e-09 4.970106072e-09)
5(3.184049275e-09 4.911010906e-09 5.99590673e-09 5.87695864e-09 4.716995382e-09)
5(5.147321205e-09 6.256192963e-09 6.561859624e-09 5.477951689e-09 3.809217051e-09)
5(6.398910394e-09 6.665485328e-09 6.061211618e-09 4.343356463e-09 2.616893192e-09)
5(6.702756017e-09 6.060666027e-09 4.758317005e-09 2.953366625e-09 1.508697297e-09)
5(6.000338192e-09 4.721581206e-09 3.14796859e-09 1.694594256e-09 7.268698006e-10)
5(4.593844839e-09 3.098944623e-09 1.74312309e-09 7.975399751e-10 2.883885024e-10)
5(2.94890298e-09 1.663620236e-09 7.842577109e-10 3.112041711e-10 9.413461966e-11)
5(1.517648936e-09 7.065047873e-10 2.771895593e-10 9.60392109e-11 2.67225969e-11)
5(5.959117678e-10 2.29963534e-10 7.600132064e-11 2.402740385e-11 6.337780543e-12)
5(1.659082033e-10 5.448925017e-11 1.513470665e-11 4.606552485e-12 1.241678289e-12)
5(3.222483026e-11 9.009330689e-12 2.296528237e-12 7.416422615e-13 2.105457362e-13)
5(3.563576393e-12 9.903618534e-13 2.321450765e-13 8.849678049e-14 2.472044063e-14)
5(2.31748863e-13 4.663506851e-13 1.594381802e-14 2.483248397e-13 1.785345043e-15)
5(4.526550376e-15 -5.907619943e-17 -4.062545084e-13 -8.506048849e-16 7.117115571e-17)
5(5.719673342e-17 -8.332699308e-13 -8.1350467e-13 -4.883785471e-13 6.96637365e-19)
)


60
(
5(-1.739782941e-13 -1.18300096e-12 6.815207797e-13 1.098423398e-13 6.156283968e-13)
5(-4.205217955e-13 -1.286685219e-12 2.66565018e-13 -1.326554888e-13 3.17684108e-13)
5(-1.02564542e-12 -1.46284118e-12 -6.426448848e-13 -6.696356062e-13 -3.302013578e-13)
5(-1.9200563e-12 -1.889173149e-12 -1.532652603e-12 -1.261906268e-12 -9.781746626e-13)
5(-3.006212984e-12 -2.577181983e-12 -2.344977397e-12 -1.888248088e-12 -1.64890267e-12)
5(-3.911650112e-12 -3.354642166e-12 -2.993109031e-12 -2.491207727e-12 -2.196094811e-12)
5(-4.636920189e-12 -4.218255621e-12 -3.593706596e-12 -3.113295659e-12 -2.624914375e-12)
5(-5.602289562e-12 -5.29462012e-12 -4.378403271e-12 -3.881161379e-12 -3.206426368e-12)
5(-7.07252108e-12 -6.640354848e-12 -5.52733036e-12 -4.899743839e-12 -4.075448396e-12)
5(-8.954226342e-12 -8.277439859e-12 -7.044189068e-12 -6.188007835e-12 -5.217634032e-12)
5(-1.115961153e-11 -1.018978039e-11 -8.841799423e-12 -7.680028932e-12 -6.514281578e-12)
5(-1.369993249e-11 -1.238856669e-11 -1.086273308e-11 -9.31786561e-12 -7.941273313e-12)
5(-1.638729359e-11 -1.491383339e-11 -1.303388545e-11 -1.115437702e-11 -9.586438313e-12)
5(-1.950581027e-11 -1.779700193e-11 -1.547077293e-11 -1.331471399e-11 -1.138767138e-11)
5(-2.32994815e-11 -2.099400791e-11 -1.832452035e-11 -1.585484945e-11 -1.361708022e-11)
5(-2.775542475e-11 -2.474199733e-11 -2.173666209e-11 -1.881449883e-11 -1.640381477e-11)
5(-3.23568743e-11 -2.918744567e-11 -2.578341611e-11 -2.238310741e-11 -1.966068897e-11)
5(-3.795332699e-11 -3.400082973e-11 -3.026069278e-11 -2.665798588e-11 -2.377621368e-11)
5(-4.388352308e-11 -3.949394985e-11 -3.546064638e-11 -3.161095018e-11 -2.858151523e-11)
5(-5.034080138e-11 -4.608965923e-11 -4.152928543e-11 -3.740716611e-11 -3.436784972e-11)
5(-5.937897599e-11 -5.328976316e-11 -4.868621368e-11 -4.469475221e-11 -4.25535401e-11)
5(-6.851495798e-11 -6.190877263e-11 -5.785341079e-11 -5.387211023e-11 -5.229911892e-11)
5(-7.636349681e-11 -7.296226714e-11 -6.957298874e-11 -6.593613482e-11 -6.530644266e-11)
5(-8.838050332e-11 -8.662032218e-11 -8.405114907e-11 -8.305210781e-11 -8.380441794e-11)
5(-1.046198307e-10 -1.03901332e-10 -1.039699891e-10 -1.07534999e-10 -1.112758256e-10)
5(-1.234549243e-10 -1.275800903e-10 -1.335237911e-10 -1.434055672e-10 -1.535569372e-10)
5(-1.490943873e-10 -1.621545946e-10 -1.765540807e-10 -1.968455518e-10 -2.152756101e-10)
5(-1.852314637e-10 -2.1313254e-10 -2.40368653e-10 -2.770005072e-10 -3.080140713e-10)
5(-2.373136771e-10 -2.880665985e-10 -3.361852338e-10 -3.959690935e-10 -4.457441195e-10)
5(-3.134858187e-10 -3.9776965e-10 -4.77945213e-10 -5.701122182e-10 -6.464302291e-10)
5(-4.261019177e-10 -5.577118325e-10 -6.820152902e-10 -8.179543309e-10 -9.269247506e-10)
5(-5.87399451e-10 -7.836218217e-10 -9.67215567e-10 -1.158109039e-09 -1.302425994e-09)
5(-8.14095397e-10 -1.094942662e-09 -1.35287324e-09 -1.601788623e-09 -1.778393174e-09)
5(-1.124762328e-09 -1.508753295e-09 -1.852483598e-09 -2.156886728e-09 -2.360471004e-09)
5(-1.529936782e-09 -2.02910352e-09 -2.462908993e-09 -2.81159308e-09 -3.000542307e-09)
5(-2.040657143e-09 -2.646235451e-09 -3.164218558e-09 -3.512968801e-09 -3.645331392e-09)
5(-2.655938723e-09 -3.337953992e-09 -3.895573627e-09 -4.180364627e-09 -4.196499641e-09)
5(-3.324364433e-09 -4.034304808e-09 -4.556183518e-09 -4.686607657e-09 -4.465713986e-09)
5(-3.969629158e-09 -4.622419194e-09 -5.004635131e-09 -4.859928953e-09 -4.258938028e-09)
5(-4.509651791e-09 -4.968263493e-09 -5.052313579e-09 -4.524573168e-09 -3.420854723e-09)
5(-4.784903054e-09 -4.889524469e-09 -4.526994839e-09 -3.519829271e-09 -1.963654954e-09)
5(-4.645370282e-09 -4.221683228e-09 -3.310809188e-09 -1.793160719e-09 5.405269575e-11)
5(-3.944481357e-09 -2.877986427e-09 -1.400057824e-09 5.199203605e-10 2.327412762e-09)
5(-2.605376652e-09 -8.840481097e-10 1.050407171e-09 3.064928047e-09 4.422750085e-09)
5(-6.668125732e-10 1.560106385e-09 3.706692641e-09 5.344606763e-09 5.997352788e-09)
5(1.702042676e-09 4.065625016e-09 6.061992069e-09 6.871946856e-09 6.645889423e-09)
5(4.086655776e-09 6.206241306e-09 7.541935174e-09 7.372528362e-09 6.262614246e-09)
5(6.078001663e-09 7.550342195e-09 7.867880631e-09 6.792542616e-09 5.056623077e-09)
5(7.304381206e-09 7.759977213e-09 7.087675991e-09 5.380716057e-09 3.487906466e-09)
5(7.471379897e-09 6.868238117e-09 5.40475135e-09 3.617903265e-09 2.050717657e-09)
5(6.627819945e-09 5.238967244e-09 3.450254671e-09 2.043751371e-09 1.002180949e-09)
5(5.094891759e-09 3.333418859e-09 1.85034785e-09 9.652245554e-10 4.006655837e-10)
5(3.270958164e-09 1.705246163e-09 8.023994983e-10 3.584505262e-10 1.283335734e-10)
5(1.651884306e-09 6.920751807e-10 2.675074334e-10 1.061423312e-10 3.412516484e-11)
5(6.360843454e-10 2.078546131e-10 6.402317422e-11 2.391550688e-11 7.203504575e-12)
5(1.803887189e-10 4.260160755e-11 1.043908265e-11 3.864568008e-12 1.182657938e-12)
5(2.893535701e-11 5.284825577e-12 1.167106277e-12 4.277989234e-13 1.540187393e-13)
5(1.960169305e-12 -1.715155824e-12 8.884024227e-14 -1.913106479e-12 1.064567224e-14)
5(1.29846161e-13 1.611021527e-14 2.255990946e-15 7.627932861e-15 3.924151835e-16)
5(2.917123002e-15 4.326235445e-12 -4.179504797e-14 3.916087136e-12 6.940616109e-18)
)


60
(
5(-1.032670377e-12 -2.145931998e-12 4.378563268e-13 -9.939186244e-14 5.607765975e-13)
5(-1.323704149e-12 -2.29154433e-12 -1.058752541e-13 -4.514359232e-13 1.676694718e-13)
5(-2.0163895e-12 -2.500110334e-12 -1.318661102e-12 -1.23010464e-12 -7.057613426e-13)
5(-3.225762235e-12 -3.13060647e-12 -2.605418708e-12 -2.128997688e-12 -1.666417698e-12)
5(-4.854966357e-12 -4.245889659e-12 -3.854056989e-12 -3.127668449e-12 -2.719179952e-12)
5(-6.347739137e-12 -5.550028229e-12 -4.961300328e-12 -4.147542434e-12 -3.653299192e-12)
5(-7.666130291e-12 -7.017466411e-12 -6.077457023e-12 -5.248721826e-12 -4.453905271e-12)
5(-9.350828486e-12 -8.81629614e-12 -7.46255321e-12 -6.603170783e-12 -5.485043021e-12)
5(-1.175356615e-11 -1.103334952e-11 -9.395124166e-12 -8.323236493e-12 -6.934408072e-12)
5(-1.482921318e-11 -1.377201173e-11 -1.193087641e-11 -1.044196257e-11 -8.843710631e-12)
5(-1.852205508e-11 -1.696597627e-11 -1.490246092e-11 -1.288869484e-11 -1.100830156e-11)
5(-2.255795606e-11 -2.061339456e-11 -1.817509933e-11 -1.564287058e-11 -1.336942854e-11)
5(-2.72663762e-11 -2.470838032e-11 -2.180074287e-11 -1.873441794e-11 -1.596815837e-11)
5(-3.233743442e-11 -2.934706993e-11 -2.590311835e-11 -2.228497738e-11 -1.906727963e-11)
5(-3.794401136e-11 -3.460454761e-11 -3.065499926e-11 -2.646643828e-11 -2.288023293e-11)
5(-4.522211807e-11 -4.065750563e-11 -3.610341937e-11 -3.135331818e-11 -2.732831855e-11)
5(-5.299738292e-11 -4.761381177e-11 -4.228006339e-11 -3.701837916e-11 -3.248721914e-11)
5(-6.133197365e-11 -5.526929483e-11 -4.946396493e-11 -4.344466512e-11 -3.871089199e-11)
5(-7.099111225e-11 -6.400627126e-11 -5.770039955e-11 -5.097700896e-11 -4.630167348e-11)
5(-8.161482181e-11 -7.378095428e-11 -6.700461207e-11 -5.994399127e-11 -5.507103049e-11)
5(-9.299008905e-11 -8.455451916e-11 -7.775975491e-11 -7.023909725e-11 -6.608975663e-11)
5(-1.058346143e-10 -9.703756058e-11 -9.015997614e-11 -8.251895843e-11 -7.868271902e-11)
5(-1.207558623e-10 -1.116297236e-10 -1.046065696e-10 -9.770082429e-11 -9.535107501e-11)
5(-1.371382604e-10 -1.286360584e-10 -1.224080345e-10 -1.171151967e-10 -1.166592463e-10)
5(-1.544369025e-10 -1.488774837e-10 -1.455319039e-10 -1.432452107e-10 -1.462683212e-10)
5(-1.753122867e-10 -1.725909649e-10 -1.760166487e-10 -1.797694496e-10 -1.898096681e-10)
5(-2.033042493e-10 -2.054744535e-10 -2.173594711e-10 -2.319861533e-10 -2.513598993e-10)
5(-2.389454662e-10 -2.533997534e-10 -2.771254689e-10 -3.087240516e-10 -3.446125955e-10)
5(-2.847398795e-10 -3.20443263e-10 -3.660376916e-10 -4.219186883e-10 -4.824592472e-10)
5(-3.506909132e-10 -4.173855778e-10 -4.969185059e-10 -5.87004746e-10 -6.818046615e-10)
5(-4.467103735e-10 -5.570136765e-10 -6.844516272e-10 -8.258085644e-10 -9.675686938e-10)
5(-5.83117774e-10 -7.581339306e-10 -9.511501612e-10 -1.157490672e-09 -1.348424665e-09)
5(-7.782351155e-10 -1.041563812e-09 -1.32031166e-09 -1.599155794e-09 -1.847139809e-09)
5(-1.05111652e-09 -1.41972497e-09 -1.802674901e-09 -2.164421542e-09 -2.473223708e-09)
5(-1.420683007e-09 -1.908327479e-09 -2.410578375e-09 -2.850282605e-09 -3.197769814e-09)
5(-1.890291976e-09 -2.51284676e-09 -3.140373315e-09 -3.627398081e-09 -3.983653037e-09)
5(-2.454777263e-09 -3.214807873e-09 -3.942272066e-09 -4.433756184e-09 -4.73448757e-09)
5(-3.1155073e-09 -3.972783262e-09 -4.734611844e-09 -5.150475025e-09 -5.270245912e-09)
5(-3.818339679e-09 -4.694078311e-09 -5.386035537e-09 -5.609299317e-09 -5.386428959e-09)
5(-4.469025391e-09 -5.249831839e-09 -5.729308312e-09 -5.618427498e-09 -4.884254167e-09)
5(-4.947114041e-09 -5.476805614e-09 -5.569783955e-09 -4.966222165e-09 -3.675761163e-09)
5(-5.109599852e-09 -5.199040317e-09 -4.715281908e-09 -3.513272759e-09 -1.738371257e-09)
5(-4.800169974e-09 -4.261422641e-09 -3.085214546e-09 -1.285721572e-09 7.562839665e-10)
5(-3.888478081e-09 -2.597913564e-09 -6.924232492e-10 1.489325856e-09 3.452355033e-09)
5(-2.339570243e-09 -3.047231817e-10 2.174292107e-09 4.371753167e-09 5.899579802e-09)
5(-2.606242454e-10 2.37936235e-09 5.08516301e-09 6.792684581e-09 7.580493217e-09)
5(2.136551707e-09 5.035881503e-09 7.523397846e-09 8.331919086e-09 8.156624971e-09)
5(4.5818618e-09 7.209465925e-09 8.880268548e-09 8.68448919e-09 7.551157156e-09)
5(6.626049712e-09 8.471276994e-09 8.893229431e-09 7.764163516e-09 6.034633949e-09)
5(7.852614123e-09 8.56236694e-09 7.700760671e-09 6.00679256e-09 4.117177002e-09)
5(8.058411117e-09 7.559718021e-09 5.739677632e-09 3.985150946e-09 2.361830775e-09)
5(7.250489187e-09 5.658856183e-09 3.603673969e-09 2.215178693e-09 1.142437939e-09)
5(5.703127988e-09 3.524875696e-09 1.856148932e-09 1.007368386e-09 4.516539273e-10)
5(3.835368903e-09 1.848966717e-09 7.580922243e-10 3.542687375e-10 1.336824056e-10)
5(2.041555445e-09 7.578809683e-10 2.303247645e-10 9.413134898e-11 3.394359162e-11)
5(8.28687166e-10 2.179794205e-10 4.957260437e-11 1.727881013e-11 5.920246506e-12)
5(2.732255633e-10 4.256461326e-11 6.637710026e-12 2.170114948e-12 6.253215087e-13)
5(5.148213376e-11 3.391283824e-12 4.457475812e-13 -6.334013565e-13 5.541162745e-14)
5(4.400916351e-12 3.058746756e-13 -1.889811401e-12 1.007961582e-14 1.988788829e-15)
5(-1.253379175e-13 2.703610705e-12 -3.808767733e-12 1.623098669e-12 3.183955224e-17)
)


60
(
5(-2.252175562e-12 -3.401027693e-12 7.003235101e-15 -4.052792436e-13 4.318796682e-13)
5(-2.557041626e-12 -3.597089788e-12 -6.94335766e-13 -8.946879855e-13 -7.620349178e-14)
5(-3.326057124e-12 -3.842085754e-12 -2.260385613e-12 -1.976636863e-12 -1.268419656e-12)
5(-4.962336997e-12 -4.727613422e-12 -3.996540069e-12 -3.276927235e-12 -2.641393221e-12)
5(-7.24057625e-12 -6.355876828e-12 -5.784828832e-12 -4.777746527e-12 -4.142780855e-12)
5(-9.447055723e-12 -8.336462405e-12 -7.512204504e-12 -6.359044711e-12 -5.613192234e-12)
5(-1.151903906e-11 -1.060376336e-11 -9.307173694e-12 -8.087206567e-12 -6.921285987e-12)
5(-1.417104061e-11 -1.339290071e-11 -1.152596776e-11 -1.021311417e-11 -8.539124376e-12)
5(-1.779105233e-11 -1.677704787e-11 -1.4532001e-11 -1.287453907e-11 -1.084292032e-11)
5(-2.245915132e-11 -2.086057315e-11 -1.837353158e-11 -1.611685416e-11 -1.374605464e-11)
5(-2.771287349e-11 -2.562194283e-11 -2.281925338e-11 -1.985411861e-11 -1.702603042e-11)
5(-3.380361266e-11 -3.105058107e-11 -2.777032965e-11 -2.404947388e-11 -2.065866763e-11)
5(-4.062112384e-11 -3.715072118e-11 -3.322476202e-11 -2.877874862e-11 -2.467586143e-11)
5(-4.842656744e-11 -4.411782845e-11 -3.941325137e-11 -3.418931104e-11 -2.950286785e-11)
5(-5.736364412e-11 -5.207046184e-11 -4.654272817e-11 -4.041272012e-11 -3.515068308e-11)
5(-6.708511564e-11 -6.098981496e-11 -5.469855284e-11 -4.768445909e-11 -4.201596101e-11)
5(-7.854268268e-11 -7.117648869e-11 -6.406675138e-11 -5.618777808e-11 -4.992665913e-11)
5(-9.079763402e-11 -8.249971023e-11 -7.470926971e-11 -6.605806542e-11 -5.938858662e-11)
5(-1.049347547e-10 -9.503585608e-11 -8.67692903e-11 -7.73019136e-11 -7.033736585e-11)
5(-1.208054428e-10 -1.09238549e-10 -1.002809058e-10 -8.995727775e-11 -8.255721954e-11)
5(-1.361237377e-10 -1.247849342e-10 -1.152592988e-10 -1.044012106e-10 -9.798196099e-11)
5(-1.547950729e-10 -1.41980288e-10 -1.325110494e-10 -1.208489171e-10 -1.15128697e-10)
5(-1.760178719e-10 -1.612468861e-10 -1.51991246e-10 -1.401617687e-10 -1.35277767e-10)
5(-1.959833131e-10 -1.821339492e-10 -1.738365272e-10 -1.635355981e-10 -1.615861864e-10)
5(-2.1881745e-10 -2.055588441e-10 -2.001845124e-10 -1.921948354e-10 -1.934037167e-10)
5(-2.460026279e-10 -2.338054394e-10 -2.324182991e-10 -2.294285186e-10 -2.364357929e-10)
5(-2.747966582e-10 -2.683135404e-10 -2.733604291e-10 -2.80241482e-10 -2.992869914e-10)
5(-3.065595916e-10 -3.112257959e-10 -3.29245382e-10 -3.516926934e-10 -3.882837232e-10)
5(-3.492264073e-10 -3.694226215e-10 -4.0956433e-10 -4.550914492e-10 -5.171276253e-10)
5(-4.088238675e-10 -4.534506222e-10 -5.256511811e-10 -6.062508189e-10 -7.09058683e-10)
5(-4.88013681e-10 -5.738514449e-10 -6.924052889e-10 -8.224319606e-10 -9.792622315e-10)
5(-5.983071646e-10 -7.442740625e-10 -9.307310533e-10 -1.127159814e-09 -1.348049023e-09)
5(-7.549279157e-10 -9.831153523e-10 -1.260418821e-09 -1.54387462e-09 -1.858695469e-09)
5(-9.839779718e-10 -1.311883048e-09 -1.703754581e-09 -2.088372261e-09 -2.485573489e-09)
5(-1.295785457e-09 -1.751171597e-09 -2.278906272e-09 -2.769731482e-09 -3.232401885e-09)
5(-1.695999266e-09 -2.310302506e-09 -2.988509716e-09 -3.576981192e-09 -4.101800748e-09)
5(-2.210104584e-09 -2.983184413e-09 -3.805757681e-09 -4.454652803e-09 -4.989522242e-09)
5(-2.826003065e-09 -3.736490685e-09 -4.663139335e-09 -5.312254816e-09 -5.752821524e-09)