/*--------------------------------*- C++ -*----------------------------------*\
| =========                 |                                                 |
| \\      /  F ield         | OpenFOAM: The Open Source CFD Toolbox           |
|  \\    /   O peration     | Version:  2.3.1                                 |
|   \\  /    A nd           | Web:      www.OpenFOAM.org                      |
|    \\/     M anipulation  |                                                 |
\*---------------------------------------------------------------------------*/
FoamFile
{
    version     2.0;
    format      ascii;
    class       dictionary;
    location    "constant";
    object      DPSI15;
}
// * * * * * * * * * * * * * * * * * * * * * * * * * * * * * * * * * * * * * //

DPSI15_table
60
(

60
(
5(1.764456532e-13 8.550638735e-14 2.28767413e-13 1.26123644e-13 2.058325648e-13)
5(1.499642949e-13 3.546741298e-14 1.666982854e-13 1.013925007e-13 1.748036537e-13)
5(5.599300553e-14 -1.257060338e-14 5.213500165e-14 5.254474804e-14 5.072833479e-14)
5(0 -8.01093923e-16 -3.497905133e-15 1.547688479e-15 -1.201950705e-14)
5(-1.056780729e-14 6.378958689e-15 1.279020415e-14 -2.015254562e-14 5.553861879e-15)
5(-2.583728451e-14 6.587742213e-15 1.355722865e-14 4.577188452e-15 -1.763062808e-14)
5(1.959157474e-15 4.601196663e-15 -1.398806125e-14 6.823357395e-15 7.748490937e-15)
5(1.144094547e-14 1.954910652e-15 1.314610992e-15 -5.167079e-16 2.266762097e-14)
5(-1.958502537e-15 2.080310873e-16 9.404804868e-15 6.167666908e-15 -3.185301596e-15)
5(3.362112885e-15 1.359210878e-15 2.008267962e-15 6.523095356e-15 3.700665462e-15)
5(-2.076756047e-15 7.459411703e-15 8.685281972e-15 4.748515663e-15 5.276427075e-15)
5(8.986045728e-15 8.337510172e-15 8.668638382e-15 4.483524499e-15 5.404214527e-15)
5(1.070816136e-14 4.526932277e-15 5.916319488e-15 4.523625872e-15 4.432017051e-15)
5(3.553826277e-15 3.990348122e-15 4.884574994e-15 3.812599339e-15 3.416652162e-15)
5(3.171014043e-15 -1.850485782e-15 2.702668431e-15 8.711307713e-16 1.618424343e-15)
5(9.848391449e-16 -2.031015468e-15 9.913856572e-16 1.0765965e-15 9.876489205e-16)
5(2.06993213e-15 3.997085567e-15 2.412358988e-15 1.836481958e-15 8.623090919e-16)
5(2.279588853e-15 4.082351842e-15 2.213471018e-15 1.061873239e-15 4.571529935e-16)
5(1.258890484e-15 3.24159153e-15 7.491512544e-16 4.407972676e-16 3.614661538e-16)
5(5.627974859e-16 1.527942632e-15 6.271569302e-16 3.022316485e-16 4.400627382e-16)
5(5.37212624e-16 5.320056261e-16 4.81733825e-16 5.800748074e-16 4.074951918e-16)
5(2.060794423e-16 2.19659074e-16 2.199336408e-16 2.539570042e-16 1.248979932e-16)
5(1.337731193e-16 -9.284530036e-17 1.513425031e-16 -1.201105631e-16 -5.137221755e-17)
5(1.888272391e-17 -3.112486954e-16 -1.070614496e-16 -1.784014526e-16 -8.399906913e-17)
5(-2.396057233e-16 -5.36953925e-16 -4.71544829e-16 -4.854111841e-16 -2.144189335e-16)
5(-4.048578239e-16 -5.886860941e-16 -5.445788267e-16 -7.13503946e-16 -3.278177821e-16)
5(-6.523218019e-16 -5.953646067e-16 -8.611940143e-16 -9.565507614e-16 -5.125194341e-16)
5(-1.270874269e-15 -1.330864657e-15 -1.377656426e-15 -1.241658124e-15 -7.826955477e-16)
5(-2.005524906e-15 -2.494766476e-15 -1.842823994e-15 -1.468309156e-15 -1.036508017e-15)
5(-2.952957357e-15 -3.704062721e-15 -3.179612262e-15 -2.54064869e-15 -1.481449301e-15)
5(-4.326091835e-15 -4.89043934e-15 -4.13957451e-15 -3.060815597e-15 -1.105005899e-15)
5(-5.945816486e-15 -6.970282849e-15 -5.758429617e-15 -3.805667017e-15 -2.517680836e-15)
5(-8.770036885e-15 -1.041760864e-14 -9.169673324e-15 -5.261143736e-15 -2.158168221e-15)
5(-1.276720648e-14 -1.338580988e-14 -1.114568129e-14 -6.214117975e-15 -9.59853398e-16)
5(-1.731991795e-14 -1.890166849e-14 -1.68091663e-14 -7.679447362e-15 -2.447617936e-15)
5(-2.272910957e-14 -1.982737271e-14 -1.2341194e-14 -5.015993428e-15 -2.086107459e-15)
5(-2.845497089e-14 -2.371029665e-14 -8.363211461e-15 -4.361674349e-15 4.377594619e-15)
5(-3.502779214e-14 -2.768447273e-14 -1.645835611e-14 -2.225476511e-15 1.306690166e-15)
5(-4.416954924e-14 -2.439508678e-14 -1.769907452e-14 2.006250988e-15 4.888732119e-15)
5(-4.295106855e-14 -1.332500909e-14 1.587363254e-15 6.142212292e-15 8.959690868e-15)
5(-2.729268522e-14 1.138839295e-15 1.927734718e-14 1.306925153e-14 4.405067343e-17)
5(-1.278216315e-14 1.811648068e-14 2.388428922e-14 2.02789213e-14 7.42608047e-17)
5(1.761256115e-15 2.665814131e-14 8.847433682e-15 1.284032806e-14 -2.802632892e-16)
5(2.270297203e-14 3.285504847e-14 1.228841527e-14 -1.187984671e-27 -2.506719208e-17)
5(5.232069329e-14 3.850291936e-14 3.437545538e-14 -2.999532491e-27 2.872882066e-16)
5(6.858376848e-14 3.337072121e-14 2.048466655e-14 -6.298963406e-17 2.568296737e-17)
5(5.390180437e-14 3.083704242e-14 6.090194298e-15 3.614870644e-21 -4.61363632e-26)
5(4.682582847e-14 1.495290791e-14 1.721295002e-15 6.44425854e-17 -1.030112733e-25)
5(3.780629098e-14 2.614414512e-15 3.754939636e-16 -7.862970692e-26 -2.208596382e-25)
5(1.577792287e-14 1.148269673e-15 4.040453315e-17 -1.679885219e-25 -4.636103879e-25)
5(6.590621527e-15 2.224165459e-17 -1.022843371e-25 -3.474699109e-25 -9.48567507e-25)
5(2.598095637e-15 -6.381794574e-26 -2.102211045e-25 -6.992826766e-25 -1.88718815e-24)
5(5.068806601e-16 -1.28403566e-25 -4.239515193e-25 -1.370904763e-24 -3.701766609e-24)
5(4.926254628e-18 -2.531833238e-25 -8.340493476e-25 -2.644983657e-24 -7.05893247e-24)
5(-3.150938006e-25 -4.906563068e-25 -1.607093515e-24 -4.945867777e-24 -1.309034403e-23)
5(-1.035133044e-24 -9.421943872e-25 -3.049744388e-24 -9.036223482e-24 -2.321628832e-23)
5(-1.545809903e-24 -2.776119255e-24 -5.756101482e-24 -1.608318464e-23 -3.969048944e-23)
5(-1.516320801e-24 -5.507272637e-24 -1.370311782e-23 -1.837962766e-23 -6.588765315e-23)
5(-1.597023294e-24 -8.548568163e-24 -3.024493394e-23 -9.899674597e-23 -2.087006818e-22)
5(-1.731124446e-24 -1.047923725e-23 -4.093280812e-23 -1.847853011e-22 -3.395548107e-22)
)


60
(
5(2.038635563e-13 -1.494936721e-14 2.611737929e-13 1.00650366e-13 1.385342739e-13)
5(1.542437436e-13 -1.472556014e-14 1.908906985e-13 7.624254652e-14 1.095676382e-13)
5(5.32643763e-14 -1.446615477e-14 5.832070701e-14 2.64558911e-14 4.53773684e-14)
5(-1.597495945e-14 -1.629502763e-14 -1.660535101e-14 -1.758368099e-15 -1.708826936e-16)
5(-4.685222685e-14 -1.165275184e-14 -3.825989347e-14 -6.303753571e-15 -1.348435547e-14)
5(-2.807110386e-14 7.256428183e-15 -1.158191082e-14 1.228979278e-14 5.147189021e-15)
5(1.35910031e-14 3.242816734e-14 3.135848608e-14 3.969508802e-14 3.435807181e-14)
5(4.914665432e-14 5.515833173e-14 6.512158862e-14 6.242952756e-14 5.595912002e-14)
5(7.591710276e-14 7.771073886e-14 8.481897146e-14 7.965127724e-14 6.922405063e-14)
5(9.109285825e-14 9.83884081e-14 9.859747329e-14 9.251278516e-14 7.781204414e-14)
5(1.044516148e-13 1.100855327e-13 1.09485177e-13 9.923137163e-14 8.261236154e-14)
5(1.147111865e-13 1.101897891e-13 1.122654524e-13 9.686522735e-14 8.087242622e-14)
5(1.09371616e-13 9.926385092e-14 1.03465459e-13 8.48256732e-14 7.101196921e-14)
5(9.552908932e-14 8.066939778e-14 8.52836642e-14 6.653718268e-14 5.577004358e-14)
5(7.545675169e-14 6.069220646e-14 6.380967934e-14 4.803078866e-14 4.007439562e-14)
5(5.575896441e-14 4.346923646e-14 4.513870135e-14 3.306668446e-14 2.73352877e-14)
5(3.974032047e-14 3.075734044e-14 3.124725067e-14 2.248244683e-14 1.828031657e-14)
5(2.876703258e-14 2.194629228e-14 2.163666807e-14 1.543136413e-14 1.234344746e-14)
5(2.121575398e-14 1.591173137e-14 1.529626148e-14 1.077845995e-14 8.53249664e-15)
5(1.590616511e-14 1.175080719e-14 1.096168058e-14 7.540719325e-15 5.811289904e-15)
5(1.202871687e-14 8.645134113e-15 7.774297763e-15 5.122442865e-15 3.764158368e-15)
5(8.885251209e-15 6.071393006e-15 5.216481885e-15 3.114313518e-15 2.108857105e-15)
5(6.511891886e-15 3.786681699e-15 2.957162055e-15 1.200124945e-15 5.462354801e-16)
5(4.29179286e-15 1.604642506e-15 7.622908645e-16 -7.613182812e-16 -1.142376333e-15)
5(1.886095887e-15 -7.558119025e-16 -1.604610655e-15 -3.018160993e-15 -3.132906237e-15)
5(-6.210659417e-16 -3.527524385e-15 -4.500874356e-15 -5.887582752e-15 -5.675259758e-15)
5(-3.681539746e-15 -7.042687835e-15 -8.245499912e-15 -9.645040214e-15 -8.998399329e-15)
5(-7.583072592e-15 -1.174434533e-14 -1.325701108e-14 -1.472966098e-14 -1.354344505e-14)
5(-1.267858978e-14 -1.811847996e-14 -2.010701542e-14 -2.168696986e-14 -1.978326852e-14)
5(-1.978480921e-14 -2.686499772e-14 -2.955705728e-14 -3.116509292e-14 -2.800757491e-14)
5(-2.962291693e-14 -3.891999903e-14 -4.223953351e-14 -4.369784541e-14 -3.868305223e-14)
5(-4.296996942e-14 -5.498350445e-14 -5.907851143e-14 -5.978615104e-14 -5.228899126e-14)
5(-6.110758474e-14 -7.616493229e-14 -8.089324721e-14 -7.975247027e-14 -6.779768745e-14)
5(-8.536655278e-14 -1.035719834e-13 -1.080024234e-13 -1.027848973e-13 -8.453267261e-14)
5(-1.16640275e-13 -1.3661477e-13 -1.39478616e-13 -1.272910789e-13 -1.008637423e-13)
5(-1.552780385e-13 -1.74228036e-13 -1.728473166e-13 -1.499648571e-13 -1.132993481e-13)
5(-1.995364772e-13 -2.138752132e-13 -2.037087289e-13 -1.659154077e-13 -1.176632698e-13)
5(-2.462711137e-13 -2.482198359e-13 -2.245349792e-13 -1.684091109e-13 -1.056568691e-13)
5(-2.891877621e-13 -2.706371498e-13 -2.262601207e-13 -1.490308859e-13 -6.90112332e-14)
5(-3.173529047e-13 -2.680068373e-13 -1.978012327e-13 -1.020710103e-13 -8.065106468e-15)
5(-3.158057178e-13 -2.3120856e-13 -1.361292596e-13 -2.523195051e-14 6.531828343e-14)
5(-2.744458511e-13 -1.518393594e-13 -4.077461485e-14 7.546297202e-14 1.313542915e-13)
5(-1.843859673e-13 -2.584408429e-14 8.102088596e-14 1.784860025e-13 1.728030471e-13)
5(-4.067337811e-14 1.215367823e-13 2.090527912e-13 2.544330696e-13 1.832950259e-13)
5(1.377214198e-13 2.658791768e-13 3.165730129e-13 2.806984904e-13 1.644580543e-13)
5(3.138767401e-13 3.80425344e-13 3.742095373e-13 2.542119139e-13 1.246143486e-13)
5(4.5213032e-13 4.354487245e-13 3.624233051e-13 1.937359932e-13 7.87676087e-14)
5(5.142912823e-13 4.183048449e-13 2.890178741e-13 1.249015113e-13 4.114939297e-14)
5(4.891661957e-13 3.394075097e-13 1.898359988e-13 6.740631214e-14 1.777404421e-14)
5(3.911746487e-13 2.290262642e-13 1.02520045e-13 2.987691273e-14 6.468620567e-15)
5(2.589485763e-13 1.24502588e-13 4.529216916e-14 1.075589197e-14 2.067916158e-15)
5(1.385734613e-13 5.35618119e-14 1.572693952e-14 3.312075895e-15 5.8319903e-16)
5(5.66438668e-14 1.799700128e-14 4.472623348e-15 8.801528552e-16 1.484287719e-16)
5(1.825786403e-14 4.671736459e-15 1.0614089e-15 2.042007964e-16 3.367310251e-17)
5(3.916253873e-15 8.830438253e-16 1.950904451e-16 4.038034426e-17 6.811540876e-18)
5(5.747419725e-16 1.349857413e-16 2.924795366e-17 6.487410465e-18 1.108181285e-18)
5(4.992535413e-17 1.253754661e-17 3.346223952e-18 4.158269744e-19 1.43827467e-19)
5(2.907249867e-18 1.660736844e-18 1.965185714e-19 5.979887398e-19 1.045974101e-20)
5(8.407295569e-20 4.941682678e-20 -4.268848691e-17 3.601656113e-19 2.785219244e-23)
5(7.741063857e-22 -1.436271315e-18 -8.554167933e-17 -1.085455538e-18 -4.166100115e-22)
)


60
(
5(1.625816056e-13 -1.368316432e-13 2.881651388e-13 8.88534087e-14 1.124724694e-13)
5(1.21813303e-13 -1.226278595e-13 2.051900679e-13 6.449926986e-14 8.708893459e-14)
5(1.769063316e-14 -8.289446496e-14 4.297408648e-14 1.575469318e-14 3.295255562e-14)
5(-7.393467715e-14 -5.952913005e-14 -4.738127722e-14 -9.00525921e-15 -1.090052314e-15)
5(-1.19254164e-13 -4.092358336e-14 -6.510740697e-14 -5.859729916e-15 -8.083054852e-15)
5(-8.129453706e-14 -4.41913829e-16 -1.49071787e-14 2.48171634e-14 1.32189436e-14)
5(1.704256317e-14 5.858566244e-14 6.104849013e-14 6.691728983e-14 4.666933246e-14)
5(1.118962951e-13 1.202945337e-13 1.251259155e-13 1.058563025e-13 7.48351954e-14)
5(1.794879636e-13 1.79429712e-13 1.71414654e-13 1.39574298e-13 9.685200566e-14)
5(2.281809682e-13 2.326756843e-13 2.089581618e-13 1.677816315e-13 1.147290883e-13)
5(2.813444823e-13 2.718060122e-13 2.398688603e-13 1.872584107e-13 1.274800804e-13)
5(3.214301405e-13 2.871662048e-13 2.533582149e-13 1.914424334e-13 1.318449952e-13)
5(3.228113792e-13 2.745891764e-13 2.443875285e-13 1.776963924e-13 1.240721524e-13)
5(2.943090001e-13 2.364877683e-13 2.137247597e-13 1.496360098e-13 1.060767215e-13)
5(2.448328312e-13 1.868182775e-13 1.698799732e-13 1.158147006e-13 8.277494448e-14)
5(1.868290902e-13 1.386319298e-13 1.253025065e-13 8.454469287e-14 6.021466736e-14)
5(1.374920191e-13 9.956359087e-14 8.892315885e-14 5.952439758e-14 4.236535925e-14)
5(9.920396476e-14 7.15322479e-14 6.262247493e-14 4.149565061e-14 2.941817804e-14)
5(7.269357737e-14 5.19514698e-14 4.466203136e-14 2.921214884e-14 2.067551148e-14)
5(5.380506247e-14 3.843040664e-14 3.215875449e-14 2.079621695e-14 1.454209919e-14)
5(4.136143598e-14 2.877718868e-14 2.331180633e-14 1.470480639e-14 9.918697426e-15)
5(3.219267467e-14 2.140045925e-14 1.676677626e-14 1.003704028e-14 6.224175409e-15)
5(2.429809053e-14 1.54113524e-14 1.14794209e-14 5.997868767e-15 3.083820905e-15)
5(1.811414755e-14 1.024129679e-14 6.66907447e-15 2.075414913e-15 -1.019332013e-16)
5(1.237687736e-14 5.292616083e-15 1.909158203e-15 -2.130373288e-15 -3.745107981e-15)
5(7.227494427e-15 1.076056814e-16 -3.263208505e-15 -6.957885824e-15 -8.134155927e-15)
5(1.124499944e-15 -5.750340883e-15 -9.283126423e-15 -1.30444462e-14 -1.38370017e-14)
5(-5.182678455e-15 -1.308353875e-14 -1.714303495e-14 -2.12333038e-14 -2.16567042e-14)
5(-1.314031405e-14 -2.268318906e-14 -2.784534204e-14 -3.235682398e-14 -3.249002678e-14)
5(-2.376314748e-14 -3.549236764e-14 -4.216102382e-14 -4.750963571e-14 -4.651544908e-14)
5(-3.766011518e-14 -5.30567947e-14 -6.153410803e-14 -6.782318681e-14 -6.533799834e-14)
5(-5.675753896e-14 -7.657054815e-14 -8.771108971e-14 -9.455138941e-14 -8.957249419e-14)
5(-8.249515347e-14 -1.076146779e-13 -1.219196699e-13 -1.278669974e-13 -1.193895712e-13)
5(-1.164114419e-13 -1.479093767e-13 -1.64847735e-13 -1.681917322e-13 -1.533760473e-13)
5(-1.607269046e-13 -1.981372556e-13 -2.163871366e-13 -2.146670698e-13 -1.896735972e-13)
5(-2.173801837e-13 -2.572944407e-13 -2.745562948e-13 -2.627727145e-13 -2.251752818e-13)
5(-2.805994885e-13 -3.227512781e-13 -3.337019044e-13 -3.05645002e-13 -2.49899476e-13)
5(-3.526426702e-13 -3.885525764e-13 -3.840211224e-13 -3.329675751e-13 -2.519476122e-13)
5(-4.255780589e-13 -4.417046376e-13 -4.135750929e-13 -3.314553665e-13 -2.192929793e-13)
5(-4.813580791e-13 -4.670529753e-13 -4.065193283e-13 -2.871558046e-13 -1.407757044e-13)
5(-5.107097791e-13 -4.490184301e-13 -3.450661467e-13 -1.889978154e-13 -2.270342741e-14)
5(-4.888155021e-13 -3.678871728e-13 -2.207936125e-13 -3.553267346e-14 1.13297108e-13)
5(-3.937669542e-13 -2.145836653e-13 -3.837608681e-14 1.551637089e-13 2.439122605e-13)
5(-2.23906228e-13 2.885663243e-15 1.870987193e-13 3.423661563e-13 3.424803339e-13)
5(1.530225323e-14 2.558579378e-13 4.177596074e-13 4.799557106e-13 3.887013614e-13)
5(2.980527699e-13 4.965722398e-13 6.012037003e-13 5.375509922e-13 3.719538254e-13)
5(5.64957623e-13 6.800848171e-13 6.852397929e-13 5.065196374e-13 3.033667584e-13)
5(7.561981176e-13 7.608242704e-13 6.483457367e-13 4.055449122e-13 2.106534055e-13)
5(8.31138922e-13 7.157530576e-13 5.16037692e-13 2.781778831e-13 1.226215157e-13)
5(7.700704212e-13 5.698144573e-13 3.440925038e-13 1.608482205e-13 5.979878617e-14)
5(6.037287983e-13 3.781746612e-13 1.913734686e-13 7.628216553e-14 2.407608483e-14)
5(3.931690923e-13 2.035271782e-13 8.63095886e-14 3.001007459e-14 7.984546572e-15)
5(2.029844354e-13 8.620385568e-14 3.055021919e-14 9.351343964e-15 2.318593304e-15)
5(7.931652784e-14 2.790859812e-14 8.385742913e-15 2.367585576e-15 5.633500135e-16)
5(2.187500838e-14 6.567923901e-15 1.673019075e-15 4.607198626e-16 1.137410996e-16)
5(4.172028521e-15 1.077692746e-15 2.547441297e-16 7.565414026e-17 1.996425025e-17)
5(4.57135603e-16 1.368287387e-16 2.583745395e-17 2.518402269e-17 2.442345849e-18)
5(2.900987569e-17 8.317611394e-15 1.885314372e-18 5.419656195e-15 1.843356342e-19)
5(5.567701616e-19 -1.263636793e-17 -9.332151129e-17 -1.246731235e-17 7.120819538e-21)
5(7.23194887e-21 -1.674968457e-14 -1.869963776e-16 -1.092362968e-14 -7.165302236e-22)
)


60
(
5(-2.476194425e-15 -3.604874068e-13 2.630520058e-13 6.156256457e-14 9.193689851e-14)
5(-2.69860784e-14 -3.196492957e-13 1.743084336e-13 3.798193006e-14 6.802375474e-14)
5(-9.241861614e-14 -2.050234946e-13 7.145521686e-16 -6.36435989e-15 1.809412778e-14)
5(-1.872210871e-13 -1.347826006e-13 -9.502409897e-14 -2.529872918e-14 -1.29678541e-14)
5(-2.434652326e-13 -9.184699594e-14 -1.007245229e-13 -1.392734468e-14 -1.892941475e-14)
5(-1.603533453e-13 -1.468882334e-14 -1.956378425e-14 2.865874791e-14 5.114838649e-15)
5(1.987850827e-14 9.140638703e-14 9.364896378e-14 8.573053319e-14 4.483037525e-14)
5(1.822262361e-13 1.980446793e-13 1.929000237e-13 1.419071426e-13 8.130439489e-14)
5(3.147849277e-13 3.118804168e-13 2.717598519e-13 1.945295023e-13 1.124708216e-13)
5(4.481136771e-13 4.191420206e-13 3.390933631e-13 2.421447857e-13 1.411101647e-13)
5(5.607171381e-13 5.039600784e-13 3.995541345e-13 2.809280262e-13 1.665494442e-13)
5(6.392605977e-13 5.515699043e-13 4.395668161e-13 3.016350739e-13 1.836079848e-13)
5(6.722927921e-13 5.469417232e-13 4.415025799e-13 2.959497082e-13 1.833963776e-13)
5(6.434432777e-13 4.936189626e-13 4.027639504e-13 2.639076241e-13 1.671121404e-13)
5(5.548513468e-13 4.08428342e-13 3.360416077e-13 2.166266738e-13 1.397087522e-13)
5(4.367644575e-13 3.174076691e-13 2.599759722e-13 1.670082926e-13 1.080874701e-13)
5(3.310860127e-13 2.363496287e-13 1.914417761e-13 1.226598036e-13 8.008578337e-14)
5(2.432159257e-13 1.713007384e-13 1.376199659e-13 8.784254173e-14 5.749065681e-14)
5(1.769740387e-13 1.240294097e-13 9.881019527e-14 6.297416002e-14 4.146009158e-14)
5(1.316524015e-13 9.113686835e-14 7.184867549e-14 4.556516859e-14 2.970913436e-14)
5(1.00384039e-13 6.850190492e-14 5.291674033e-14 3.304731539e-14 2.087271859e-14)
5(7.721682676e-14 5.179276511e-14 3.874157593e-14 2.366612609e-14 1.419811898e-14)
5(5.926598298e-14 3.857796532e-14 2.780249109e-14 1.618040714e-14 8.696643416e-15)
5(4.579253125e-14 2.799469622e-14 1.913919129e-14 9.378836965e-15 3.795183198e-15)
5(3.396662136e-14 1.909435372e-14 1.136559602e-14 2.779420921e-15 -1.606592107e-15)
5(2.370172506e-14 1.073330164e-14 3.236592526e-15 -4.314604684e-15 -8.268224987e-15)
5(1.398014121e-14 1.809770885e-15 -5.585988633e-15 -1.274591221e-14 -1.601978138e-14)
5(4.229212247e-15 -8.411875578e-15 -1.61026728e-14 -2.352529981e-14 -2.65331945e-14)
5(-6.43332761e-15 -2.081224697e-14 -2.973238056e-14 -3.782514042e-14 -4.064275873e-14)
5(-2.010265891e-14 -3.665385426e-14 -4.789035841e-14 -5.719666664e-14 -5.996441342e-14)
5(-3.743719342e-14 -5.779686301e-14 -7.217567286e-14 -8.336320978e-14 -8.589128045e-14)
5(-5.989251753e-14 -8.591416644e-14 -1.045609395e-13 -1.180357029e-13 -1.193597914e-13)
5(-8.982344128e-14 -1.233545584e-13 -1.472381506e-13 -1.622437604e-13 -1.610867862e-13)
5(-1.295919298e-13 -1.72407612e-13 -2.019933343e-13 -2.173032645e-13 -2.124799642e-13)
5(-1.808160161e-13 -2.340185064e-13 -2.691211314e-13 -2.830006428e-13 -2.687570131e-13)
5(-2.456990996e-13 -3.080608787e-13 -3.477798299e-13 -3.549065132e-13 -3.271860618e-13)
5(-3.258765059e-13 -3.93869663e-13 -4.329071894e-13 -4.264414922e-13 -3.817631179e-13)
5(-4.163460329e-13 -4.850361005e-13 -5.151412125e-13 -4.860517518e-13 -4.113595629e-13)
5(-5.09921554e-13 -5.69569723e-13 -5.800041914e-13 -5.162503023e-13 -3.990380664e-13)
5(-5.99122927e-13 -6.328580486e-13 -6.053073582e-13 -4.973606234e-13 -3.271701251e-13)
5(-6.606081703e-13 -6.506643054e-13 -5.691595448e-13 -4.080506098e-13 -1.951390775e-13)
5(-6.745697946e-13 -5.972681922e-13 -4.532605155e-13 -2.355197896e-13 -1.120544739e-14)
5(-6.167193856e-13 -4.547167415e-13 -2.481123437e-13 1.177770224e-14 2.005248449e-13)
5(-4.659005321e-13 -2.177417294e-13 3.911282398e-14 2.959903906e-13 4.0231676e-13)
5(-2.173191397e-13 9.700339118e-14 3.758244961e-13 5.599572395e-13 5.632640143e-13)
5(1.156817964e-13 4.449244363e-13 6.976546044e-13 7.462282086e-13 6.376491646e-13)
5(4.7709045e-13 7.675525581e-13 9.214461377e-13 8.196101904e-13 6.110485425e-13)
5(8.066144808e-13 9.983336342e-13 9.962511124e-13 7.693752116e-13 5.014539253e-13)
5(1.037879189e-12 1.074551702e-12 9.181088516e-13 6.19153189e-13 3.503662754e-13)
5(1.110300136e-12 9.814523431e-13 7.112929606e-13 4.216648495e-13 2.087983383e-13)
5(1.018222113e-12 7.631407061e-13 4.591400253e-13 2.407081171e-13 1.036091652e-13)
5(8.023264357e-13 4.905423399e-13 2.479501948e-13 1.14671214e-13 4.209451427e-14)
5(5.22719695e-13 2.520422988e-13 1.079543729e-13 4.294018772e-14 1.365371354e-14)
5(2.6530487e-13 1.022703849e-13 3.605720911e-14 1.282292684e-14 3.700722232e-15)
5(1.021664613e-13 3.060609575e-14 8.635060733e-15 2.916737396e-15 7.953525545e-16)
5(2.863442261e-14 6.234735991e-15 1.408582779e-15 4.763839236e-16 1.339842773e-16)
5(4.552366758e-15 6.925702028e-16 1.586651792e-16 -4.375340122e-17 1.795219167e-17)
5(3.018843967e-16 -3.711192479e-14 3.964540139e-16 -4.036005653e-14 1.284197115e-18)
5(1.965500411e-17 -1.371891451e-17 -2.855541996e-19 6.908905958e-17 4.814832399e-20)
5(4.346142989e-19 7.453094614e-14 -7.773207923e-16 8.12699583e-14 -1.029860689e-21)
)


60
(
5(-3.134026291e-13 -6.712766399e-13 1.919125156e-13 2.146856777e-14 7.03460922e-14)
5(-3.041669908e-13 -5.929232407e-13 1.01345767e-13 -1.467407392e-15 4.580708262e-14)
5(-2.87055448e-13 -3.742011556e-13 -6.874485997e-14 -3.98337185e-14 -4.128232314e-15)
5(-3.536446956e-13 -2.372302098e-13 -1.536697191e-13 -5.210635744e-14 -3.55813517e-14)
5(-3.996916448e-13 -1.547539773e-13 -1.382081161e-13 -3.329649967e-14 -4.243258257e-14)
5(-2.633984917e-13 -3.645594858e-14 -2.787467982e-14 1.942929338e-14 -1.673735008e-14)
5(9.859514855e-15 1.213398635e-13 1.190596499e-13 9.075613226e-14 2.956992953e-14)
5(2.755042991e-13 2.853684452e-13 2.529776711e-13 1.632612e-13 7.561728091e-14)
5(4.930175835e-13 4.541430259e-13 3.680274796e-13 2.35100246e-13 1.173411213e-13)
5(7.092603531e-13 6.290464033e-13 4.748330314e-13 3.068407093e-13 1.594563468e-13)
5(9.196238776e-13 7.801376824e-13 5.748298864e-13 3.725119093e-13 2.012157844e-13)
5(1.073321734e-12 8.763393739e-13 6.475998435e-13 4.175100806e-13 2.334298039e-13)
5(1.140777283e-12 9.040428755e-13 6.728588736e-13 4.284921012e-13 2.473043308e-13)
5(1.1217071e-12 8.497752422e-13 6.387593887e-13 4.028489275e-13 2.379027915e-13)
5(1.011517582e-12 7.33630427e-13 5.552399397e-13 3.491342219e-13 2.09402799e-13)
5(8.29288493e-13 5.903042084e-13 4.511604623e-13 2.820636366e-13 1.727143226e-13)
5(6.449875425e-13 4.519351886e-13 3.467868259e-13 2.15534508e-13 1.339809335e-13)
5(4.827335093e-13 3.352275753e-13 2.556651877e-13 1.599422608e-13 9.960974013e-14)
5(3.543313323e-13 2.455543954e-13 1.862469705e-13 1.173212178e-13 7.332990621e-14)
5(2.63980048e-13 1.813073447e-13 1.365056298e-13 8.567831051e-14 5.369284147e-14)
5(1.986193256e-13 1.356348864e-13 1.006825258e-13 6.301359169e-14 3.888860073e-14)
5(1.513597228e-13 1.024180589e-13 7.480336188e-14 4.618616247e-14 2.745902003e-14)
5(1.164191899e-13 7.748250613e-14 5.556493073e-14 3.312413015e-14 1.890698208e-14)
5(9.122006648e-14 5.814607858e-14 4.030180205e-14 2.233136397e-14 1.112345134e-14)
5(7.010531694e-14 4.236809811e-14 2.71586439e-14 1.247524845e-14 3.171505429e-15)
5(5.219053754e-14 2.936841521e-14 1.520316193e-14 2.587651809e-15 -5.165332187e-15)
5(3.721245394e-14 1.669975672e-14 3.508036248e-15 -8.245447197e-15 -1.48935072e-14)
5(2.176373786e-14 2.77442283e-15 -9.619822284e-15 -2.133365516e-14 -2.78989705e-14)
5(6.732256507e-15 -1.242419724e-14 -2.588932623e-14 -3.816198976e-14 -4.505276589e-14)
5(-9.660729441e-15 -3.079740569e-14 -4.679677987e-14 -6.039217398e-14 -6.79398008e-14)
5(-2.87696231e-14 -5.401704019e-14 -7.390407447e-14 -9.057497789e-14 -9.946482816e-14)
5(-5.338473267e-14 -8.471932553e-14 -1.101573226e-13 -1.3060216e-13 -1.390604456e-13)
5(-8.560691474e-14 -1.257944778e-13 -1.585654904e-13 -1.82282028e-13 -1.901523948e-13)
5(-1.280354485e-13 -1.786949055e-13 -2.202355574e-13 -2.476260654e-13 -2.547997124e-13)
5(-1.835380228e-13 -2.460996512e-13 -2.975974782e-13 -3.270911425e-13 -3.292253825e-13)
5(-2.532146964e-13 -3.296880863e-13 -3.917421509e-13 -4.186916223e-13 -4.123062255e-13)
5(-3.376292553e-13 -4.286902078e-13 -4.97881268e-13 -5.172404683e-13 -4.957668799e-13)
5(-4.389664132e-13 -5.400993907e-13 -6.078737736e-13 -6.105684016e-13 -5.605343711e-13)
5(-5.51799274e-13 -6.529803511e-13 -7.068322682e-13 -6.799980809e-13 -5.83136777e-13)
5(-6.64452619e-13 -7.514600383e-13 -7.744778133e-13 -7.026098861e-13 -5.425207131e-13)
5(-7.613304243e-13 -8.129965207e-13 -7.845415358e-13 -6.485714745e-13 -4.254635246e-13)
5(-8.209372759e-13 -8.100006347e-13 -7.066270948e-13 -4.930864749e-13 -2.250019537e-13)
5(-8.14223513e-13 -7.146622592e-13 -5.212283118e-13 -2.311592537e-13 3.939643669e-14)
5(-7.154913592e-13 -5.064853658e-13 -2.165392655e-13 1.142091031e-13 3.354848937e-13)
5(-5.080694639e-13 -1.882623229e-13 1.817049371e-13 4.88908705e-13 6.182991502e-13)
5(-1.969239144e-13 2.145163712e-13 6.184942571e-13 8.198744338e-13 8.282108136e-13)
5(1.916385609e-13 6.469440396e-13 1.011981194e-12 1.048160189e-12 9.19248039e-13)
5(6.19000021e-13 1.036200443e-12 1.258754176e-12 1.125445734e-12 8.712277795e-13)
5(1.006123976e-12 1.299127705e-12 1.304396538e-12 1.030725341e-12 7.106852205e-13)
5(1.272309192e-12 1.371008868e-12 1.157680199e-12 8.132552987e-13 4.934174044e-13)
5(1.366245745e-12 1.245899885e-12 8.789232388e-13 5.478534723e-13 2.870087574e-13)
5(1.273803365e-12 9.508145316e-13 5.593128788e-13 3.08291693e-13 1.408297832e-13)
5(1.02878672e-12 6.001070792e-13 2.907416306e-13 1.41600473e-13 5.645516273e-14)
5(7.034639219e-13 3.172073612e-13 1.194082762e-13 5.024142396e-14 1.705907352e-14)
5(3.779917226e-13 1.304274162e-13 3.639154076e-14 1.34607002e-14 4.387812226e-15)
5(1.53491824e-13 3.749741926e-14 7.842188542e-15 2.491767054e-15 7.792620492e-16)
5(5.048067603e-14 7.243151931e-15 1.050443595e-15 2.635075192e-16 8.441660278e-17)
5(9.434188851e-15 -1.888432932e-14 7.034248845e-17 -1.446698479e-14 7.639503033e-18)
5(7.969950546e-16 8.172903561e-17 -4.356784609e-16 4.142136623e-17 2.823230941e-19)
5(-2.182186732e-17 3.950288289e-14 -8.738871533e-16 2.910862493e-14 2.199269298e-21)
)


60
(
5(-7.711176316e-13 -1.053006128e-12 8.60445175e-14 -2.643047542e-14 4.763005511e-14)
5(-7.091919592e-13 -9.285917168e-13 -2.896433173e-15 -5.048883429e-14 1.980199246e-14)
5(-5.583623117e-13 -5.753327978e-13 -1.570625844e-13 -8.460533477e-14 -3.428263924e-14)
5(-5.67023844e-13 -3.528952968e-13 -2.226181985e-13 -9.123754019e-14 -6.897972889e-14)
5(-5.913627028e-13 -2.33891658e-13 -1.835351902e-13 -6.677261181e-14 -7.79372107e-14)
5(-3.729180947e-13 -7.252357188e-14 -4.705835509e-14 -6.604936874e-15 -5.107515818e-14)
5(6.090905502e-15 1.451157518e-13 1.292524602e-13 7.639406153e-14 1.5486763e-15)
5(3.674317506e-13 3.702431857e-13 2.976622795e-13 1.657445301e-13 5.705809814e-14)
5(6.887244031e-13 6.077167932e-13 4.505833035e-13 2.584768066e-13 1.110398508e-13)
5(1.009795708e-12 8.473928923e-13 5.980113713e-13 3.559950717e-13 1.677900899e-13)
5(1.319328129e-12 1.068798304e-12 7.420530137e-13 4.517346477e-13 2.27524711e-13)
5(1.572923162e-12 1.236025755e-12 8.613972687e-13 5.284666071e-13 2.801636101e-13)
5(1.725797993e-12 1.306165899e-12 9.231186857e-13 5.676001491e-13 3.121312652e-13)
5(1.729262209e-12 1.268054196e-12 9.082369416e-13 5.582807492e-13 3.164924264e-13)
5(1.598067688e-12 1.142188903e-12 8.216539924e-13 5.057882217e-13 2.926239564e-13)
5(1.358031676e-12 9.605676036e-13 6.917003134e-13 4.275895508e-13 2.516289899e-13)
5(1.078286998e-12 7.598320033e-13 5.510278709e-13 3.415885657e-13 2.03246076e-13)
5(8.268047804e-13 5.755258592e-13 4.211023583e-13 2.610853e-13 1.571912174e-13)
5(6.295251073e-13 4.274116222e-13 3.134183532e-13 1.950224204e-13 1.183536845e-13)
5(4.670723469e-13 3.172613087e-13 2.316859218e-13 1.449237309e-13 8.805822744e-14)
5(3.478608727e-13 2.378225278e-13 1.724496246e-13 1.077151985e-13 6.61050796e-14)
5(2.641686996e-13 1.798764129e-13 1.288211017e-13 8.022931766e-14 4.82358969e-14)
5(2.032759394e-13 1.36834516e-13 9.642283376e-14 5.922754129e-14 3.405845538e-14)
5(1.597037812e-13 1.044976858e-13 7.192917045e-14 4.213694546e-14 2.218592858e-14)
5(1.228091047e-13 7.906528338e-14 5.17809554e-14 2.772901707e-14 1.165743861e-14)
5(9.278880191e-14 5.75432837e-14 3.444182384e-14 1.438517937e-14 1.015875652e-15)
5(6.953428707e-14 3.850056283e-14 1.852436261e-14 6.06436067e-16 -1.142965248e-14)
5(5.054725397e-14 2.089758515e-14 2.052265231e-15 -1.483376465e-14 -2.609463481e-14)
5(2.988507092e-14 2.664632343e-15 -1.687916187e-14 -3.37137359e-14 -4.487632183e-14)
5(8.328547507e-15 -1.851513009e-14 -3.998058073e-14 -5.825707811e-14 -7.10786186e-14)
5(-1.408434593e-14 -4.415253235e-14 -6.923685421e-14 -9.039949891e-14 -1.054438308e-13)
5(-4.043155048e-14 -7.619747573e-14 -1.076697511e-13 -1.33104225e-13 -1.500279838e-13)
5(-7.242702654e-14 -1.17424457e-13 -1.578394524e-13 -1.894067242e-13 -2.09921516e-13)
5(-1.157344248e-13 -1.712574927e-13 -2.230329402e-13 -2.613369913e-13 -2.837383713e-13)
5(-1.71538858e-13 -2.411994987e-13 -3.064273523e-13 -3.508852411e-13 -3.717077728e-13)
5(-2.405380833e-13 -3.292686956e-13 -4.094198105e-13 -4.580365787e-13 -4.744974238e-13)
5(-3.282354843e-13 -4.359918432e-13 -5.299728678e-13 -5.773238279e-13 -5.839657609e-13)
5(-4.337355807e-13 -5.58185052e-13 -6.609473962e-13 -6.994574545e-13 -6.852175314e-13)
5(-5.550790686e-13 -6.894063215e-13 -7.913736424e-13 -8.08100208e-13 -7.511440425e-13)
5(-6.842060266e-13 -8.191007759e-13 -9.008426628e-13 -8.776048041e-13 -7.462327972e-13)
5(-8.081972614e-13 -9.246191468e-13 -9.622664996e-13 -8.744508256e-13 -6.693973703e-13)
5(-9.083853831e-13 -9.767129522e-13 -9.433199683e-13 -7.655523495e-13 -4.935400387e-13)
5(-9.571222372e-13 -9.459494635e-13 -8.111662588e-13 -5.308217468e-13 -2.123654874e-13)
5(-9.316577779e-13 -8.058586034e-13 -5.407354497e-13 -1.739892601e-13 1.413986497e-13)
5(-8.012071262e-13 -5.408639619e-13 -1.361577934e-13 2.680382408e-13 5.33150282e-13)