/*--------------------------------*- C++ -*----------------------------------*\
| =========                 |                                                 |
| \\      /  F ield         | OpenFOAM: The Open Source CFD Toolbox           |
|  \\    /   O peration     | Version:  2.3.1                                 |
|   \\  /    A nd           | Web:      www.OpenFOAM.org                      |
|    \\/     M anipulation  |                                                 |
\*---------------------------------------------------------------------------*/
FoamFile
{
    version     2.0;
    format      ascii;
    class       dictionary;
    location    "constant";
    object      DPSI35;
}
// * * * * * * * * * * * * * * * * * * * * * * * * * * * * * * * * * * * * * //

DPSI35_table
60
(

60
(
5(-4.350178042e-13 -3.190335659e-13 -4.270758095e-13 -3.329061406e-13 -2.09530464e-13)
5(-4.31426924e-13 -4.273411937e-13 -4.14651028e-13 -3.803237889e-13 -2.882194045e-13)
5(-4.518616141e-13 -4.783251789e-13 -4.408844381e-13 -4.343890032e-13 -3.393061698e-13)
5(-4.510376734e-13 -5.292482169e-13 -4.807197915e-13 -4.878639131e-13 -3.783656824e-13)
5(-5.564127476e-13 -5.872720977e-13 -5.47927525e-13 -5.18560595e-13 -4.247494816e-13)
5(-6.543777187e-13 -6.346201882e-13 -6.349497871e-13 -5.486314227e-13 -4.555994407e-13)
5(-6.806495898e-13 -6.565877247e-13 -6.58709212e-13 -5.691694065e-13 -4.39400433e-13)
5(-7.076568173e-13 -6.520476685e-13 -6.377802865e-13 -5.503840293e-13 -4.615191916e-13)
5(-6.767255232e-13 -6.222084827e-13 -6.157105806e-13 -5.140070372e-13 -4.222938088e-13)
5(-6.300724549e-13 -5.632554641e-13 -5.568874255e-13 -4.626620143e-13 -3.763238216e-13)
5(-5.642755127e-13 -4.852825147e-13 -4.855754908e-13 -3.921818321e-13 -3.191311838e-13)
5(-4.71987526e-13 -4.053963889e-13 -4.035420006e-13 -3.161642944e-13 -2.572128709e-13)
5(-3.979715135e-13 -3.198352482e-13 -3.176233677e-13 -2.410263442e-13 -1.964994298e-13)
5(-3.111025736e-13 -2.456990501e-13 -2.403156293e-13 -1.804815716e-13 -1.457894492e-13)
5(-2.428143578e-13 -1.882757125e-13 -1.804224251e-13 -1.331364686e-13 -1.070258211e-13)
5(-1.870229409e-13 -1.360144167e-13 -1.347412091e-13 -9.874732862e-14 -7.957430282e-14)
5(-1.487709925e-13 -1.085447387e-13 -1.039843376e-13 -7.778126231e-14 -6.173504874e-14)
5(-1.229189802e-13 -9.047773475e-14 -8.545029871e-14 -6.357561761e-14 -4.991667385e-14)
5(-1.042935671e-13 -7.895381342e-14 -7.12843298e-14 -5.357403149e-14 -4.169263635e-14)
5(-8.9711365e-14 -7.006346989e-14 -6.112333843e-14 -4.64044949e-14 -3.641053553e-14)
5(-7.901693708e-14 -6.251740716e-14 -5.437169927e-14 -4.190837038e-14 -3.32036451e-14)
5(-7.113428004e-14 -5.715590278e-14 -4.959080074e-14 -3.955916155e-14 -3.154456302e-14)
5(-6.541038219e-14 -5.36902674e-14 -4.699262886e-14 -3.815736467e-14 -3.085775919e-14)
5(-6.160110595e-14 -5.194635505e-14 -4.625440688e-14 -3.875157036e-14 -3.184256277e-14)
5(-5.969215486e-14 -5.215354591e-14 -4.733252392e-14 -4.10027607e-14 -3.435600446e-14)
5(-5.992230515e-14 -5.449553165e-14 -5.050082553e-14 -4.547834987e-14 -3.904923987e-14)
5(-6.251915147e-14 -6.007620175e-14 -5.716962049e-14 -5.304470624e-14 -4.64642936e-14)
5(-6.828669864e-14 -6.947800529e-14 -6.724233459e-14 -6.466247774e-14 -5.757060703e-14)
5(-7.747414095e-14 -8.31517012e-14 -8.309419974e-14 -8.20511274e-14 -7.377310432e-14)
5(-9.209944628e-14 -1.032602578e-13 -1.062135091e-13 -1.074709746e-13 -9.719927725e-14)
5(-1.138349136e-13 -1.324328366e-13 -1.38822316e-13 -1.422787823e-13 -1.294889457e-13)
5(-1.457938973e-13 -1.748705463e-13 -1.860773789e-13 -1.925054961e-13 -1.756177256e-13)
5(-1.91565794e-13 -2.32893294e-13 -2.501147146e-13 -2.590466841e-13 -2.334466192e-13)
5(-2.550516174e-13 -3.121217627e-13 -3.357145617e-13 -3.478621685e-13 -3.126016965e-13)
5(-3.42641363e-13 -4.207121151e-13 -4.518707978e-13 -4.605199237e-13 -4.077870493e-13)
5(-4.612977192e-13 -5.573580678e-13 -5.917927251e-13 -5.98048749e-13 -5.191153886e-13)
5(-6.176800824e-13 -7.421704818e-13 -7.863857051e-13 -7.642006086e-13 -6.424921797e-13)
5(-8.165154512e-13 -9.540558177e-13 -9.993577573e-13 -9.386505054e-13 -7.767674265e-13)
5(-1.057310875e-12 -1.204617547e-12 -1.225231887e-12 -1.118278238e-12 -8.744322078e-13)
5(-1.329004612e-12 -1.473131947e-12 -1.444998908e-12 -1.266515213e-12 -9.409385274e-13)
5(-1.634446746e-12 -1.746167625e-12 -1.656762278e-12 -1.364051726e-12 -9.259861769e-13)
5(-1.940257717e-12 -1.975666499e-12 -1.792166884e-12 -1.371722261e-12 -8.358439479e-13)
5(-2.198803121e-12 -2.129015128e-12 -1.826246044e-12 -1.277861209e-12 -6.877251237e-13)
5(-2.360236213e-12 -2.127797353e-12 -1.692118375e-12 -1.068223523e-12 -5.108560879e-13)
5(-2.377899028e-12 -2.000289925e-12 -1.475177303e-12 -8.007273057e-13 -3.37293942e-13)
5(-2.242664228e-12 -1.718800579e-12 -1.161309454e-12 -5.321051195e-13 -1.934710935e-13)
5(-1.937967721e-12 -1.34609507e-12 -7.920527969e-13 -3.098320593e-13 -9.477561564e-14)
5(-1.49102978e-12 -9.397411231e-13 -4.67409291e-13 -1.553410469e-13 -3.938583295e-14)
5(-1.039612394e-12 -5.623358175e-13 -2.336647495e-13 -6.577346977e-14 -1.398527777e-14)
5(-6.147186715e-13 -2.809021741e-13 -9.814702174e-14 -2.304379359e-14 -4.394889888e-15)
5(-3.05173271e-13 -1.146855986e-13 -3.311712108e-14 -6.965056964e-15 -1.223373491e-15)
5(-1.182522303e-13 -3.721995778e-14 -9.21827457e-15 -1.8245945e-15 -3.07998898e-16)
5(-3.708409043e-14 -9.493766144e-15 -2.157058174e-15 -4.180251965e-16 -6.904609468e-17)
5(-7.829283606e-15 -1.772412448e-15 -3.931288488e-16 -8.173826023e-17 -1.382051762e-17)
5(-1.143062987e-15 -2.695490414e-16 -5.844502987e-17 -1.302610144e-17 -2.225955368e-18)
5(-9.925670778e-17 -2.500792689e-17 -6.666530047e-18 -1.53472413e-18 -2.878638466e-19)
5(-5.792382776e-18 -1.891836066e-18 -3.997147165e-19 -1.227527071e-19 -2.186787501e-20)
5(-1.682100292e-19 -9.804393509e-20 -1.389745557e-20 -7.195637689e-19 -1.453101754e-21)
5(-8.797786567e-22 1.443417905e-18 -8.426017901e-21 1.085840094e-18 -9.105578804e-22)
5(-9.933110738e-23 -1.94672405e-22 -8.713697878e-17 -5.70071797e-22 -1.005796755e-21)
)


60
(
5(-5.737569471e-13 -4.160643121e-13 -5.153726413e-13 -3.710529185e-13 -2.042796987e-13)
5(-6.291048964e-13 -5.79495993e-13 -5.248956804e-13 -4.252453172e-13 -2.704849682e-13)
5(-7.073479867e-13 -6.69927581e-13 -5.690869539e-13 -4.841826835e-13 -3.418285946e-13)
5(-7.807011405e-13 -7.502643695e-13 -6.277872533e-13 -5.430284608e-13 -3.477178608e-13)
5(-8.936214011e-13 -8.317503601e-13 -7.092270457e-13 -5.735945325e-13 -3.890932463e-13)
5(-1.003652086e-12 -9.00849024e-13 -8.054825318e-13 -6.055170813e-13 -4.185828602e-13)
5(-1.06311048e-12 -9.398403126e-13 -8.345651469e-13 -6.271454158e-13 -4.096628769e-13)
5(-1.101140212e-12 -9.430783073e-13 -8.203221324e-13 -6.136277199e-13 -4.294980362e-13)
5(-1.067756898e-12 -9.102726663e-13 -7.941407257e-13 -5.822541431e-13 -4.021109089e-13)
5(-1.016364717e-12 -8.434861313e-13 -7.325121578e-13 -5.346526373e-13 -3.684652145e-13)
5(-9.284832965e-13 -7.482121585e-13 -6.51669692e-13 -4.676313601e-13 -3.247959908e-13)
5(-8.061354538e-13 -6.37310961e-13 -5.556104182e-13 -3.90620459e-13 -2.744109388e-13)
5(-6.772636837e-13 -5.161076274e-13 -4.50773946e-13 -3.110966059e-13 -2.208237994e-13)
5(-5.425745778e-13 -4.034103146e-13 -3.509697277e-13 -2.406794173e-13 -1.720038597e-13)
5(-4.237151895e-13 -3.106979599e-13 -2.671634851e-13 -1.823823456e-13 -1.309295256e-13)
5(-3.287594168e-13 -2.343555132e-13 -2.020938058e-13 -1.380216177e-13 -1.000900909e-13)
5(-2.584299634e-13 -1.844334403e-13 -1.560326772e-13 -1.078047737e-13 -7.837643744e-14)
5(-2.086959547e-13 -1.494994193e-13 -1.252459354e-13 -8.686620842e-14 -6.349638457e-14)
5(-1.732237289e-13 -1.252072436e-13 -1.028514786e-13 -7.230693323e-14 -5.312700486e-14)
5(-1.464118719e-13 -1.07279536e-13 -8.692027886e-14 -6.19543648e-14 -4.610703888e-14)
5(-1.273496272e-13 -9.355916997e-14 -7.57896999e-14 -5.494767013e-14 -4.141771155e-14)
5(-1.116324407e-13 -8.340039962e-14 -6.777525762e-14 -5.04736634e-14 -3.863008465e-14)
5(-1.004665429e-13 -7.609541511e-14 -6.237791637e-14 -4.745880405e-14 -3.710737964e-14)
5(-9.184046377e-14 -7.114043643e-14 -5.920130292e-14 -4.642147437e-14 -3.713563782e-14)
5(-8.622223038e-14 -6.845562762e-14 -5.809710591e-14 -4.713451472e-14 -3.869005744e-14)
5(-8.267988469e-14 -6.800468791e-14 -5.916452141e-14 -4.994810627e-14 -4.222989257e-14)
5(-8.179112795e-14 -7.034684048e-14 -6.311800468e-14 -5.529616574e-14 -4.81314241e-14)
5(-8.395694542e-14 -7.574569308e-14 -6.99340061e-14 -6.408457789e-14 -5.734889836e-14)
5(-8.870726948e-14 -8.478750229e-14 -8.140594743e-14 -7.758245813e-14 -7.106788495e-14)
5(-9.818333061e-14 -9.884526505e-14 -9.877002531e-14 -9.766748568e-14 -9.127650792e-14)
5(-1.128145502e-13 -1.198704712e-13 -1.236994715e-13 -1.258163762e-13 -1.191558872e-13)
5(-1.352019688e-13 -1.509063552e-13 -1.602065944e-13 -1.665378758e-13 -1.594110961e-13)
5(-1.679141477e-13 -1.942172584e-13 -2.107054002e-13 -2.218017044e-13 -2.111747019e-13)
5(-2.14091597e-13 -2.54039626e-13 -2.793888623e-13 -2.959066355e-13 -2.831086287e-13)
5(-2.779511953e-13 -3.363108554e-13 -3.727165168e-13 -3.925139022e-13 -3.718809129e-13)
5(-3.655899557e-13 -4.429477881e-13 -4.896049609e-13 -5.141013948e-13 -4.808868389e-13)
5(-4.829587799e-13 -5.862904365e-13 -6.487774821e-13 -6.645252779e-13 -6.081650267e-13)
5(-6.309768666e-13 -7.578667489e-13 -8.324409291e-13 -8.330779338e-13 -7.513544238e-13)
5(-8.174576217e-13 -9.671826652e-13 -1.038046618e-12 -1.016802264e-12 -8.804638364e-13)
5(-1.033464461e-12 -1.199812677e-12 -1.254499428e-12 -1.19180306e-12 -9.970658741e-13)
5(-1.28188098e-12 -1.450586785e-12 -1.476959335e-12 -1.338672769e-12 -1.053311505e-12)
5(-1.548190459e-12 -1.684474747e-12 -1.653600653e-12 -1.424574422e-12 -1.043608851e-12)
5(-1.794279084e-12 -1.875257113e-12 -1.75925858e-12 -1.425724397e-12 -9.629853664e-13)
5(-1.984249298e-12 -1.966685182e-12 -1.739049041e-12 -1.312284651e-12 -8.200790541e-13)
5(-2.08386143e-12 -1.946575729e-12 -1.621254117e-12 -1.110384033e-12 -6.377993787e-13)
5(-2.064360516e-12 -1.788405817e-12 -1.388385072e-12 -8.546466655e-13 -4.449746428e-13)
5(-1.894748751e-12 -1.517751898e-12 -1.067219147e-12 -5.896643966e-13 -2.751524139e-13)
5(-1.588173794e-12 -1.166872178e-12 -7.292008292e-13 -3.597154476e-13 -1.473752535e-13)
5(-1.213076607e-12 -7.921540355e-13 -4.341433105e-13 -1.912777033e-13 -6.767196503e-14)
5(-8.144563322e-13 -4.668697558e-13 -2.21601872e-13 -8.534192764e-14 -2.627280489e-14)
5(-4.709794947e-13 -2.309145916e-13 -9.424250055e-14 -3.220727735e-14 -8.499223523e-15)
5(-2.237568173e-13 -9.238469496e-14 -3.204663829e-14 -9.756150271e-15 -2.417340401e-15)
5(-8.323415339e-14 -2.886671717e-14 -8.595828978e-15 -2.429577422e-15 -5.797459553e-16)
5(-2.228051019e-14 -6.6619825e-15 -1.691102387e-15 -4.67426052e-16 -1.155327888e-16)
5(-4.194156161e-15 -1.080800174e-15 -2.555369933e-16 -7.59097784e-17 -2.005126296e-17)
5(-4.572176173e-16 -1.172561791e-16 -2.586543723e-17 -9.087883175e-18 -2.441294472e-18)
5(-2.900215897e-17 -6.157786656e-18 -1.807321681e-18 -5.902861707e-19 -1.855035651e-19)
5(-5.576256944e-19 1.956959304e-17 -1.152247045e-19 1.626916974e-17 -9.255728335e-21)
5(-4.136240485e-21 8.419343251e-15 7.432154514e-20 5.488476651e-15 -1.77027538e-21)
5(-4.950874066e-22 -6.796204431e-22 -9.408683956e-17 -1.349111921e-21 -1.972779106e-21)
)


60
(
5(-8.649748956e-13 -6.233057832e-13 -6.779446719e-13 -4.346360524e-13 -1.953864316e-13)
5(-1.054403479e-12 -8.769802777e-13 -7.350620356e-13 -4.964325624e-13 -2.366957081e-13)
5(-1.216601317e-12 -1.076313299e-12 -8.190837545e-13 -5.586413267e-13 -2.763258966e-13)
5(-1.383956673e-12 -1.228455213e-12 -9.24849773e-13 -6.186153918e-13 -3.090101428e-13)
5(-1.581837414e-12 -1.361459434e-12 -1.034578053e-12 -6.725621866e-13 -3.367908651e-13)
5(-1.781700685e-12 -1.476054379e-12 -1.125347868e-12 -7.150168376e-13 -3.622266572e-13)
5(-1.916118809e-12 -1.547055386e-12 -1.176528758e-12 -7.411492108e-13 -3.826535332e-13)
5(-1.972426244e-12 -1.573857369e-12 -1.189797461e-12 -7.48746475e-13 -3.94955159e-13)
5(-1.970312263e-12 -1.550797792e-12 -1.166193977e-12 -7.353652627e-13 -3.979020331e-13)
5(-1.907045847e-12 -1.473259818e-12 -1.109650825e-12 -7.008176715e-13 -3.895672779e-13)
5(-1.769329273e-12 -1.348282903e-12 -1.02051162e-12 -6.45083325e-13 -3.692161464e-13)
5(-1.587273886e-12 -1.180368834e-12 -9.012181918e-13 -5.701114775e-13 -3.362179536e-13)
5(-1.359456702e-12 -9.901802011e-13 -7.609286284e-13 -4.825952417e-13 -2.925484153e-13)
5(-1.117438896e-12 -7.988147691e-13 -6.172978172e-13 -3.928026852e-13 -2.452466405e-13)
5(-8.841724957e-13 -6.280496651e-13 -4.851541525e-13 -3.113811236e-13 -1.98119096e-13)
5(-6.933209645e-13 -4.892206992e-13 -3.763683863e-13 -2.43936642e-13 -1.586740077e-13)
5(-5.44396788e-13 -3.824179917e-13 -2.934492433e-13 -1.921626877e-13 -1.27259779e-13)
5(-4.327912803e-13 -3.047403797e-13 -2.333001469e-13 -1.547908597e-13 -1.044073333e-13)
5(-3.532849793e-13 -2.490582922e-13 -1.903459609e-13 -1.281586661e-13 -8.794140934e-14)
5(-2.950655105e-13 -2.09051719e-13 -1.597363908e-13 -1.091907278e-13 -7.611881703e-14)
5(-2.518595753e-13 -1.795999931e-13 -1.373639528e-13 -9.546526705e-14 -6.785126267e-14)
5(-2.18349825e-13 -1.573351521e-13 -1.21066242e-13 -8.570752592e-14 -6.223267142e-14)
5(-1.932136794e-13 -1.407169777e-13 -1.092825903e-13 -7.871782088e-14 -5.857469492e-14)
5(-1.737950796e-13 -1.284163514e-13 -1.009240851e-13 -7.407943154e-14 -5.661525263e-14)
5(-1.588012189e-13 -1.194847014e-13 -9.506637897e-14 -7.161221355e-14 -5.59798773e-14)
5(-1.479665031e-13 -1.131948882e-13 -9.173161296e-14 -7.111054718e-14 -5.732917585e-14)
5(-1.40094077e-13 -1.094714664e-13 -9.084721263e-14 -7.275938844e-14 -6.078642364e-14)
5(-1.354581933e-13 -1.08334654e-13 -9.244566918e-14 -7.691571234e-14 -6.662089493e-14)
5(-1.331051373e-13 -1.099919876e-13 -9.703145501e-14 -8.434432175e-14 -7.620584299e-14)
5(-1.338400577e-13 -1.148557914e-13 -1.054932366e-13 -9.604691309e-14 -9.017999506e-14)
5(-1.379682154e-13 -1.237132517e-13 -1.19011028e-13 -1.137249348e-13 -1.113019867e-13)
5(-1.462560945e-13 -1.379187307e-13 -1.394734614e-13 -1.396094303e-13 -1.411622883e-13)
5(-1.596983168e-13 -1.592652728e-13 -1.691577208e-13 -1.766760094e-13 -1.830474833e-13)
5(-1.801743444e-13 -1.904109739e-13 -2.113908834e-13 -2.279174487e-13 -2.403491542e-13)
5(-2.097512671e-13 -2.343842859e-13 -2.699833005e-13 -2.985322632e-13 -3.185363499e-13)
5(-2.510838167e-13 -2.954567686e-13 -3.495806531e-13 -3.929593559e-13 -4.17863031e-13)
5(-3.081846819e-13 -3.776628927e-13 -4.557119061e-13 -5.153467666e-13 -5.446623572e-13)
5(-3.871895205e-13 -4.872523187e-13 -5.924089919e-13 -6.684730763e-13 -6.972978984e-13)
5(-4.902678852e-13 -6.292265352e-13 -7.634003928e-13 -8.516265033e-13 -8.691462369e-13)
5(-6.227426863e-13 -8.044354313e-13 -9.672293151e-13 -1.058345976e-12 -1.049610943e-12)
5(-7.90232818e-13 -1.016380878e-12 -1.196349833e-12 -1.273649904e-12 -1.213683875e-12)
5(-9.895405579e-13 -1.250451296e-12 -1.430034568e-12 -1.471561346e-12 -1.337944367e-12)
5(-1.216396441e-12 -1.492519647e-12 -1.642433535e-12 -1.617644581e-12 -1.385313979e-12)
5(-1.451694102e-12 -1.713417292e-12 -1.795389867e-12 -1.672251568e-12 -1.33897292e-12)
5(-1.674480696e-12 -1.867884851e-12 -1.849336802e-12 -1.609085925e-12 -1.192889265e-12)
5(-1.841146228e-12 -1.918488174e-12 -1.771474563e-12 -1.422945937e-12 -9.628822162e-13)
5(-1.906623896e-12 -1.837400351e-12 -1.557193305e-12 -1.142251596e-12 -6.976205085e-13)
5(-1.847465831e-12 -1.615852113e-12 -1.237895962e-12 -8.163858287e-13 -4.431307893e-13)
5(-1.640767888e-12 -1.280553629e-12 -8.687104447e-13 -5.111092238e-13 -2.452280089e-13)
5(-1.319018569e-12 -8.970585548e-13 -5.219409388e-13 -2.727528106e-13 -1.149132311e-13)
5(-9.353736477e-13 -5.382342775e-13 -2.670520356e-13 -1.236483075e-13 -4.499889895e-14)
5(-5.676991436e-13 -2.637054666e-13 -1.115806289e-13 -4.475088076e-14 -1.422603561e-14)
5(-2.752366407e-13 -1.03559627e-13 -3.62606153e-14 -1.303531193e-14 -3.781560926e-15)
5(-1.028175011e-13 -3.044850785e-14 -8.571907036e-15 -2.919624552e-15 -8.027706136e-16)
5(-2.839324497e-14 -6.16024061e-15 -1.38556075e-15 -4.728599738e-16 -1.336419211e-16)
5(-4.529733808e-15 -7.584261794e-16 -1.543824013e-16 -5.385315123e-17 -1.780479286e-17)
5(-2.999156712e-16 -6.330505949e-17 -8.995576501e-18 -4.392248856e-18 -1.27515487e-18)
5(-1.964862649e-17 -7.94334093e-17 7.364396984e-19 -9.948873791e-17 -5.298023726e-20)
5(-2.264721113e-19 -3.771190207e-14 3.924025604e-16 -4.090446821e-14 -4.665336335e-21)
5(-7.377330399e-21 -5.008939238e-17 4.251611362e-17 -4.079157558e-20 -4.991127913e-21)
)


60
(
5(-1.186768061e-12 -8.662022857e-13 -8.189957107e-13 -4.875544915e-13 -1.945961744e-13)
5(-1.557986922e-12 -1.253138764e-12 -9.451062546e-13 -5.71309932e-13 -2.344127904e-13)
5(-1.867145503e-12 -1.552269272e-12 -1.083868347e-12 -6.535287063e-13 -2.755705578e-13)
5(-2.142078465e-12 -1.778405338e-12 -1.230208282e-12 -7.316587511e-13 -3.166690087e-13)
5(-2.444066432e-12 -1.971506118e-12 -1.370375504e-12 -8.032141627e-13 -3.58704889e-13)
5(-2.729506135e-12 -2.134383296e-12 -1.484136603e-12 -8.646877643e-13 -4.011777302e-13)
5(-2.934047454e-12 -2.244347014e-12 -1.558875827e-12 -9.106865039e-13 -4.384726611e-13)
5(-3.036476587e-12 -2.298665683e-12 -1.592533599e-12 -9.379317013e-13 -4.667952511e-13)
5(-3.055846413e-12 -2.292493637e-12 -1.586382403e-12 -9.445693025e-13 -4.845975437e-13)
5(-2.988646661e-12 -2.220047662e-12 -1.538733785e-12 -9.269799159e-13 -4.912396571e-13)
5(-2.815905516e-12 -2.071676306e-12 -1.449198663e-12 -8.822469954e-13 -4.819971152e-13)
5(-2.563083731e-12 -1.864407581e-12 -1.316544948e-12 -8.094441578e-13 -4.559071923e-13)
5(-2.24513449e-12 -1.610767758e-12 -1.150720913e-12 -7.141356344e-13 -4.142538062e-13)
5(-1.894475556e-12 -1.339160945e-12 -9.666296809e-13 -6.066348469e-13 -3.614399056e-13)
5(-1.536634866e-12 -1.079521392e-12 -7.881648563e-13 -4.994227935e-13 -3.061504692e-13)
5(-1.219931462e-12 -8.553443534e-13 -6.296193903e-13 -4.034322641e-13 -2.538438969e-13)
5(-9.640383442e-13 -6.75494216e-13 -4.990726787e-13 -3.251241641e-13 -2.086506632e-13)
5(-7.650055327e-13 -5.389049226e-13 -3.995736228e-13 -2.652706269e-13 -1.740202298e-13)
5(-6.204350822e-13 -4.391832003e-13 -3.272499602e-13 -2.205290802e-13 -1.47779355e-13)
5(-5.141223561e-13 -3.665836629e-13 -2.744860482e-13 -1.881557374e-13 -1.289085764e-13)
5(-4.345416202e-13 -3.132658837e-13 -2.360851408e-13 -1.645859823e-13 -1.148736914e-13)
5(-3.765264458e-13 -2.736016875e-13 -2.07937045e-13 -1.473180037e-13 -1.052661776e-13)
5(-3.316326544e-13 -2.438805664e-13 -1.871641617e-13 -1.348481412e-13 -9.82928008e-14)
5(-2.982046974e-13 -2.215018936e-13 -1.717199988e-13 -1.258302651e-13 -9.361995083e-14)
5(-2.704050386e-13 -2.047128732e-13 -1.604846852e-13 -1.196671958e-13 -9.090051335e-14)
5(-2.509484105e-13 -1.92239315e-13 -1.527509604e-13 -1.158956265e-13 -9.030816373e-14)
5(-2.347753009e-13 -1.825550817e-13 -1.478035342e-13 -1.145219756e-13 -9.139571325e-14)
5(-2.233706451e-13 -1.763740021e-13 -1.454007805e-13 -1.153361398e-13 -9.479086422e-14)
5(-2.157019173e-13 -1.729095082e-13 -1.455073858e-13 -1.188149226e-13 -1.01122595e-13)
5(-2.109145807e-13 -1.720985786e-13 -1.485881674e-13 -1.254045751e-13 -1.110151714e-13)
5(-2.087079366e-13 -1.741019655e-13 -1.553391266e-13 -1.361726379e-13 -1.265396297e-13)
5(-2.089558056e-13 -1.789856161e-13 -1.663576081e-13 -1.53019631e-13 -1.496608288e-13)
5(-2.122329036e-13 -1.883850149e-13 -1.835916522e-13 -1.776962864e-13 -1.813003111e-13)
5(-2.190846301e-13 -2.037049889e-13 -2.094629349e-13 -2.138082319e-13 -2.267725878e-13)
5(-2.311899345e-13 -2.263628313e-13 -2.463871839e-13 -2.647576324e-13 -2.905280513e-13)
5(-2.497791456e-13 -2.598253636e-13 -2.994267878e-13 -3.355622547e-13 -3.760498374e-13)
5(-2.757286642e-13 -3.082557584e-13 -3.741528662e-13 -4.322279619e-13 -4.898726166e-13)
5(-3.167058882e-13 -3.770694332e-13 -4.7657414e-13 -5.615273773e-13 -6.371835232e-13)
5(-3.735409551e-13 -4.734612207e-13 -6.139833851e-13 -7.276136987e-13 -8.172946581e-13)
5(-4.565605178e-13 -6.049130588e-13 -7.893957761e-13 -9.318013489e-13 -1.023702813e-12)
5(-5.729007876e-13 -7.779019112e-13 -1.005602923e-12 -1.169065247e-12 -1.245550126e-12)
5(-7.265622993e-13 -9.927856747e-13 -1.256852195e-12 -1.421530687e-12 -1.456406569e-12)
5(-9.279237514e-13 -1.247914791e-12 -1.52353721e-12 -1.660274683e-12 -1.616289002e-12)
5(-1.173452396e-12 -1.524395505e-12 -1.775171854e-12 -1.843706085e-12 -1.694510152e-12)
5(-1.449109367e-12 -1.791546947e-12 -1.96443561e-12 -1.924673109e-12 -1.656105591e-12)
5(-1.728649891e-12 -2.003976372e-12 -2.048134892e-12 -1.869288973e-12 -1.494944275e-12)
5(-1.976645503e-12 -2.108157484e-12 -1.981215644e-12 -1.673131652e-12 -1.225227647e-12)
5(-2.133429063e-12 -2.068514695e-12 -1.750390775e-12 -1.352899445e-12 -8.986688321e-13)
5(-2.142109866e-12 -1.858904905e-12 -1.393344004e-12 -9.72037059e-13 -5.782965117e-13)
5(-1.981856398e-12 -1.504737733e-12 -9.777768076e-13 -6.129056094e-13 -3.190332123e-13)
5(-1.657411284e-12 -1.070598958e-12 -5.893989705e-13 -3.269333473e-13 -1.492293854e-13)
5(-1.230827082e-12 -6.441132269e-13 -2.95222719e-13 -1.450159092e-13 -5.821584467e-14)
5(-7.830269619e-13 -3.265154536e-13 -1.185187752e-13 -5.017937417e-14 -1.71959425e-14)
5(-4.074969487e-13 -1.312157686e-13 -3.572703234e-14 -1.328278683e-14 -4.343175648e-15)
5(-1.5914885e-13 -3.728510793e-14 -7.657102994e-15 -2.438405507e-15 -7.64940631e-16)
5(-5.105467148e-14 -7.247156507e-15 -1.027999701e-15 -3.083968998e-16 -8.211345891e-17)
5(-9.500157172e-15 -8.036592394e-16 -6.871293401e-17 -2.542455016e-17 -7.4587345e-18)
5(-8.670635446e-16 -1.246732209e-16 -2.687698599e-18 -7.090941716e-17 -2.850201939e-19)
5(-5.555075165e-17 -2.824504688e-14 -6.837903593e-19 -2.005971342e-14 -1.133308865e-20)
5(-6.650935205e-17 -1.832295975e-19 -3.486595604e-16 -8.212055358e-21 -9.871617702e-21)
)


60
(
5(-1.513395775e-12 -1.105315097e-12 -9.278807924e-13 -5.207464539e-13 -1.964613006e-13)
5(-2.081582476e-12 -1.609712794e-12 -1.111217473e-12 -6.204789079e-13 -2.384985987e-13)
5(-2.538489502e-12 -1.996895226e-12 -1.296473453e-12 -7.19660431e-13 -2.861908221e-13)
5(-2.926481845e-12 -2.283165238e-12 -1.475811475e-12 -8.147553438e-13 -3.381784869e-13)
5(-3.320763674e-12 -2.525933242e-12 -1.638802672e-12 -9.043766647e-13 -3.939576678e-13)
5(-3.689101475e-12 -2.736277693e-12 -1.773658313e-12 -9.863689043e-13 -4.517844867e-13)
5(-3.946948948e-12 -2.887878531e-12 -1.875276909e-12 -1.055893824e-12 -5.057380516e-13)
5(-4.105484111e-12 -2.974500678e-12 -1.937106809e-12 -1.107911283e-12 -5.50485338e-13)
5(-4.144560022e-12 -2.991118264e-12 -1.958003016e-12 -1.139295484e-12 -5.847391558e-13)
5(-4.089883237e-12 -2.933554182e-12 -1.932637002e-12 -1.14512124e-12 -6.05329225e-13)
5(-3.910006109e-12 -2.793631791e-12 -1.858480092e-12 -1.11911391e-12 -6.09179417e-13)
5(-3.622843613e-12 -2.572305517e-12 -1.732284002e-12 -1.05896094e-12 -5.919083455e-13)
5(-3.227849402e-12 -2.283482008e-12 -1.559900429e-12 -9.666018118e-13 -5.555728364e-13)
5(-2.779888364e-12 -1.958017814e-12 -1.354287455e-12 -8.506176984e-13 -5.006585398e-13)
5(-2.312583608e-12 -1.626024138e-12 -1.139075058e-12 -7.24630461e-13 -4.38046109e-13)
5(-1.871239152e-12 -1.316277739e-12 -9.360769163e-13 -6.037729589e-13 -3.740527859e-13)
5(-1.495222469e-12 -1.053942343e-12 -7.60046299e-13 -4.976141131e-13 -3.158979415e-13)
5(-1.203546934e-12 -8.472334008e-13 -6.173263874e-13 -4.112632187e-13 -2.681491504e-13)
5(-9.723344327e-13 -6.916103867e-13 -5.08250237e-13 -3.45285755e-13 -2.301472257e-13)
5(-7.979917005e-13 -5.765690931e-13 -4.276393167e-13 -2.960069563e-13 -2.027359264e-13)
5(-6.739470071e-13 -4.916005238e-13 -3.684467198e-13 -2.596976446e-13 -1.814013908e-13)
5(-5.803042127e-13 -4.286101791e-13 -3.246116641e-13 -2.329156048e-13 -1.657508531e-13)
5(-5.116657216e-13 -3.81412869e-13 -2.923204733e-13 -2.131021656e-13 -1.545967416e-13)
5(-4.571080094e-13 -3.456950736e-13 -2.68066255e-13 -1.986523389e-13 -1.46879532e-13)
5(-4.1572889e-13 -3.183378957e-13 -2.502172042e-13 -1.882552235e-13 -1.421597128e-13)
5(-3.840558519e-13 -2.976995005e-13 -2.372942274e-13 -1.809665002e-13 -1.391761347e-13)
5(-3.607885476e-13 -2.824049241e-13 -2.278732392e-13 -1.763460795e-13 -1.381750863e-13)
5(-3.413458854e-13 -2.710541118e-13 -2.214678336e-13 -1.740748799e-13 -1.39735448e-13)
5(-3.263131561e-13 -2.62505067e-13 -2.175861675e-13 -1.739132116e-13 -1.428266866e-13)
5(-3.161003898e-13 -2.565261143e-13 -2.162165935e-13 -1.76146981e-13 -1.491324616e-13)
5(-3.083721137e-13 -2.530089752e-13 -2.171509546e-13 -1.812171325e-13 -1.59313162e-13)
5(-3.028327674e-13 -2.513582948e-13 -2.207751751e-13 -1.896416583e-13 -1.744369857e-13)
5(-2.987227019e-13 -2.517554459e-13 -2.279521388e-13 -2.031572085e-13 -1.963322669e-13)
5(-2.950995061e-13 -2.540338919e-13 -2.394710278e-13 -2.243383006e-13 -2.305357381e-13)
5(-2.945630278e-13 -2.595591602e-13 -2.577456221e-13 -2.556940729e-13 -2.760721473e-13)
5(-2.957179249e-13 -2.707708698e-13 -2.865241732e-13 -3.021020253e-13 -3.436842136e-13)
5(-2.997275538e-13 -2.912431279e-13 -3.305427023e-13 -3.705701186e-13 -4.357792285e-13)
5(-3.091136742e-13 -3.246816753e-13 -3.966572828e-13 -4.671460607e-13 -5.611172957e-13)
5(-3.292020026e-13 -3.779633849e-13 -4.918919502e-13 -6.011807673e-13 -7.282876e-13)
5(-3.678263315e-13 -4.603766841e-13 -6.266534736e-13 -7.798239888e-13 -9.357276374e-13)
5(-4.297659612e-13 -5.829129241e-13 -8.096857612e-13 -1.00635294e-12 -1.173811007e-12)
5(-5.333621684e-13 -7.563694499e-13 -1.046075683e-12 -1.275391086e-12 -1.440456708e-12)
5(-6.843598726e-13 -9.880140531e-13 -1.330190269e-12 -1.569471343e-12 -1.689973117e-12)
5(-8.976946813e-13 -1.276872684e-12 -1.643315715e-12 -1.854084563e-12 -1.889542059e-12)
5(-1.177134069e-12 -1.608523461e-12 -1.9468215e-12 -2.077066805e-12 -1.987700577e-12)
5(-1.511212445e-12 -1.949228706e-12 -2.192904573e-12 -2.183234398e-12 -1.954986521e-12)
5(-1.858687543e-12 -2.242364616e-12 -2.315727417e-12 -2.129692898e-12 -1.76504459e-12)
5(-2.209665202e-12 -2.424925216e-12 -2.257910216e-12 -1.910934529e-12 -1.448800112e-12)
5(-2.464953824e-12 -2.438904429e-12 -2.018446601e-12 -1.546907024e-12 -1.057332669e-12)
5(-2.552346788e-12 -2.250633268e-12 -1.621376828e-12 -1.106763512e-12 -6.736216675e-13)
5(-2.448870529e-12 -1.868319816e-12 -1.140953958e-12 -6.859481555e-13 -3.666024054e-13)
5(-2.128546391e-12 -1.389156046e-12 -6.8642325e-13 -3.588994524e-13 -1.687549997e-13)
5(-1.639866706e-12 -8.654248329e-13 -3.471451718e-13 -1.4985279e-13 -6.090921789e-14)
5(-1.121269068e-12 -4.543959753e-13 -1.355157975e-13 -5.00841672e-14 -1.742435648e-14)
5(-6.185160359e-13 -1.902769157e-13 -3.860919785e-14 -1.176254561e-14 -3.43312497e-15)
5(-3.031466617e-13 -5.88509807e-14 -6.672729206e-15 -1.7878686e-15 -4.741625e-16)
5(-1.071431043e-13 -1.423795126e-14 -9.59281291e-16 -1.602969514e-16 -3.389059088e-17)
5(-2.988375754e-14 -1.445937636e-15 -5.950301626e-17 8.524220677e-17 -1.696264084e-18)
5(-6.454588402e-15 3.690910901e-14 -3.87927238e-16 4.033590251e-14 -2.874716896e-20)
5(-8.771709968e-15 -1.480933642e-16 -1.297089397e-15 1.855274028e-20 -1.747449566e-18)
)


60
(
5(-1.829969837e-12 -1.321139683e-12 -1.008139155e-12 -5.397507358e-13 -2.003545815e-13)
5(-2.58232229e-12 -1.921012552e-12 -1.233184838e-12 -6.492586142e-13 -2.449712915e-13)
5(-3.178349716e-12 -2.3765343e-12 -1.452244784e-12 -7.621099131e-13 -3.001213245e-13)
5(-3.671103416e-12 -2.709850188e-12 -1.657043727e-12 -8.734331964e-13 -3.627330428e-13)
5(-4.142954041e-12 -2.993727009e-12 -1.840414616e-12 -9.82039785e-13 -4.331706451e-13)
5(-4.578859932e-12 -3.246283586e-12 -1.999192157e-12 -1.086319705e-12 -5.067725779e-13)
5(-4.886060844e-12 -3.434290102e-12 -2.130334082e-12 -1.180817433e-12 -5.752310805e-13)
5(-5.088852827e-12 -3.55949267e-12 -2.224453099e-12 -1.259660665e-12 -6.375969787e-13)
5(-5.166445434e-12 -3.608636965e-12 -2.27774427e-12 -1.318540506e-12 -6.882446793e-13)
5(-5.131253083e-12 -3.577714034e-12 -2.285047175e-12 -1.350623249e-12 -7.249209895e-13)
5(-4.9671866e-12 -3.463161445e-12 -2.24051566e-12 -1.349982676e-12 -7.435354731e-13)
5(-4.671865243e-12 -3.253818891e-12 -2.136660131e-12 -1.31001792e-12 -7.393413641e-13)
5(-4.228714628e-12 -2.961468638e-12 -1.973617181e-12 -1.229775747e-12 -7.107767374e-13)
5(-3.702598187e-12 -2.603610166e-12 -1.764890386e-12 -1.115588821e-12 -6.593664341e-13)
5(-3.148436091e-12 -2.217189331e-12 -1.52760606e-12 -9.800590526e-13 -5.934010366e-13)
5(-2.604986312e-12 -1.839854232e-12 -1.288316733e-12 -8.394394638e-13 -5.189732109e-13)
5(-2.121742706e-12 -1.50287287e-12 -1.069371434e-12 -7.086206361e-13 -4.492968017e-13)
5(-1.711449097e-12 -1.223818582e-12 -8.833613666e-13 -5.95608073e-13 -3.873390511e-13)
5(-1.387454442e-12 -1.003753502e-12 -7.342274893e-13 -5.053472137e-13 -3.382972593e-13)
5(-1.146507429e-12 -8.38308087e-13 -6.210800724e-13 -4.357937208e-13 -2.978739104e-13)
5(-9.686846036e-13 -7.149176753e-13 -5.362667223e-13 -3.837520439e-13 -2.688356264e-13)
5(-8.299280361e-13 -6.22729783e-13 -4.73566196e-13 -3.448099462e-13 -2.470451194e-13)
5(-7.278251626e-13 -5.535780461e-13 -4.267825556e-13 -3.157818246e-13 -2.303225068e-13)
5(-6.524122695e-13 -5.013976668e-13 -3.918638282e-13 -2.944296323e-13 -2.192270299e-13)
5(-5.941294048e-13 -4.617887185e-13 -3.659042855e-13 -2.787807827e-13 -2.115982886e-13)
5(-5.469014421e-13 -4.312680414e-13 -3.462554609e-13 -2.67636397e-13 -2.058439974e-13)
5(-5.136905121e-13 -4.090135009e-13 -3.3194767e-13 -2.597912759e-13 -2.034189688e-13)
5(-4.857760881e-13 -3.920428464e-13 -3.218464644e-13 -2.544690574e-13 -2.028466701e-13)
5(-4.663613007e-13 -3.787143572e-13 -3.143172823e-13 -2.513230754e-13 -2.033926203e-13)
5(-4.490438343e-13 -3.685120257e-13 -3.0908573e-13 -2.501854051e-13 -2.07049324e-13)
5(-4.382540569e-13 -3.608893652e-13 -3.056343408e-13 -2.503522571e-13 -2.125147386e-13)
5(-4.254851151e-13 -3.546874886e-13 -3.036609422e-13 -2.521641766e-13 -2.206103127e-13)
5(-4.160467538e-13 -3.488010224e-13 -3.028465012e-13 -2.567892511e-13 -2.335768985e-13)