/*--------------------------------*- C++ -*----------------------------------*\
| =========                 |                                                 |
| \\      /  F ield         | OpenFOAM: The Open Source CFD Toolbox           |
|  \\    /   O peration     | Version:  2.3.1                                 |
|   \\  /    A nd           | Web:      www.OpenFOAM.org                      |
|    \\/     M anipulation  |                                                 |
\*---------------------------------------------------------------------------*/
FoamFile
{
    version     2.0;
    format      ascii;
    class       dictionary;
    location    "constant";
    object      DPSI36;
}
// * * * * * * * * * * * * * * * * * * * * * * * * * * * * * * * * * * * * * //

DPSI36_table
60
(

60
(
5(-1.076030988e-11 -8.270041723e-12 -8.324051385e-12 -6.395507232e-12 -4.919525122e-12)
5(-1.208311333e-11 -1.241409702e-11 -9.030757061e-12 -7.730467457e-12 -5.583189611e-12)
5(-7.17426215e-12 -1.347289893e-11 -1.058063203e-11 -9.459492476e-12 -7.075252189e-12)
5(6.684528179e-12 -1.501652489e-11 -1.162573715e-11 -1.142443464e-11 -7.256390477e-12)
5(1.687123614e-11 -1.738648743e-11 -1.365927253e-11 -1.216329769e-11 -8.974997703e-12)
5(1.581338198e-11 -2.00273105e-11 -1.751099022e-11 -1.380726303e-11 -1.072352002e-11)
5(-2.427203087e-11 -2.262987074e-11 -1.942025867e-11 -1.598860661e-11 -1.135514728e-11)
5(-2.870471625e-11 -2.514588055e-11 -2.056225391e-11 -1.747738067e-11 -1.390505568e-11)
5(2.685423364e-11 -2.774103802e-11 -2.296016553e-11 -1.932583306e-11 -1.498795121e-11)
5(6.086310862e-11 -3.015426279e-11 -2.47262705e-11 -2.171452269e-11 -1.670198225e-11)
5(7.190726495e-11 -3.322403517e-11 -2.773384475e-11 -2.424781978e-11 -1.88517548e-11)
5(1.575226536e-12 -3.783223741e-11 -3.175675882e-11 -2.732553792e-11 -2.158768293e-11)
5(-4.691064061e-11 -4.212837555e-11 -3.590447536e-11 -3.061015449e-11 -2.450949223e-11)
5(-5.142762546e-11 -4.703818574e-11 -4.033103393e-11 -3.511214911e-11 -2.818501595e-11)
5(-5.817241009e-11 -5.318514685e-11 -4.587220398e-11 -3.974509896e-11 -3.243409756e-11)
5(-5.910620767e-11 -5.816626121e-11 -5.138885569e-11 -4.527626921e-11 -3.74275945e-11)
5(-6.733843411e-11 -6.642713861e-11 -5.847496559e-11 -5.232461283e-11 -4.347363968e-11)
5(-8.024691126e-11 -7.639675066e-11 -6.807433482e-11 -6.069270591e-11 -5.086559483e-11)
5(-9.404565471e-11 -8.853268893e-11 -7.895654423e-11 -7.12137224e-11 -5.98602202e-11)
5(-1.070265567e-10 -1.022748572e-10 -9.176288925e-11 -8.34833206e-11 -7.142585899e-11)
5(-1.235794186e-10 -1.199358842e-10 -1.088068926e-10 -9.990762901e-11 -8.638834544e-11)
5(-1.434747839e-10 -1.413453388e-10 -1.289566349e-10 -1.223274373e-10 -1.058851092e-10)
5(-1.668362462e-10 -1.676727888e-10 -1.555908899e-10 -1.479003816e-10 -1.296889122e-10)
5(-1.972216548e-10 -2.003586601e-10 -1.900013084e-10 -1.834330587e-10 -1.62548743e-10)
5(-2.343908592e-10 -2.412160512e-10 -2.342490149e-10 -2.294651304e-10 -2.062996857e-10)
5(-2.828680381e-10 -2.935871053e-10 -2.915307733e-10 -2.911542641e-10 -2.672118287e-10)
5(-3.465551048e-10 -3.72853316e-10 -3.74876851e-10 -3.7685664e-10 -3.508519518e-10)
5(-4.317290461e-10 -4.835403794e-10 -4.833040244e-10 -4.95153548e-10 -4.661761475e-10)
5(-5.406102897e-10 -6.220794388e-10 -6.379964583e-10 -6.612894611e-10 -6.256395828e-10)
5(-6.91051961e-10 -8.081177066e-10 -8.48889793e-10 -8.941077623e-10 -8.469304131e-10)
5(-8.920566865e-10 -1.060901288e-09 -1.127774356e-09 -1.194351293e-09 -1.140507977e-09)
5(-1.168450254e-09 -1.413194408e-09 -1.521751199e-09 -1.622970689e-09 -1.558167469e-09)
5(-1.542568222e-09 -1.867729332e-09 -2.024469144e-09 -2.161254279e-09 -2.035126045e-09)
5(-2.030459697e-09 -2.456202292e-09 -2.659972714e-09 -2.856808629e-09 -2.708316141e-09)
5(-2.66729912e-09 -3.236783105e-09 -3.501402824e-09 -3.699106346e-09 -3.462844902e-09)
5(-3.490146012e-09 -4.144299225e-09 -4.417619174e-09 -4.675549692e-09 -4.297766551e-09)
5(-4.513241009e-09 -5.382743331e-09 -5.773938723e-09 -5.840734049e-09 -5.172438641e-09)
5(-5.751341103e-09 -6.656944147e-09 -7.102931063e-09 -6.945435841e-09 -6.140253799e-09)
5(-7.149306209e-09 -8.126684703e-09 -8.396222658e-09 -8.042255954e-09 -6.637184579e-09)
5(-8.59339032e-09 -9.585630708e-09 -9.538223762e-09 -8.81778687e-09 -7.043424963e-09)
5(-1.017108398e-08 -1.103403755e-08 -1.068080815e-08 -9.227934419e-09 -6.737134383e-09)
5(-1.166889208e-08 -1.209317697e-08 -1.122853393e-08 -9.044113185e-09 -5.942756877e-09)
5(-1.278381948e-08 -1.270371421e-08 -1.115957115e-08 -8.307383889e-09 -4.791881076e-09)
5(-1.329115074e-08 -1.232639823e-08 -9.938960791e-09 -6.787844409e-09 -3.490839506e-09)
5(-1.302119169e-08 -1.13322279e-08 -8.508989793e-09 -5.00636105e-09 -2.276482254e-09)
5(-1.204755266e-08 -9.518897391e-09 -6.617527948e-09 -3.2888899e-09 -1.293994963e-09)
5(-1.023250422e-08 -7.344065931e-09 -4.46757733e-09 -1.901705895e-09 -6.301110409e-10)
5(-7.713371991e-09 -5.092180129e-09 -2.626494068e-09 -9.52063598e-10 -2.601469845e-10)
5(-5.373649231e-09 -3.018579117e-09 -1.316761839e-09 -4.031302792e-10 -9.129974267e-11)
5(-3.174472031e-09 -1.513350015e-09 -5.565988626e-10 -1.410407811e-10 -2.793127436e-11)
5(-1.578999356e-09 -6.247952658e-10 -1.897809509e-10 -4.21131816e-11 -7.426648639e-12)
5(-6.213098675e-10 -2.060182714e-10 -5.300691687e-11 -1.070573288e-11 -1.758536934e-12)
5(-1.991265334e-10 -5.34345007e-11 -1.229264648e-11 -2.339553381e-12 -3.689242752e-13)
5(-4.329431049e-11 -1.004202278e-11 -2.167536422e-12 -4.31201922e-13 -7.187223524e-14)
5(-6.508468593e-12 -1.512718002e-12 -3.095317557e-13 -6.728105817e-14 -1.417080971e-14)
5(-5.759909999e-13 -1.369964554e-13 -3.620918123e-14 -1.055225777e-14 -5.458650639e-15)
5(-3.505040703e-14 -1.238808182e-14 -4.992498834e-15 -4.15109532e-15 -4.702196923e-15)
5(-2.738428438e-15 -2.696785944e-15 -3.112872618e-15 -3.873950975e-15 -5.105889026e-15)
5(-1.485602383e-15 -2.072181894e-15 -2.931012233e-15 -4.254748609e-15 -5.741938436e-15)
5(-1.101994344e-15 -1.752289582e-15 -2.425734252e-13 -3.087300631e-15 -4.741532184e-15)
)


60
(
5(-1.31073457e-11 -9.535496838e-12 -9.901069714e-12 -7.367638832e-12 -5.639541796e-12)
5(-1.53632015e-11 -1.40066831e-11 -1.061553417e-11 -8.574503458e-12 -6.093492771e-12)
5(-1.444628413e-11 -1.58600562e-11 -1.215768097e-11 -1.016977646e-11 -7.688513033e-12)
5(-7.890394298e-12 -1.798393002e-11 -1.362033089e-11 -1.206882779e-11 -7.678982849e-12)
5(-4.335290821e-12 -2.073670768e-11 -1.596458708e-11 -1.313195548e-11 -9.352344555e-12)
5(-7.926513041e-12 -2.379866675e-11 -1.971583315e-11 -1.494753639e-11 -1.116591134e-11)
5(-3.136416282e-11 -2.689203203e-11 -2.200629834e-11 -1.716034519e-11 -1.213239335e-11)
5(-3.611762409e-11 -2.995819713e-11 -2.378948188e-11 -1.893389381e-11 -1.448561013e-11)
5(-9.116439399e-12 -3.31593592e-11 -2.650704685e-11 -2.103845715e-11 -1.587836261e-11)
5(5.893585824e-12 -3.652129269e-11 -2.904192026e-11 -2.367873804e-11 -1.78130823e-11)
5(8.566986721e-12 -4.056740369e-11 -3.256232926e-11 -2.660667681e-11 -2.027094143e-11)
5(-3.141563495e-11 -4.571087079e-11 -3.700001985e-11 -3.010793124e-11 -2.333105555e-11)
5(-6.011363271e-11 -5.096452291e-11 -4.178641089e-11 -3.396149652e-11 -2.668325206e-11)
5(-6.643800437e-11 -5.693965679e-11 -4.70462959e-11 -3.88720049e-11 -3.07569538e-11)
5(-7.45036949e-11 -6.409078005e-11 -5.335006695e-11 -4.417817628e-11 -3.550468923e-11)
5(-8.045778138e-11 -7.126879811e-11 -6.019927136e-11 -5.045370285e-11 -4.102397762e-11)
5(-9.033680715e-11 -8.082030035e-11 -6.845430636e-11 -5.79966678e-11 -4.751663107e-11)
5(-1.036917221e-10 -9.198615474e-11 -7.869346172e-11 -6.680377622e-11 -5.535901976e-11)
5(-1.185566438e-10 -1.049976783e-10 -9.030600129e-11 -7.747505005e-11 -6.463888002e-11)
5(-1.339547179e-10 -1.198261708e-10 -1.038570498e-10 -8.978381744e-11 -7.595971329e-11)
5(-1.52756863e-10 -1.376323215e-10 -1.205626708e-10 -1.051666137e-10 -8.976314114e-11)
5(-1.738367655e-10 -1.584721057e-10 -1.399309902e-10 -1.248201972e-10 -1.074023283e-10)
5(-1.984173388e-10 -1.830417314e-10 -1.637078705e-10 -1.470247147e-10 -1.281848423e-10)
5(-2.282910706e-10 -2.121126773e-10 -1.928180529e-10 -1.758794568e-10 -1.554679024e-10)
5(-2.629278827e-10 -2.469528473e-10 -2.287945507e-10 -2.121402822e-10 -1.904923483e-10)
5(-3.047991523e-10 -2.89370492e-10 -2.73798773e-10 -2.592281372e-10 -2.374762237e-10)
5(-3.562997382e-10 -3.477046878e-10 -3.34952458e-10 -3.215420351e-10 -3.003620047e-10)
5(-4.214893015e-10 -4.240409521e-10 -4.117419665e-10 -4.054660743e-10 -3.855354721e-10)
5(-4.993068743e-10 -5.182057138e-10 -5.17592779e-10 -5.203280189e-10 -5.01639278e-10)
5(-6.030618229e-10 -6.407792975e-10 -6.593454357e-10 -6.788784e-10 -6.620117461e-10)
5(-7.343730009e-10 -8.033959474e-10 -8.441696976e-10 -8.840322117e-10 -8.726852497e-10)
5(-9.100452087e-10 -1.0261919e-09 -1.102361444e-09 -1.173654712e-09 -1.170890549e-09)
5(-1.143775846e-09 -1.314529775e-09 -1.434776177e-09 -1.543932652e-09 -1.52227737e-09)
5(-1.447156478e-09 -1.688528409e-09 -1.861082874e-09 -2.022556061e-09 -2.015830183e-09)
5(-1.839898783e-09 -2.184167918e-09 -2.424235553e-09 -2.618003672e-09 -2.587488466e-09)
5(-2.348840887e-09 -2.779371418e-09 -3.066265232e-09 -3.331296293e-09 -3.252696248e-09)
5(-2.994403991e-09 -3.585005337e-09 -3.987091121e-09 -4.197924988e-09 -3.988485563e-09)
5(-3.77578342e-09 -4.459148988e-09 -4.94790344e-09 -5.088003277e-09 -4.817355178e-09)
5(-4.695669247e-09 -5.503279111e-09 -5.946529959e-09 -6.024584752e-09 -5.419723041e-09)
5(-5.68661613e-09 -6.588943285e-09 -6.921808634e-09 -6.824974877e-09 -6.003099028e-09)
5(-6.799362496e-09 -7.731808845e-09 -7.938337115e-09 -7.429415836e-09 -6.143152183e-09)
5(-7.945506518e-09 -8.696914573e-09 -8.620471097e-09 -7.673926595e-09 -5.914214319e-09)
5(-8.912251409e-09 -9.42123949e-09 -8.914152233e-09 -7.512035532e-09 -5.319944125e-09)
5(-9.550853587e-09 -9.573440423e-09 -8.470231649e-09 -6.724999231e-09 -4.4236973e-09)
5(-9.750978576e-09 -9.238651879e-09 -7.716620447e-09 -5.563217172e-09 -3.380167371e-09)
5(-9.454940759e-09 -8.268551357e-09 -6.483643773e-09 -4.208332805e-09 -2.324785593e-09)
5(-8.507833321e-09 -6.874993799e-09 -4.898142033e-09 -2.867410508e-09 -1.423159875e-09)
5(-6.970453729e-09 -5.20783443e-09 -3.307913503e-09 -1.737578237e-09 -7.587765779e-10)
5(-5.273472811e-09 -3.482978718e-09 -1.959954915e-09 -9.206719371e-10 -3.479426484e-10)
5(-3.506328885e-09 -2.040429624e-09 -1.001710369e-09 -4.125286618e-10 -1.349979622e-10)
5(-2.016229452e-09 -1.011668549e-09 -4.289399601e-10 -1.565090831e-10 -4.347693467e-11)
5(-9.615110352e-10 -4.093409153e-10 -1.478903557e-10 -4.763869758e-11 -1.212022889e-11)
5(-3.622596414e-10 -1.303185316e-10 -4.027729651e-11 -1.18345568e-11 -2.809325767e-12)
5(-9.893400525e-11 -3.073411607e-11 -8.01422001e-12 -2.229821461e-12 -5.353794285e-13)
5(-1.918351684e-11 -5.104865562e-12 -1.211664873e-12 -3.528759232e-13 -9.235514284e-14)
5(-2.163292894e-12 -5.661372934e-13 -1.237837064e-13 -4.472177455e-14 -1.594329549e-14)
5(-1.450432724e-13 -3.354865178e-14 -1.280148089e-14 -7.947031951e-15 -7.033857734e-15)
5(-6.020432853e-15 -3.234876384e-15 -4.845526272e-15 -4.572532963e-15 -6.71778369e-15)
5(-2.805463092e-15 3.26265683e-13 -4.462022507e-15 1.820971601e-13 -7.141388664e-15)
5(-2.222298373e-15 -3.003562176e-15 -2.632582882e-13 -4.8716167e-15 -6.66932755e-15)
)


60
(
5(-1.793226769e-11 -1.247833933e-11 -1.320005198e-11 -9.583738067e-12 -7.230746617e-12)
5(-2.225472276e-11 -1.740553285e-11 -1.42125034e-11 -1.072292665e-11 -7.415595733e-12)
5(-2.609822879e-11 -2.154945102e-11 -1.605958207e-11 -1.221892727e-11 -8.162661691e-12)
5(-3.023249146e-11 -2.518998963e-11 -1.868706082e-11 -1.406524445e-11 -9.377732816e-12)
5(-3.541889315e-11 -2.901289634e-11 -2.191681957e-11 -1.624811801e-11 -1.101750634e-11)
5(-4.147762699e-11 -3.323352951e-11 -2.543344558e-11 -1.866054575e-11 -1.296742005e-11)
5(-4.738332289e-11 -3.756198038e-11 -2.89030625e-11 -2.123885722e-11 -1.497658221e-11)
5(-5.307928517e-11 -4.218602191e-11 -3.244190104e-11 -2.401487345e-11 -1.708581513e-11)
5(-5.917793803e-11 -4.722641315e-11 -3.627056334e-11 -2.710671907e-11 -1.951090999e-11)
5(-6.608358453e-11 -5.283283594e-11 -4.073822501e-11 -3.073583901e-11 -2.238754943e-11)
5(-7.357730298e-11 -5.921635705e-11 -4.595437482e-11 -3.503310753e-11 -2.591309614e-11)
5(-8.232206223e-11 -6.639012454e-11 -5.205352225e-11 -4.005480103e-11 -3.003949781e-11)
5(-9.202340031e-11 -7.455311114e-11 -5.90560274e-11 -4.580249139e-11 -3.485342347e-11)
5(-1.02571362e-10 -8.382069353e-11 -6.698794867e-11 -5.244883362e-11 -4.051918133e-11)
5(-1.144460456e-10 -9.438138419e-11 -7.604804545e-11 -6.014581379e-11 -4.689728088e-11)
5(-1.281607511e-10 -1.063020088e-10 -8.644982251e-11 -6.901136298e-11 -5.439125764e-11)
5(-1.439127049e-10 -1.200194961e-10 -9.849606106e-11 -7.913696151e-11 -6.29788094e-11)
5(-1.611999974e-10 -1.357552451e-10 -1.123864633e-10 -9.083948466e-11 -7.287055893e-11)
5(-1.818170626e-10 -1.533472926e-10 -1.279677174e-10 -1.041912161e-10 -8.435421474e-11)
5(-2.041039376e-10 -1.734053356e-10 -1.457779566e-10 -1.192721016e-10 -9.723336463e-11)
5(-2.297033211e-10 -1.960757654e-10 -1.654848741e-10 -1.360334278e-10 -1.11871909e-10)
5(-2.593925937e-10 -2.207409864e-10 -1.874966398e-10 -1.550770291e-10 -1.292620663e-10)
5(-2.916271521e-10 -2.482665179e-10 -2.122779486e-10 -1.761240074e-10 -1.483614908e-10)
5(-3.250365125e-10 -2.785509481e-10 -2.398455163e-10 -1.996740463e-10 -1.70827031e-10)
5(-3.630628134e-10 -3.115416e-10 -2.695133894e-10 -2.266670472e-10 -1.962109227e-10)
5(-4.039939822e-10 -3.463789344e-10 -3.025435078e-10 -2.574110784e-10 -2.270417917e-10)
5(-4.47346593e-10 -3.837377696e-10 -3.395385468e-10 -2.931541731e-10 -2.647242173e-10)
5(-4.930408587e-10 -4.239602667e-10 -3.809893526e-10 -3.35434003e-10 -3.112605916e-10)
5(-5.404999473e-10 -4.676994473e-10 -4.285622663e-10 -3.870458461e-10 -3.702816722e-10)
5(-5.902377516e-10 -5.158319174e-10 -4.851371567e-10 -4.513876624e-10 -4.467756499e-10)
5(-6.415519679e-10 -5.699414357e-10 -5.540105256e-10 -5.344311566e-10 -5.494557201e-10)
5(-6.971073275e-10 -6.33801254e-10 -6.420853311e-10 -6.445118644e-10 -6.860838513e-10)
5(-7.583018051e-10 -7.131381082e-10 -7.555407996e-10 -7.929950498e-10 -8.682390521e-10)
5(-8.297652712e-10 -8.165894886e-10 -9.071409599e-10 -9.891977612e-10 -1.111318945e-09)
5(-9.173636396e-10 -9.534255031e-10 -1.109472627e-09 -1.255875053e-09 -1.433438123e-09)
5(-1.02842065e-09 -1.141379275e-09 -1.379894943e-09 -1.609689038e-09 -1.8419713e-09)
5(-1.180329764e-09 -1.394220333e-09 -1.741333856e-09 -2.065660536e-09 -2.354791727e-09)
5(-1.394130578e-09 -1.738643862e-09 -2.206387235e-09 -2.63582812e-09 -2.962970788e-09)
5(-1.683626723e-09 -2.19794456e-09 -2.794638518e-09 -3.317738784e-09 -3.651959005e-09)
5(-2.07239425e-09 -2.771853737e-09 -3.499993447e-09 -4.085719892e-09 -4.372286942e-09)
5(-2.588538313e-09 -3.488501613e-09 -4.299016094e-09 -4.884620512e-09 -5.044063476e-09)
5(-3.232884143e-09 -4.286691763e-09 -5.111864553e-09 -5.618675359e-09 -5.560247805e-09)
5(-3.986546584e-09 -5.124257165e-09 -5.850456908e-09 -6.167305941e-09 -5.760060822e-09)
5(-4.79591498e-09 -5.899856915e-09 -6.37679591e-09 -6.382747405e-09 -5.570122055e-09)
5(-5.590769326e-09 -6.44760598e-09 -6.557021641e-09 -6.163035701e-09 -4.96389343e-09)
5(-6.212969323e-09 -6.638191622e-09 -6.290168634e-09 -5.474633008e-09 -4.015033921e-09)
5(-6.499494757e-09 -6.366005989e-09 -5.554150963e-09 -4.415286194e-09 -2.914898529e-09)
5(-6.355341687e-09 -5.622937665e-09 -4.446676424e-09 -3.17536606e-09 -1.858503471e-09)
5(-5.688085636e-09 -4.487076691e-09 -3.151628633e-09 -2.002757547e-09 -1.031940242e-09)
5(-4.612581552e-09 -3.173380451e-09 -1.920224605e-09 -1.080450712e-09 -4.858898201e-10)
5(-3.302122186e-09 -1.928130044e-09 -9.969663489e-10 -4.947423662e-10 -1.912682594e-10)
5(-2.026071424e-09 -9.620017005e-10 -4.239461004e-10 -1.81553295e-10 -6.092202145e-11)
5(-9.962191588e-10 -3.850558087e-10 -1.405370728e-10 -5.362156178e-11 -1.609932904e-11)
5(-3.789500721e-10 -1.15854156e-10 -3.401322746e-11 -1.210467871e-11 -3.366706982e-12)
5(-1.069837547e-10 -2.405004e-11 -5.617245693e-12 -1.955801148e-12 -5.480466297e-13)
5(-1.76031071e-11 -3.044848319e-12 -6.410375621e-13 -2.252342104e-13 -7.817923464e-14)
5(-1.223599401e-12 -2.63085678e-13 -4.427724387e-14 -2.43629071e-14 -1.45106969e-14)
5(-8.747147664e-14 -2.202399335e-14 -8.825916349e-15 -1.536672538e-14 -1.016089396e-14)
5(-6.280029138e-15 -1.785194407e-12 9.488933168e-15 -1.538884636e-12 -1.013476171e-14)
5(-4.450925215e-15 -7.432843714e-13 1.191688118e-13 -1.424476529e-14 -1.014604436e-14)
)


60
(
5(-2.324347629e-11 -1.655650847e-11 -1.692707576e-11 -1.250200963e-11 -9.239022558e-12)
5(-3.061640976e-11 -2.393310862e-11 -1.918669832e-11 -1.438249263e-11 -9.789408323e-12)
5(-3.706949119e-11 -3.009343001e-11 -2.223283724e-11 -1.665451349e-11 -1.094336684e-11)
5(-4.332327274e-11 -3.545261302e-11 -2.613638967e-11 -1.936958747e-11 -1.26924303e-11)
5(-5.082860791e-11 -4.09846802e-11 -3.076520096e-11 -2.251655718e-11 -1.508606354e-11)
5(-5.928913109e-11 -4.703871679e-11 -3.570695909e-11 -2.601426242e-11 -1.790850268e-11)
5(-6.776288835e-11 -5.331709814e-11 -4.074165982e-11 -2.978776103e-11 -2.088805141e-11)
5(-7.613624841e-11 -6.01030131e-11 -4.600571881e-11 -3.389936997e-11 -2.401120286e-11)
5(-8.515094596e-11 -6.751524767e-11 -5.174532486e-11 -3.85737045e-11 -2.762839417e-11)
5(-9.517179569e-11 -7.585784881e-11 -5.840375385e-11 -4.40193789e-11 -3.19744393e-11)
5(-1.062243478e-10 -8.520801589e-11 -6.621676884e-11 -5.043709697e-11 -3.72425334e-11)
5(-1.188955587e-10 -9.587688964e-11 -7.531858585e-11 -5.787841326e-11 -4.335756614e-11)
5(-1.330300255e-10 -1.081154238e-10 -8.573251063e-11 -6.65612836e-11 -5.056566643e-11)
5(-1.493811149e-10 -1.21896931e-10 -9.773636362e-11 -7.65341454e-11 -5.874447736e-11)
5(-1.667631565e-10 -1.376069062e-10 -1.114250142e-10 -8.803425913e-11 -6.83072129e-11)
5(-1.864633387e-10 -1.55337158e-10 -1.271884365e-10 -1.012229918e-10 -7.927789962e-11)
5(-2.099611371e-10 -1.756911645e-10 -1.450186483e-10 -1.163581307e-10 -9.1818628e-11)
5(-2.35978392e-10 -1.987775355e-10 -1.652470499e-10 -1.335720885e-10 -1.058930771e-10)
5(-2.654243786e-10 -2.247698565e-10 -1.882645943e-10 -1.525893205e-10 -1.218981347e-10)
5(-2.988176347e-10 -2.541661121e-10 -2.139321033e-10 -1.739729235e-10 -1.399811625e-10)
5(-3.357633024e-10 -2.867221049e-10 -2.423065573e-10 -1.976643405e-10 -1.599785205e-10)
5(-3.769427364e-10 -3.224141196e-10 -2.735709728e-10 -2.233533279e-10 -1.823561476e-10)
5(-4.223839359e-10 -3.613140368e-10 -3.075451393e-10 -2.514511707e-10 -2.062404159e-10)
5(-4.719211714e-10 -4.031894473e-10 -3.436735143e-10 -2.813529135e-10 -2.332312573e-10)
5(-5.242332393e-10 -4.473801435e-10 -3.817374969e-10 -3.130595055e-10 -2.612169036e-10)
5(-5.787882845e-10 -4.932063321e-10 -4.215837931e-10 -3.460573235e-10 -2.926774645e-10)
5(-6.34329217e-10 -5.368060793e-10 -4.620855783e-10 -3.811688148e-10 -3.264125312e-10)
5(-6.9061315e-10 -5.813761321e-10 -5.027933084e-10 -4.17188164e-10 -3.637683793e-10)
5(-7.461601661e-10 -6.236006184e-10 -5.425127632e-10 -4.552408998e-10 -4.062629619e-10)
5(-7.956688928e-10 -6.622886765e-10 -5.817218399e-10 -4.955085502e-10 -4.550940102e-10)
5(-8.399592401e-10 -6.962604305e-10 -6.217619699e-10 -5.402701241e-10 -5.178265408e-10)
5(-8.745519724e-10 -7.226853664e-10 -6.616895363e-10 -5.949797651e-10 -5.983010845e-10)
5(-8.979134363e-10 -7.460099123e-10 -7.069015296e-10 -6.637497188e-10 -7.020301639e-10)
5(-9.095323229e-10 -7.698948077e-10 -7.642537655e-10 -7.603045686e-10 -8.444839153e-10)
5(-9.140093987e-10 -7.960617203e-10 -8.400036731e-10 -8.94727233e-10 -1.043954093e-09)
5(-9.144739411e-10 -8.381320345e-10 -9.544375664e-10 -1.085880254e-09 -1.313590765e-09)
5(-9.114786686e-10 -9.12710309e-10 -1.12884017e-09 -1.358018197e-09 -1.678028909e-09)
5(-9.378582898e-10 -1.042378303e-09 -1.387601743e-09 -1.739024307e-09 -2.154142125e-09)
5(-1.003046989e-09 -1.258896633e-09 -1.763003676e-09 -2.245156411e-09 -2.75207726e-09)
5(-1.152583783e-09 -1.596072145e-09 -2.2639067e-09 -2.884343172e-09 -3.449775368e-09)
5(-1.42380378e-09 -2.086155393e-09 -2.910728706e-09 -3.644685966e-09 -4.206240585e-09)
5(-1.838748387e-09 -2.730481095e-09 -3.687204815e-09 -4.466115982e-09 -4.946543557e-09)
5(-2.442002333e-09 -3.534511456e-09 -4.52709459e-09 -5.255617837e-09 -5.521012519e-09)
5(-3.238156192e-09 -4.430308839e-09 -5.32960134e-09 -5.881351455e-09 -5.818567639e-09)
5(-4.163203025e-09 -5.31257418e-09 -5.939201312e-09 -6.181510085e-09 -5.709233411e-09)
5(-5.136199248e-09 -6.037702395e-09 -6.245216701e-09 -6.044498791e-09 -5.17406014e-09)
5(-6.025583957e-09 -6.416956883e-09 -6.089027328e-09 -5.442035723e-09 -4.260640685e-09)
5(-6.622977784e-09 -6.352699389e-09 -5.423147771e-09 -4.435853354e-09 -3.144260451e-09)
5(-6.735925054e-09 -5.754281622e-09 -4.358093787e-09 -3.212534147e-09 -2.038229203e-09)
5(-6.288710065e-09 -4.69378285e-09 -3.089364729e-09 -2.045029926e-09 -1.135394155e-09)
5(-5.293296471e-09 -3.369012994e-09 -1.885384193e-09 -1.103233376e-09 -5.3634422e-10)
5(-3.953336184e-09 -2.055398408e-09 -9.585532784e-10 -4.962900674e-10 -2.118020351e-10)
5(-2.534392844e-09 -1.053949494e-09 -3.911150586e-10 -1.746351024e-10 -6.297328497e-11)
5(-1.330738775e-09 -4.289926122e-10 -1.202854443e-10 -4.709597593e-11 -1.602169437e-11)
5(-5.275059895e-10 -1.240451818e-10 -2.635371073e-11 -8.775235118e-12 -2.819889938e-12)
5(-1.704934944e-10 -2.451159052e-11 -3.612996856e-12 -1.12594877e-12 -3.0708893e-13)
5(-3.248683989e-11 -2.763538133e-12 -2.526803214e-13 -1.019737864e-13 -3.942904965e-14)
5(-3.062625025e-12 -1.872369343e-13 -2.095258435e-14 -1.966668757e-14 -1.448044587e-14)
5(-2.08607006e-13 -1.483191751e-12 -9.869553269e-15 -8.439293579e-13 -1.347323024e-14)
5(-2.515674435e-13 -7.892098624e-15 -9.708922258e-13 -1.073922933e-14 -1.275837868e-14)
)


60
(
5(-2.872052677e-11 -2.09692838e-11 -2.083704522e-11 -1.575244059e-11 -1.15195453e-11)
5(-3.947895552e-11 -3.093678763e-11 -2.457497911e-11 -1.855027104e-11 -1.265365085e-11)
5(-4.859600927e-11 -3.92424807e-11 -2.906530762e-11 -2.176115834e-11 -1.441092938e-11)
5(-5.72034331e-11 -4.635964399e-11 -3.439606236e-11 -2.547585284e-11 -1.693340836e-11)
5(-6.70583489e-11 -5.364204506e-11 -4.042472292e-11 -2.971791828e-11 -2.01808226e-11)
5(-7.803947379e-11 -6.165890725e-11 -4.689012671e-11 -3.447741136e-11 -2.398368683e-11)
5(-8.89999993e-11 -7.006628248e-11 -5.367886219e-11 -3.960471019e-11 -2.812222683e-11)
5(-1.002751127e-10 -7.911864169e-11 -6.083841771e-11 -4.527742476e-11 -3.250058181e-11)
5(-1.121990616e-10 -8.910222055e-11 -6.876994478e-11 -5.178236132e-11 -3.760338562e-11)
5(-1.255043044e-10 -1.002809188e-10 -7.791720998e-11 -5.936138799e-11 -4.368166839e-11)
5(-1.406178328e-10 -1.130105801e-10 -8.86574073e-11 -6.82330378e-11 -5.101665562e-11)
5(-1.571846996e-10 -1.274335141e-10 -1.010605769e-10 -7.855890984e-11 -5.956241536e-11)
5(-1.762018454e-10 -1.439056258e-10 -1.153764648e-10 -9.059645754e-11 -6.959618877e-11)
5(-1.973217149e-10 -1.625633551e-10 -1.317776116e-10 -1.044782143e-10 -8.08826139e-11)
5(-2.21860461e-10 -1.839203246e-10 -1.506875746e-10 -1.204237782e-10 -9.43568684e-11)
5(-2.490282758e-10 -2.083832427e-10 -1.723356704e-10 -1.385845932e-10 -1.093368876e-10)
5(-2.795931906e-10 -2.359968853e-10 -1.968860988e-10 -1.59419659e-10 -1.269388635e-10)
5(-3.154116286e-10 -2.67426159e-10 -2.246532655e-10 -1.828153897e-10 -1.463742643e-10)
5(-3.539937403e-10 -3.028450026e-10 -2.560209981e-10 -2.092454112e-10 -1.685849927e-10)
5(-3.996970304e-10 -3.423450615e-10 -2.910089877e-10 -2.3857996e-10 -1.931397597e-10)
5(-4.498266278e-10 -3.861878064e-10 -3.298368343e-10 -2.709924414e-10 -2.201962978e-10)
5(-5.027070566e-10 -4.345354617e-10 -3.719567077e-10 -3.060886386e-10 -2.498243624e-10)
5(-5.63848198e-10 -4.868183106e-10 -4.176809238e-10 -3.438048223e-10 -2.81833133e-10)
5(-6.313744443e-10 -5.425556412e-10 -4.657215249e-10 -3.838623978e-10 -3.158908079e-10)
5(-6.996776655e-10 -6.004057384e-10 -5.16407001e-10 -4.254236832e-10 -3.52869679e-10)
5(-7.726040779e-10 -6.601627095e-10 -5.686231562e-10 -4.674133022e-10 -3.893051463e-10)
5(-8.480833454e-10 -7.207399014e-10 -6.198372555e-10 -5.090521027e-10 -4.265246198e-10)
5(-9.21607428e-10 -7.7891283e-10 -6.688167284e-10 -5.492452681e-10 -4.650349468e-10)
5(-9.897555652e-10 -8.309902839e-10 -7.133392666e-10 -5.860444836e-10 -5.022572855e-10)
5(-1.053556744e-09 -8.750237433e-10 -7.522145154e-10 -6.189397924e-10 -5.396591861e-10)
5(-1.107317898e-09 -9.094490933e-10 -7.82316383e-10 -6.474641867e-10 -5.795223566e-10)
5(-1.144315392e-09 -9.289039283e-10 -8.021482562e-10 -6.705858579e-10 -6.223593434e-10)
5(-1.160871218e-09 -9.314975275e-10 -8.132327106e-10 -6.921482994e-10 -6.736921635e-10)
5(-1.150542552e-09 -9.133715255e-10 -8.149545952e-10 -7.210462401e-10 -7.529223436e-10)
5(-1.119218368e-09 -8.782528048e-10 -8.141756253e-10 -7.631817716e-10 -8.527937493e-10)
5(-1.060332117e-09 -8.348361475e-10 -8.247885422e-10 -8.368176443e-10 -1.011974744e-09)
5(-9.783975217e-10 -7.983211238e-10 -8.640345089e-10 -9.699908952e-10 -1.24371454e-09)
5(-8.851962796e-10 -7.836615159e-10 -9.626515963e-10 -1.18422109e-09 -1.580457686e-09)
5(-8.074100338e-10 -8.228210599e-10 -1.14759922e-09 -1.517735274e-09 -2.046323416e-09)
5(-7.810605092e-10 -9.566604354e-10 -1.461664888e-09 -1.998787346e-09 -2.654041575e-09)
5(-8.357721269e-10 -1.230036776e-09 -1.939331768e-09 -2.641114979e-09 -3.369910965e-09)
5(-1.046388719e-09 -1.688341935e-09 -2.601187723e-09 -3.427865137e-09 -4.188865121e-09)
5(-1.441046578e-09 -2.357736089e-09 -3.427018679e-09 -4.308645514e-09 -4.976800441e-09)
5(-2.083057475e-09 -3.234021432e-09 -4.35846678e-09 -5.183003381e-09 -5.61211297e-09)
5(-2.979342332e-09 -4.266777988e-09 -5.271113697e-09 -5.880782862e-09 -5.942310785e-09)
5(-4.075849865e-09 -5.344894449e-09 -6.031205084e-09 -6.240744509e-09 -5.874043594e-09)
5(-5.227296724e-09 -6.287174652e-09 -6.443518155e-09 -6.129331351e-09 -5.326913219e-09)
5(-6.390465111e-09 -6.885508475e-09 -6.335816697e-09 -5.526026944e-09 -4.396236234e-09)
5(-7.24356842e-09 -6.981258732e-09 -5.699838975e-09 -4.498385637e-09 -3.2275365e-09)
5(-7.559018395e-09 -6.471473279e-09 -4.613553196e-09 -3.245118027e-09 -2.073895829e-09)
5(-7.277998843e-09 -5.405453941e-09 -3.271036867e-09 -2.028211125e-09 -1.141750977e-09)
5(-6.340481748e-09 -4.030980737e-09 -1.98298042e-09 -1.071589137e-09 -5.28552782e-10)
5(-4.902170716e-09 -2.530392052e-09 -1.0105759e-09 -4.527441461e-10 -1.934553357e-10)
5(-3.362390201e-09 -1.336535569e-09 -3.989530158e-10 -1.534680572e-10 -5.621215744e-11)
5(-1.862511021e-09 -5.634294037e-10 -1.15518529e-10 -3.662613678e-11 -1.120744719e-11)
5(-9.166921354e-10 -1.754500561e-10 -2.018182569e-11 -5.656579499e-12 -1.559649395e-12)
5(-3.264586913e-10 -4.250201651e-11 -2.934058528e-12 -5.221810655e-13 -1.268902697e-13)
5(-9.176309488e-11 -4.560789107e-12 -1.884130764e-13 -3.377783418e-14 -2.270203449e-14)
5(-2.027315972e-11 1.328710444e-12 -3.585906681e-14 1.494151253e-12 -1.713466369e-14)
5(-2.815113052e-11 7.746905919e-14 -3.599474678e-12 -7.676694172e-15 -2.25907439e-14)
)


60
(
5(-3.423644208e-11 -2.548865545e-11 -2.487422846e-11 -1.923460892e-11 -1.40678559e-11)
5(-4.840952751e-11 -3.812804796e-11 -3.019184425e-11 -2.305647933e-11 -1.591698787e-11)
5(-6.032445351e-11 -4.863879816e-11 -3.623174862e-11 -2.731632749e-11 -1.842521815e-11)
5(-7.136391886e-11 -5.753834986e-11 -4.308041297e-11 -3.212500454e-11 -2.173900847e-11)
5(-8.36168916e-11 -6.664600348e-11 -5.065323505e-11 -3.757118384e-11 -2.600498072e-11)
5(-9.711938037e-11 -7.674522386e-11 -5.872869369e-11 -4.364770231e-11 -3.096479166e-11)
5(-1.106739783e-10 -8.73182514e-11 -6.735439426e-11 -5.031033864e-11 -3.62760942e-11)
5(-1.249166673e-10 -9.880152007e-11 -7.657731276e-11 -5.774475325e-11 -4.221991822e-11)
5(-1.398831189e-10 -1.11555138e-10 -8.687045268e-11 -6.625519839e-11 -4.893889828e-11)
5(-1.570363371e-10 -1.257548573e-10 -9.871841471e-11 -7.619799074e-11 -5.716350862e-11)
5(-1.758466759e-10 -1.419828544e-10 -1.126216871e-10 -8.779474369e-11 -6.673305681e-11)
5(-1.972386919e-10 -1.602702206e-10 -1.286383192e-10 -1.013488721e-10 -7.81060939e-11)
5(-2.212560286e-10 -1.812157638e-10 -1.472311122e-10 -1.170415172e-10 -9.116512352e-11)
5(-2.480236696e-10 -2.052269601e-10 -1.683605229e-10 -1.351434187e-10 -1.063841599e-10)
5(-2.79254402e-10 -2.328045424e-10 -1.927919477e-10 -1.559681979e-10 -1.23800351e-10)
5(-3.142524248e-10 -2.640874105e-10 -2.205533436e-10 -1.79654336e-10 -1.438371789e-10)
5(-3.538165162e-10 -2.996104991e-10 -2.525855305e-10 -2.066599806e-10 -1.666932725e-10)
5(-3.978465739e-10 -3.398177132e-10 -2.886774509e-10 -2.371342661e-10 -1.927523085e-10)
5(-4.498761545e-10 -3.853598213e-10 -3.292505433e-10 -2.718849399e-10 -2.214634081e-10)
5(-5.056108143e-10 -4.358512197e-10 -3.742804482e-10 -3.101967282e-10 -2.542453821e-10)
5(-5.694771872e-10 -4.91699057e-10 -4.240773593e-10 -3.52503256e-10 -2.892394802e-10)
5(-6.408976858e-10 -5.540530739e-10 -4.788823514e-10 -3.984521753e-10 -3.284738762e-10)
5(-7.152865224e-10 -6.212364272e-10 -5.379460835e-10 -4.47627738e-10 -3.703419327e-10)
5(-8.008230276e-10 -6.92627838e-10 -6.009518402e-10 -5.000051976e-10 -4.147132424e-10)
5(-8.895962946e-10 -7.683055374e-10 -6.67193324e-10 -5.543145075e-10 -4.620949193e-10)
5(-9.807555906e-10 -8.451148712e-10 -7.3390513e-10 -6.097114488e-10 -5.078193583e-10)
5(-1.080187551e-09 -9.255105079e-10 -8.007273602e-10 -6.640179559e-10 -5.561888937e-10)
5(-1.174540957e-09 -1.002927418e-09 -8.658113418e-10 -7.150176876e-10 -6.014085417e-10)
5(-1.262903642e-09 -1.073342955e-09 -9.23984817e-10 -7.604572991e-10 -6.413475597e-10)
5(-1.350200277e-09 -1.13471253e-09 -9.731276809e-10 -7.985829074e-10 -6.788366578e-10)
5(-1.424905103e-09 -1.183940819e-09 -1.009046245e-09 -8.242110501e-10 -7.099039798e-10)
5(-1.474493054e-09 -1.214523619e-09 -1.028395534e-09 -8.356805901e-10 -7.326869982e-10)
5(-1.501819326e-09 -1.21961412e-09 -1.026773576e-09 -8.350842437e-10 -7.514427567e-10)