/*--------------------------------*- C++ -*----------------------------------*\
| =========                 |                                                 |
| \\      /  F ield         | OpenFOAM: The Open Source CFD Toolbox           |
|  \\    /   O peration     | Version:  2.3.1                                 |
|   \\  /    A nd           | Web:      www.OpenFOAM.org                      |
|    \\/     M anipulation  |                                                 |
\*---------------------------------------------------------------------------*/
FoamFile
{
    version     2.0;
    format      ascii;
    class       dictionary;
    location    "constant";
    object      DPSI10;
}
// * * * * * * * * * * * * * * * * * * * * * * * * * * * * * * * * * * * * * //

DPSI10_table
60
(

60
(
5(3.674756094e-07 2.973807964e-07 5.839000533e-07 4.130515473e-07 8.149252127e-07)
5(3.825053739e-07 1.133563905e-07 4.496090397e-07 3.450196826e-07 7.760758394e-07)
5(1.873988074e-07 -5.633451006e-08 1.497721631e-07 2.144979342e-07 1.565765354e-07)
5(0 -3.994959868e-09 -1.530092127e-08 4.081142412e-09 -1.584526826e-07)
5(-6.593745015e-08 2.522819228e-08 7.839600549e-08 -9.502926011e-08 1.034059712e-07)
5(-1.14946565e-07 2.424848719e-08 6.9202328e-08 3.263772009e-08 -6.314587828e-08)
5(1.689613936e-08 1.19803482e-08 -6.851150962e-08 2.491870527e-08 4.574287194e-08)
5(2.565820059e-08 -4.218494807e-09 -2.219567643e-08 -2.372154352e-08 1.05286748e-07)
5(-3.239788334e-08 -1.31109404e-08 -7.451213266e-10 8.933792885e-09 -6.411625386e-08)
5(-8.043767809e-11 -7.482517925e-09 -2.673209602e-08 9.37916604e-09 -1.416846353e-08)
5(-3.168514984e-09 1.259747207e-10 2.460748283e-08 -5.851674662e-09 1.308489152e-08)
5(2.120484641e-08 -3.108075809e-09 2.697069895e-08 -1.591922327e-08 3.961488575e-09)
5(-1.772043986e-09 -6.456189735e-09 8.235616825e-10 4.962003109e-09 -1.029232492e-09)
5(-4.363428182e-09 3.361081529e-09 4.253538071e-09 9.413422144e-09 1.584663471e-08)
5(8.4995132e-09 3.407687832e-09 1.981942784e-09 -1.352592908e-08 4.662573158e-10)
5(-8.269377441e-09 -2.842955624e-09 -7.952891223e-09 -3.517981615e-09 -1.325076441e-08)
5(-6.459020222e-10 9.851645252e-10 -1.574168369e-09 -9.307416289e-09 -1.502039301e-08)
5(1.877946846e-09 -1.918029492e-09 -2.242484127e-09 -7.103775042e-09 -5.805562295e-09)
5(-6.325345082e-09 -1.282196647e-08 -1.042736355e-08 -1.559925032e-08 3.096211618e-10)
5(-6.969673343e-09 -5.097568686e-09 -1.050169205e-09 -1.399288507e-08 2.223547134e-09)
5(-9.439293863e-10 5.722881389e-09 2.450946939e-09 3.208454194e-08 1.945621969e-08)
5(-1.1282006e-08 -6.171495077e-09 -5.543364901e-09 7.67589033e-09 -2.689718608e-09)
5(-7.502958208e-09 -1.776937384e-08 -3.551348479e-09 -2.458242262e-08 -2.134809728e-08)
5(-4.852420942e-09 -1.648393916e-08 -1.25293487e-08 -1.632257838e-08 -1.099239964e-08)
5(-1.063124502e-08 -7.319603954e-09 -2.579010606e-08 -3.321426808e-08 -1.614070473e-08)
5(-1.039808016e-08 -3.076691258e-09 -1.09048401e-08 -3.144639588e-08 -1.132594614e-08)
5(-8.480233052e-09 -5.387461637e-09 -7.931490129e-09 -2.198936786e-08 -1.301659784e-08)
5(-1.747894362e-08 -1.753681989e-08 -1.505956876e-08 -1.161416123e-08 -1.622235736e-08)
5(-2.470901901e-08 -2.851267676e-08 -5.400721089e-09 5.058932238e-09 -1.273661623e-08)
5(-2.498356851e-08 -3.271564002e-08 -2.624955533e-08 -1.652616576e-08 -1.638919265e-08)
5(-2.796847862e-08 -2.436571026e-08 -2.134070209e-08 -1.155410522e-08 2.25066795e-08)
5(-2.256891709e-08 -2.560647365e-08 -1.980165747e-08 -1.510090502e-09 -2.1273627e-08)
5(-2.890456945e-08 -4.109448165e-08 -4.941064503e-08 -2.099027072e-08 -1.605066552e-08)
5(-3.888093039e-08 -3.794345641e-08 -4.039122184e-08 -2.141149715e-08 3.06890301e-08)
5(-4.089246774e-08 -5.214543322e-08 -6.82651505e-08 -3.670418331e-08 -2.809830647e-08)
5(-4.306064918e-08 -3.225482521e-08 -1.350219716e-08 -1.028289685e-08 -3.6375679e-08)
5(-4.612011816e-08 -3.475207434e-08 2.508257091e-08 -2.065968687e-08 8.764707841e-08)
5(-5.577703298e-08 -6.018674465e-08 -6.105884274e-08 -3.568053777e-08 -2.781974843e-08)
5(-8.199915071e-08 -5.115546529e-08 -9.42600428e-08 -3.602589671e-08 3.041125799e-07)
5(-7.703174297e-08 -3.487504697e-08 -2.619360639e-08 -2.887843293e-08 4.322254712e-07)
5(-4.251515442e-08 -2.226203406e-08 2.391355886e-08 1.448651655e-07 -1.282445962e-08)
5(-4.153574855e-08 -1.015602838e-08 7.913496213e-09 4.840172871e-07 -1.258824754e-08)
5(-5.994714602e-08 -3.323593259e-08 -1.581626918e-07 3.303269418e-07 -5.903794883e-08)
5(-6.448402814e-08 -4.19032485e-08 -1.393278527e-07 -3.527794174e-08 -5.665324511e-08)
5(-2.049576817e-08 -3.366669223e-08 1.198296373e-07 -4.890144881e-08 -5.199614313e-08)
5(1.386538324e-08 -9.498564214e-09 4.652266448e-07 -6.952296228e-08 -9.469989992e-08)
5(1.47267777e-08 1.738568455e-07 4.899550711e-07 -8.904163857e-08 -1.314635752e-07)
5(1.140877185e-08 1.002569078e-07 8.460983129e-08 -1.152711982e-07 -1.743735595e-07)
5(9.817015158e-09 3.419091921e-07 -8.004750086e-08 -1.531195097e-07 -2.263448347e-07)
5(5.38761936e-08 3.545540836e-07 -1.255832498e-07 -1.994543377e-07 -2.918088721e-07)
5(3.694408669e-07 -9.730960867e-08 -1.638260965e-07 -2.568105866e-07 -3.733155189e-07)
5(4.173395354e-07 -1.348817891e-07 -2.100788227e-07 -3.260412519e-07 -4.721795206e-07)
5(5.337759446e-08 -1.712475563e-07 -2.677218882e-07 -4.102529837e-07 -5.952267364e-07)
5(-1.122614763e-07 -2.156569132e-07 -3.380427108e-07 -5.134643982e-07 -7.416128188e-07)
5(-1.991638584e-07 -2.712285463e-07 -4.233352923e-07 -6.342253722e-07 -9.111112544e-07)
5(-3.24452382e-07 -3.410068181e-07 -5.283495974e-07 -7.752083961e-07 -1.09240097e-06)
5(-4.006795609e-07 -4.809563773e-07 -6.604991687e-07 -9.372886906e-07 -1.285333986e-06)
5(-3.949670055e-07 -6.489101326e-07 -9.034301559e-07 -8.316343129e-07 -1.504862175e-06)
5(-4.041745763e-07 -8.238103847e-07 -1.350341269e-06 -2.179730955e-06 -2.759717763e-06)
5(-4.216283431e-07 -9.383202578e-07 -1.640479549e-06 -3.778493338e-06 -3.941241801e-06)
)


60
(
5(2.062567325e-07 -2.5028309e-08 4.001261294e-07 2.43131247e-07 6.13361362e-07)
5(1.600157347e-07 -2.725631442e-08 3.020085507e-07 1.813405516e-07 4.712198577e-07)
5(5.587796366e-08 -3.245776538e-08 9.615492254e-08 5.106721704e-08 1.713353544e-07)
5(-2.966992404e-08 -4.325740157e-08 -5.05643628e-08 -3.905154166e-08 -4.915947054e-08)
5(-7.986515548e-08 -5.150993385e-08 -1.087960508e-07 -7.608077178e-08 -1.48798347e-07)
5(-7.750087152e-08 -4.804578718e-08 -8.316313551e-08 -6.548079296e-08 -1.204248726e-07)
5(-4.498756715e-08 -3.877936085e-08 -3.832749046e-08 -3.980176639e-08 -4.480250261e-08)
5(-2.411804982e-08 -3.268251909e-08 -1.58130971e-08 -2.426015817e-08 -5.704242726e-09)
5(-2.499494741e-08 -3.34420759e-08 -1.747042328e-08 -2.662503301e-08 -1.132769813e-08)
5(-3.362921176e-08 -3.790931225e-08 -3.261958796e-08 -3.711652778e-08 -3.502454135e-08)
5(-4.005590856e-08 -4.009820036e-08 -4.428912792e-08 -4.269956544e-08 -5.029383641e-08)
5(-4.277144561e-08 -4.103741437e-08 -4.76672287e-08 -4.381700713e-08 -5.054201e-08)
5(-4.114892054e-08 -4.176979383e-08 -4.47184454e-08 -4.433731122e-08 -4.435527489e-08)
5(-4.014527444e-08 -4.207594143e-08 -4.260170092e-08 -4.411447873e-08 -4.190446531e-08)
5(-4.166347392e-08 -4.423206862e-08 -4.46342288e-08 -4.444673583e-08 -4.335513817e-08)
5(-4.434179208e-08 -4.72147554e-08 -4.915911351e-08 -4.840951246e-08 -4.713003125e-08)
5(-4.725559607e-08 -5.018383551e-08 -5.265150998e-08 -5.193772942e-08 -5.094436459e-08)
5(-5.066187989e-08 -5.308788576e-08 -5.54615953e-08 -5.564500375e-08 -5.393791449e-08)
5(-5.389225089e-08 -5.657169898e-08 -5.84085551e-08 -6.036317975e-08 -5.772150065e-08)
5(-5.759626324e-08 -6.118550643e-08 -6.23859753e-08 -6.349415684e-08 -6.058524212e-08)
5(-6.182826376e-08 -6.565404665e-08 -6.646567524e-08 -6.660358674e-08 -6.314261392e-08)
5(-6.600089812e-08 -7.027036067e-08 -7.092056221e-08 -6.959727966e-08 -6.791897711e-08)
5(-7.169739463e-08 -7.622306985e-08 -7.7620827e-08 -7.238046479e-08 -7.212929588e-08)
5(-7.835081369e-08 -8.267237407e-08 -8.331576462e-08 -7.96981778e-08 -7.71210199e-08)
5(-8.542551699e-08 -8.977135066e-08 -9.191170481e-08 -8.992251826e-08 -8.380527215e-08)
5(-9.379605154e-08 -9.725258046e-08 -1.009664216e-07 -9.893167005e-08 -9.027754926e-08)
5(-1.026710201e-07 -1.065544769e-07 -1.075306456e-07 -1.061996552e-07 -9.639142323e-08)
5(-1.129644149e-07 -1.179229827e-07 -1.179488404e-07 -1.12706033e-07 -1.046654827e-07)
5(-1.249467787e-07 -1.280805348e-07 -1.284904009e-07 -1.213829828e-07 -1.124285798e-07)
5(-1.38068168e-07 -1.401430159e-07 -1.399093746e-07 -1.316295063e-07 -1.200196017e-07)
5(-1.524691135e-07 -1.543275657e-07 -1.518417099e-07 -1.425239859e-07 -1.280822855e-07)
5(-1.680424661e-07 -1.689114504e-07 -1.652447727e-07 -1.529888622e-07 -1.332989325e-07)
5(-1.850061867e-07 -1.843119082e-07 -1.797151947e-07 -1.626356196e-07 -1.358480832e-07)
5(-2.032449428e-07 -2.011424898e-07 -1.933092612e-07 -1.713021936e-07 -1.367254452e-07)
5(-2.236425526e-07 -2.178993941e-07 -2.075613758e-07 -1.792876828e-07 -1.388055189e-07)
5(-2.435000066e-07 -2.327274249e-07 -2.195896081e-07 -1.831974183e-07 -1.443086144e-07)
5(-2.630668352e-07 -2.477192416e-07 -2.280620866e-07 -1.848270256e-07 -1.489587644e-07)
5(-2.823397827e-07 -2.574425443e-07 -2.318674362e-07 -1.855768534e-07 -1.314510427e-07)
5(-2.963922764e-07 -2.66524394e-07 -2.313373315e-07 -1.755387699e-07 -7.474408634e-08)
5(-3.052913352e-07 -2.669886044e-07 -2.191298844e-07 -1.544417145e-07 1.688706126e-08)
5(-3.049953704e-07 -2.613312343e-07 -2.064453419e-07 -1.130446068e-07 1.106826024e-07)
5(-2.989939311e-07 -2.462967145e-07 -1.928110501e-07 -3.867160966e-08 1.731117704e-07)
5(-2.828888841e-07 -2.062643608e-07 -1.705015498e-07 5.72918813e-08 1.950171517e-07)
5(-2.470309621e-07 -1.711008101e-07 -1.289415511e-07 1.501135596e-07 1.960987397e-07)
5(-1.94649851e-07 -1.356430676e-07 -4.881151031e-08 2.135916216e-07 1.975085641e-07)
5(-1.302320766e-07 -9.014960681e-08 6.844457056e-08 2.365193599e-07 1.917464241e-07)
5(-5.823851201e-08 -2.585303533e-08 1.872255123e-07 2.318800872e-07 1.696624205e-07)
5(1.588306985e-08 6.889229928e-08 2.670637566e-07 2.160773719e-07 1.251199843e-07)
5(9.756766678e-08 1.923306613e-07 3.056259038e-07 1.905895995e-07 5.615175755e-08)
5(1.862286847e-07 3.14640543e-07 3.089344858e-07 1.472126932e-07 -2.979309726e-08)
5(2.868360066e-07 3.898761595e-07 2.884070912e-07 8.042837658e-08 -1.320726155e-07)
5(3.981049084e-07 4.085495888e-07 2.455620152e-07 -1.922989154e-09 -2.467205416e-07)
5(4.996011215e-07 3.893844745e-07 1.86027723e-07 -9.46005979e-08 -3.800578072e-07)
5(5.748680871e-07 3.473354229e-07 1.137038972e-07 -2.113853661e-07 -5.40313798e-07)
5(6.051916909e-07 2.958272308e-07 3.042651491e-08 -3.487609216e-07 -7.256542924e-07)
5(5.986610284e-07 2.473557589e-07 -6.264784939e-08 -4.971918268e-07 -9.384073138e-07)
5(5.643440977e-07 1.887890879e-07 -1.638884929e-07 -6.626596027e-07 -1.177105347e-06)
5(5.054596996e-07 1.301192652e-07 -2.599232701e-07 -8.473216989e-07 -1.446835692e-06)
5(4.998497773e-07 1.108990796e-07 -1.792657594e-07 -1.054136288e-06 -1.765826937e-06)
5(5.284711152e-07 1.175625556e-07 -5.200022106e-08 -1.164380407e-06 -1.945264762e-06)
)


60
(
5(9.74148394e-08 -1.28562271e-07 3.013850107e-07 1.642140944e-07 5.021288608e-07)
5(6.831741972e-08 -1.152912025e-07 2.141949278e-07 1.1135496e-07 3.752303704e-07)
5(-1.241790024e-11 -8.574186172e-08 3.392020622e-08 1.247138842e-09 1.075908461e-07)
5(-6.665484641e-08 -7.937510384e-08 -8.927155346e-08 -7.545094403e-08 -8.489052899e-08)
5(-1.107051652e-07 -8.44455837e-08 -1.359302368e-07 -1.064816115e-07 -1.713705741e-07)
5(-1.064784559e-07 -7.963824235e-08 -1.125068895e-07 -9.423757853e-08 -1.442579957e-07)
5(-7.497352369e-08 -6.930404567e-08 -6.92949812e-08 -6.831753917e-08 -7.467956976e-08)
5(-5.538359579e-08 -6.468797499e-08 -4.671676301e-08 -5.492833361e-08 -3.84726163e-08)
5(-5.560637311e-08 -6.481850921e-08 -4.863881793e-08 -5.750663754e-08 -4.494318591e-08)
5(-6.370817768e-08 -6.803851686e-08 -6.329720263e-08 -6.702326067e-08 -6.672294001e-08)
5(-7.009374324e-08 -7.060937131e-08 -7.465271832e-08 -7.35194163e-08 -7.911550593e-08)
5(-7.290723438e-08 -7.235581338e-08 -7.807667789e-08 -7.530826462e-08 -8.069228538e-08)
5(-7.245712928e-08 -7.390352712e-08 -7.683692231e-08 -7.551460998e-08 -7.64464879e-08)
5(-7.226208663e-08 -7.538653233e-08 -7.634229359e-08 -7.597654398e-08 -7.458131507e-08)
5(-7.430806172e-08 -7.818389471e-08 -7.875700103e-08 -7.854907618e-08 -7.707670858e-08)
5(-7.811037121e-08 -8.145531415e-08 -8.347461183e-08 -8.320997432e-08 -8.207744969e-08)
5(-8.240835735e-08 -8.557710681e-08 -8.824349118e-08 -8.818939641e-08 -8.683080454e-08)
5(-8.673907538e-08 -9.052653592e-08 -9.308331442e-08 -9.313900305e-08 -9.161265205e-08)
5(-9.152652335e-08 -9.548899974e-08 -9.80908728e-08 -9.904011769e-08 -9.67225262e-08)
5(-9.641208013e-08 -1.014933805e-07 -1.030852898e-07 -1.046789234e-07 -1.017089702e-07)
5(-1.027567466e-07 -1.082204085e-07 -1.091079579e-07 -1.087019764e-07 -1.069614501e-07)
5(-1.095150347e-07 -1.151106567e-07 -1.164418876e-07 -1.149525553e-07 -1.127843306e-07)
5(-1.170151064e-07 -1.229159017e-07 -1.253454754e-07 -1.222356897e-07 -1.199424768e-07)
5(-1.257988173e-07 -1.316752225e-07 -1.343936462e-07 -1.306242162e-07 -1.278309705e-07)
5(-1.356407583e-07 -1.417799698e-07 -1.447191278e-07 -1.431937517e-07 -1.365915234e-07)
5(-1.470110305e-07 -1.52424943e-07 -1.552514932e-07 -1.546722851e-07 -1.470523904e-07)
5(-1.588490184e-07 -1.655975046e-07 -1.680849029e-07 -1.666854354e-07 -1.574401013e-07)
5(-1.730042611e-07 -1.79452606e-07 -1.811555136e-07 -1.775508978e-07 -1.687918178e-07)
5(-1.886617479e-07 -1.931187863e-07 -1.958196628e-07 -1.900593014e-07 -1.814121674e-07)
5(-2.052012081e-07 -2.114583819e-07 -2.13151898e-07 -2.055065025e-07 -1.938576197e-07)
5(-2.237470425e-07 -2.29938886e-07 -2.291595249e-07 -2.199922403e-07 -2.065533348e-07)
5(-2.441094011e-07 -2.474391773e-07 -2.482601731e-07 -2.375559712e-07 -2.169563638e-07)
5(-2.660410176e-07 -2.701105204e-07 -2.697159273e-07 -2.538952573e-07 -2.261454203e-07)
5(-2.888669532e-07 -2.928827986e-07 -2.879158789e-07 -2.683977708e-07 -2.334974177e-07)
5(-3.109082394e-07 -3.142717755e-07 -3.086116236e-07 -2.828737427e-07 -2.415110825e-07)
5(-3.371945786e-07 -3.35793271e-07 -3.291385316e-07 -2.95394614e-07 -2.533665028e-07)
5(-3.623286935e-07 -3.560672134e-07 -3.443552823e-07 -3.047740972e-07 -2.615190835e-07)
5(-3.828703712e-07 -3.757418438e-07 -3.554383101e-07 -3.089209667e-07 -2.466074776e-07)
5(-4.006338911e-07 -3.873418006e-07 -3.592621388e-07 -3.038258415e-07 -1.936707344e-07)
5(-4.082637221e-07 -3.917721707e-07 -3.581604258e-07 -2.861643834e-07 -1.063793615e-07)
5(-4.119952594e-07 -3.908979499e-07 -3.472257367e-07 -2.472214212e-07 -1.331709894e-08)
5(-4.037773963e-07 -3.73972767e-07 -3.28266175e-07 -1.742503167e-07 5.78242511e-08)
5(-3.773332021e-07 -3.400383629e-07 -3.024106077e-07 -7.102569337e-08 1.025559575e-07)
5(-3.366054746e-07 -2.903522133e-07 -2.476409427e-07 3.492511739e-08 1.300072592e-07)
5(-2.772899666e-07 -2.358777361e-07 -1.555090871e-07 1.206558617e-07 1.556041129e-07)
5(-1.991830839e-07 -1.780257148e-07 -2.733289741e-08 1.754757819e-07 1.802523622e-07)
5(-1.073655602e-07 -9.184891339e-08 1.131922529e-07 2.064876243e-07 1.924510052e-07)
5(-8.840776331e-09 3.385132376e-08 2.285187836e-07 2.289554923e-07 1.812633694e-07)
5(9.250700265e-08 1.786496284e-07 3.049166939e-07 2.397163694e-07 1.409051077e-07)
5(1.998658047e-07 3.194464565e-07 3.468242812e-07 2.299943108e-07 7.2842919e-08)
5(3.175087921e-07 4.279352717e-07 3.632294093e-07 1.973937393e-07 -1.048661591e-08)
5(4.420015775e-07 4.830149917e-07 3.593028664e-07 1.42217071e-07 -1.079274054e-07)
5(5.565899479e-07 4.952986517e-07 3.347570905e-07 6.52903718e-08 -2.31366326e-07)
5(6.416201615e-07 4.897891904e-07 2.892477395e-07 -3.483446041e-08 -3.844919001e-07)
5(6.939785143e-07 4.739725744e-07 2.278027319e-07 -1.550089304e-07 -5.643773349e-07)
5(7.171593003e-07 4.426259831e-07 1.526616697e-07 -2.935695985e-07 -7.685495372e-07)
5(7.130723878e-07 4.059636416e-07 7.013271304e-08 -4.529893788e-07 -9.981193534e-07)
5(6.94142976e-07 3.689120754e-07 -1.603624849e-08 -6.202254493e-07 -1.247551773e-06)
5(8.078553039e-07 4.416272099e-07 1.372868662e-07 -7.28488872e-07 -1.485355725e-06)
5(9.309906771e-07 5.324047008e-07 3.351091402e-07 -7.522906271e-07 -1.595570483e-06)
)


60
(
5(-3.240835843e-09 -2.258324427e-07 2.139737822e-07 9.669573428e-08 4.096016771e-07)
5(-1.671011684e-08 -1.98757029e-07 1.362543734e-07 5.002864936e-08 2.949349824e-07)
5(-5.21535987e-08 -1.371814343e-07 -2.163299375e-08 -4.416022392e-08 5.299876831e-08)
5(-1.02441088e-07 -1.148284313e-07 -1.272070217e-07 -1.09626119e-07 -1.196042792e-07)
5(-1.420731278e-07 -1.163024667e-07 -1.644428101e-07 -1.358697651e-07 -1.966727354e-07)
5(-1.368110765e-07 -1.111425585e-07 -1.406799916e-07 -1.22622378e-07 -1.702287981e-07)
5(-1.04928292e-07 -9.996887771e-08 -9.936582505e-08 -9.674649543e-08 -1.037194361e-07)
5(-8.528058182e-08 -9.43589621e-08 -7.687814762e-08 -8.418157819e-08 -6.92162605e-08)
5(-8.522598398e-08 -9.463197708e-08 -7.862191197e-08 -8.687746393e-08 -7.471672557e-08)
5(-9.329809939e-08 -9.771395916e-08 -9.248839371e-08 -9.572882804e-08 -9.520499907e-08)
5(-9.955189412e-08 -1.004654598e-07 -1.035029606e-07 -1.01906738e-07 -1.078542828e-07)
5(-1.021459323e-07 -1.024161987e-07 -1.075484603e-07 -1.046092854e-07 -1.099315739e-07)
5(-1.02266299e-07 -1.038981838e-07 -1.070073035e-07 -1.057201856e-07 -1.061012975e-07)
5(-1.028955618e-07 -1.062099205e-07 -1.071821825e-07 -1.068266363e-07 -1.053530242e-07)
5(-1.055974619e-07 -1.095540113e-07 -1.108208211e-07 -1.097199003e-07 -1.089019946e-07)
5(-1.098554764e-07 -1.140894356e-07 -1.163013118e-07 -1.154663627e-07 -1.144361795e-07)
5(-1.150036387e-07 -1.18909233e-07 -1.215370528e-07 -1.207389568e-07 -1.206859515e-07)
5(-1.204197705e-07 -1.247206042e-07 -1.275560929e-07 -1.274582068e-07 -1.261604022e-07)
5(-1.259552452e-07 -1.31085839e-07 -1.333323892e-07 -1.347244551e-07 -1.321699084e-07)
5(-1.32327265e-07 -1.376179819e-07 -1.403070841e-07 -1.416552169e-07 -1.385997034e-07)
5(-1.398789164e-07 -1.461987706e-07 -1.483328257e-07 -1.47971115e-07 -1.456894738e-07)
5(-1.481446582e-07 -1.54813277e-07 -1.567590898e-07 -1.549147247e-07 -1.539654737e-07)
5(-1.569992654e-07 -1.634771594e-07 -1.662246405e-07 -1.648968649e-07 -1.629221303e-07)
5(-1.675205036e-07 -1.740157614e-07 -1.780899474e-07 -1.755242267e-07 -1.738053179e-07)
5(-1.792392106e-07 -1.868290262e-07 -1.91559244e-07 -1.890422216e-07 -1.851000945e-07)
5(-1.920952201e-07 -2.001541695e-07 -2.044914032e-07 -2.042288967e-07 -1.967378863e-07)
5(-2.062689381e-07 -2.140774765e-07 -2.191054032e-07 -2.190009556e-07 -2.111231547e-07)
5(-2.223386817e-07 -2.307682898e-07 -2.351133777e-07 -2.325520057e-07 -2.250658606e-07)
5(-2.402266424e-07 -2.485767502e-07 -2.532523794e-07 -2.49405613e-07 -2.412847476e-07)
5(-2.589067317e-07 -2.679722472e-07 -2.730498224e-07 -2.682431101e-07 -2.586044562e-07)
5(-2.796096108e-07 -2.892599232e-07 -2.92334518e-07 -2.872209055e-07 -2.753453552e-07)
5(-3.022235386e-07 -3.118121921e-07 -3.164045424e-07 -3.088560329e-07 -2.922362365e-07)
5(-3.253426732e-07 -3.363144623e-07 -3.417453535e-07 -3.297790256e-07 -3.065910104e-07)
5(-3.502584765e-07 -3.614966002e-07 -3.645349604e-07 -3.501401259e-07 -3.193957541e-07)
5(-3.762296988e-07 -3.874427451e-07 -3.89544242e-07 -3.715359537e-07 -3.336382071e-07)
5(-4.012855344e-07 -4.121623195e-07 -4.125436161e-07 -3.905011901e-07 -3.51287334e-07)
5(-4.260514906e-07 -4.354164735e-07 -4.35480056e-07 -4.053220178e-07 -3.642590779e-07)
5(-4.471338101e-07 -4.570066739e-07 -4.54133299e-07 -4.15377262e-07 -3.570485574e-07)
5(-4.626871539e-07 -4.72005441e-07 -4.642893487e-07 -4.170218507e-07 -3.114092904e-07)
5(-4.727624085e-07 -4.819485573e-07 -4.656843786e-07 -4.063798704e-07 -2.312918128e-07)
5(-4.704428281e-07 -4.812841657e-07 -4.575207696e-07 -3.715195007e-07 -1.448287652e-07)
5(-4.562938422e-07 -4.637401615e-07 -4.413606007e-07 -3.024577615e-07 -7.102447599e-08)
5(-4.289268672e-07 -4.292907051e-07 -4.127011773e-07 -2.012722633e-07 -1.81631747e-08)
5(-3.840823348e-07 -3.799834044e-07 -3.567410054e-07 -9.113769511e-08 2.2849894e-08)
5(-3.207391463e-07 -3.170670786e-07 -2.554779196e-07 5.071358554e-09 6.949469939e-08)
5(-2.365878251e-07 -2.391801104e-07 -1.186474796e-07 8.023778732e-08 1.206467878e-07)
5(-1.430465863e-07 -1.429795868e-07 3.303046595e-08 1.371951081e-07 1.638484442e-07)
5(-3.75540516e-08 -1.463990645e-08 1.667906569e-07 1.879414433e-07 1.828374576e-07)
5(6.687487119e-08 1.453038597e-07 2.638897221e-07 2.315064994e-07 1.737884502e-07)
5(1.768084543e-07 3.041257216e-07 3.390898463e-07 2.605136633e-07 1.382761361e-07)
5(3.064790615e-07 4.269001739e-07 3.917034042e-07 2.620779253e-07 7.890850359e-08)
5(4.347677867e-07 5.013920776e-07 4.192395792e-07 2.390979686e-07 -1.694865421e-10)
5(5.541177966e-07 5.413583908e-07 4.260084352e-07 1.92351274e-07 -1.020913751e-07)
5(6.50790237e-07 5.639857095e-07 4.109205707e-07 1.156729166e-07 -2.367594745e-07)
5(7.174250176e-07 5.683690522e-07 3.742502261e-07 1.539549185e-08 -4.060189208e-07)
5(7.559925537e-07 5.581341485e-07 3.189154616e-07 -1.092960155e-07 -5.93390705e-07)
5(7.717097346e-07 5.397061894e-07 2.526348217e-07 -2.466717158e-07 -8.00414917e-07)
5(7.861878667e-07 5.238105378e-07 1.868877388e-07 -3.883573466e-07 -1.031944181e-06)
5(9.789845919e-07 7.267458928e-07 3.488157471e-07 -4.279621636e-07 -1.192845452e-06)
5(1.159400978e-06 9.318283752e-07 5.416367767e-07 -3.930329066e-07 -1.231275454e-06)
)


60
(
5(-1.005291606e-07 -3.206179474e-07 1.319543684e-07 3.409757837e-08 3.25714922e-07)
5(-9.946106332e-08 -2.805031015e-07 6.241497556e-08 -7.651309043e-09 2.2129274e-07)
5(-1.030887316e-07 -1.875661503e-07 -7.460197133e-08 -8.756645061e-08 2.578793501e-09)
5(-1.37884026e-07 -1.494744025e-07 -1.646970951e-07 -1.428750164e-07 -1.536276295e-07)
5(-1.737487056e-07 -1.480987794e-07 -1.935861068e-07 -1.644982189e-07 -2.231616618e-07)
5(-1.672442702e-07 -1.420330576e-07 -1.685971259e-07 -1.50381259e-07 -1.963428441e-07)
5(-1.345261193e-07 -1.295479539e-07 -1.286194132e-07 -1.251347255e-07 -1.318637122e-07)
5(-1.14850499e-07 -1.240172041e-07 -1.061825457e-07 -1.123575397e-07 -9.836597927e-08)
5(-1.145429575e-07 -1.232649457e-07 -1.073539747e-07 -1.143920431e-07 -1.032030221e-07)
5(-1.221061846e-07 -1.26383601e-07 -1.209020085e-07 -1.233153797e-07 -1.230234295e-07)
5(-1.282153234e-07 -1.294474198e-07 -1.31852286e-07 -1.300631282e-07 -1.354999454e-07)
5(-1.309993755e-07 -1.308776896e-07 -1.3626217e-07 -1.326620292e-07 -1.376666219e-07)
5(-1.312642703e-07 -1.332592667e-07 -1.359760383e-07 -1.336835761e-07 -1.349817577e-07)
5(-1.321634543e-07 -1.360123515e-07 -1.365801958e-07 -1.359775445e-07 -1.34533233e-07)
5(-1.354754472e-07 -1.3977502e-07 -1.402228396e-07 -1.398764801e-07 -1.383974148e-07)
5(-1.403923378e-07 -1.444736468e-07 -1.465507068e-07 -1.457480942e-07 -1.451906359e-07)
5(-1.459891781e-07 -1.499628055e-07 -1.539104489e-07 -1.511694165e-07 -1.520206333e-07)
5(-1.520140353e-07 -1.567566227e-07 -1.595814846e-07 -1.596579583e-07 -1.585506005e-07)
5(-1.585172268e-07 -1.6372186e-07 -1.664095291e-07 -1.682416154e-07 -1.656672006e-07)
5(-1.65720726e-07 -1.71547158e-07 -1.749299129e-07 -1.750064568e-07 -1.73548328e-07)
5(-1.740370345e-07 -1.807211344e-07 -1.836200245e-07 -1.837302165e-07 -1.818453691e-07)
5(-1.830617543e-07 -1.902008682e-07 -1.930740589e-07 -1.920199038e-07 -1.911409583e-07)
5(-1.932832405e-07 -2.007995303e-07 -2.045816671e-07 -2.018300161e-07 -2.023654018e-07)
5(-2.052497357e-07 -2.132667537e-07 -2.179112082e-07 -2.154651008e-07 -2.14330448e-07)
5(-2.176175169e-07 -2.253494873e-07 -2.320878837e-07 -2.313846745e-07 -2.277545883e-07)
5(-2.317374809e-07 -2.407141594e-07 -2.471901628e-07 -2.477921656e-07 -2.433543681e-07)
5(-2.479392422e-07 -2.575310701e-07 -2.635727653e-07 -2.642135353e-07 -2.592975197e-07)
5(-2.652563947e-07 -2.738351905e-07 -2.81679001e-07 -2.816693428e-07 -2.762095274e-07)
5(-2.831223935e-07 -2.936557637e-07 -3.01623191e-07 -3.003401163e-07 -2.948900254e-07)
5(-3.030079809e-07 -3.156866563e-07 -3.230464185e-07 -3.211141705e-07 -3.147613199e-07)
5(-3.25601316e-07 -3.38348454e-07 -3.461982545e-07 -3.443054742e-07 -3.355371308e-07)
5(-3.481772672e-07 -3.62634277e-07 -3.71647132e-07 -3.690584669e-07 -3.565403878e-07)
5(-3.716114836e-07 -3.876758208e-07 -3.99236195e-07 -3.937653958e-07 -3.761902795e-07)
5(-3.962206062e-07 -4.14140231e-07 -4.260672572e-07 -4.182499333e-07 -3.942003591e-07)
5(-4.215482922e-07 -4.425908951e-07 -4.536326745e-07 -4.433547814e-07 -4.137925526e-07)
5(-4.466621759e-07 -4.678780476e-07 -4.813610846e-07 -4.664163817e-07 -4.365848377e-07)
5(-4.685472464e-07 -4.918392871e-07 -5.062035787e-07 -4.877755121e-07 -4.560271916e-07)
5(-4.86912394e-07 -5.157538382e-07 -5.276305731e-07 -5.042212854e-07 -4.56192264e-07)
5(-5.001479756e-07 -5.325622403e-07 -5.412742977e-07 -5.122560394e-07 -4.20901014e-07)
5(-5.04606073e-07 -5.406651786e-07 -5.466492163e-07 -5.082439158e-07 -3.505252923e-07)
5(-4.990868934e-07 -5.37869506e-07 -5.440520859e-07 -4.792653208e-07 -2.695347819e-07)
5(-4.805516238e-07 -5.202241321e-07 -5.287815017e-07 -4.171200699e-07 -2.020902779e-07)
5(-4.47401936e-07 -4.873006809e-07 -4.998175045e-07 -3.222813354e-07 -1.500438712e-07)
5(-3.996210126e-07 -4.360629727e-07 -4.422101755e-07 -2.138354964e-07 -1.000867058e-07)
5(-3.40607075e-07 -3.712428603e-07 -3.442657396e-07 -1.144920866e-07 -4.037405009e-08)
5(-2.651081187e-07 -2.936601513e-07 -2.05872111e-07 -2.86750111e-08 2.750204235e-08)
5(-1.770390775e-07 -1.924960933e-07 -4.637400731e-08 4.890747613e-08 9.131615488e-08)
5(-8.050583441e-08 -5.939663519e-08 9.925703875e-08 1.196699881e-07 1.381302983e-07)
5(2.416821125e-08 1.028322573e-07 2.149819565e-07 1.897023065e-07 1.621779966e-07)
5(1.338382034e-07 2.635575882e-07 3.079128694e-07 2.496995853e-07 1.608738318e-07)
5(2.568132302e-07 3.933641777e-07 3.857540461e-07 2.844382655e-07 1.35059625e-07)
5(3.907822767e-07 4.841230765e-07 4.393898311e-07 2.961061569e-07 8.617631477e-08)
5(5.196596402e-07 5.414696568e-07 4.68282319e-07 2.755727562e-07 8.075445119e-09)
5(6.245555692e-07 5.788046841e-07 4.764864616e-07 2.261565192e-07 -1.024523774e-07)
5(7.023650281e-07 6.013402222e-07 4.652211997e-07 1.551469058e-07 -2.451846386e-07)
5(7.55284558e-07 6.103064223e-07 4.32388969e-07 5.744856926e-08 -4.125763157e-07)
5(7.891094801e-07 6.101731243e-07 3.851387178e-07 -6.199914385e-08 -6.01127373e-07)
5(8.291848973e-07 6.218472619e-07 3.382990604e-07 -1.899679772e-07 -8.079803116e-07)
5(1.070507674e-06 8.414161887e-07 6.189698424e-07 -1.222245596e-07 -8.469551919e-07)
5(1.283492904e-06 1.045584472e-06 9.184785155e-07 1.134774075e-08 -7.758618362e-07)
)


60
(
5(-1.961478271e-07 -4.137913799e-07 5.312144253e-08 -2.596671096e-08 2.470343418e-07)
5(-1.810909801e-07 -3.60966452e-07 -9.107533384e-09 -6.313628101e-08 1.515524725e-07)
5(-1.53534773e-07 -2.375619282e-07 -1.265217162e-07 -1.296738119e-07 -4.575625658e-08)
5(-1.732556038e-07 -1.841753758e-07 -2.018589581e-07 -1.756781423e-07 -1.870294773e-07)
5(-2.054716944e-07 -1.792556539e-07 -2.22740604e-07 -1.927572241e-07 -2.49797364e-07)
5(-1.977378774e-07 -1.723397847e-07 -1.961905515e-07 -1.777790131e-07 -2.225059792e-07)
5(-1.640223886e-07 -1.590456943e-07 -1.574168773e-07 -1.525465886e-07 -1.593271712e-07)
5(-1.44039212e-07 -1.52760113e-07 -1.348949943e-07 -1.397873027e-07 -1.26375639e-07)
5(-1.43449633e-07 -1.519515858e-07 -1.355086208e-07 -1.415066742e-07 -1.309161277e-07)
5(-1.505286293e-07 -1.544270931e-07 -1.485188931e-07 -1.500933375e-07 -1.49951418e-07)
5(-1.563589638e-07 -1.571700019e-07 -1.592904666e-07 -1.567851937e-07 -1.622203393e-07)
5(-1.59150273e-07 -1.593811184e-07 -1.639009457e-07 -1.596771062e-07 -1.645886013e-07)
5(-1.59768765e-07 -1.612138731e-07 -1.639066894e-07 -1.61151276e-07 -1.624791228e-07)
5(-1.609377964e-07 -1.644471534e-07 -1.650756284e-07 -1.637801274e-07 -1.628452785e-07)
5(-1.643389531e-07 -1.685547811e-07 -1.693494508e-07 -1.683566545e-07 -1.672738028e-07)
5(-1.696001381e-07 -1.739712504e-07 -1.760667932e-07 -1.741847572e-07 -1.743152206e-07)
5(-1.757822208e-07 -1.799267063e-07 -1.828927219e-07 -1.815358241e-07 -1.816851395e-07)
5(-1.823285334e-07 -1.867079014e-07 -1.902931331e-07 -1.899013869e-07 -1.895083788e-07)
5(-1.894324968e-07 -1.947240723e-07 -1.981406375e-07 -1.984253332e-07 -1.972714231e-07)
5(-1.974169388e-07 -2.031497494e-07 -2.064087881e-07 -2.076748548e-07 -2.058019918e-07)
5(-2.060647125e-07 -2.128306695e-07 -2.166156261e-07 -2.160778055e-07 -2.157711995e-07)
5(-2.158716086e-07 -2.234485518e-07 -2.27273746e-07 -2.254882307e-07 -2.265804582e-07)
5(-2.271957829e-07 -2.346735463e-07 -2.393973564e-07 -2.374430863e-07 -2.386236328e-07)
5(-2.394906977e-07 -2.471088451e-07 -2.538267461e-07 -2.516841176e-07 -2.523600114e-07)
5(-2.528368e-07 -2.616141309e-07 -2.688187562e-07 -2.68701599e-07 -2.672263747e-07)
5(-2.67670332e-07 -2.774087517e-07 -2.849638178e-07 -2.872286697e-07 -2.835493364e-07)
5(-2.84123128e-07 -2.944166151e-07 -3.031476937e-07 -3.049076167e-07 -3.01332035e-07)
5(-3.022252667e-07 -3.131873604e-07 -3.228661242e-07 -3.233866337e-07 -3.212817076e-07)
5(-3.211886109e-07 -3.338609881e-07 -3.436248064e-07 -3.450076461e-07 -3.43037242e-07)
5(-3.415880734e-07 -3.554612106e-07 -3.662071852e-07 -3.67785062e-07 -3.654006651e-07)
5(-3.631352577e-07 -3.780670775e-07 -3.919406507e-07 -3.926032442e-07 -3.890567758e-07)
5(-3.853745934e-07 -4.041275463e-07 -4.18595564e-07 -4.197238381e-07 -4.128625665e-07)
5(-4.089179691e-07 -4.306096309e-07 -4.460866826e-07 -4.473257994e-07 -4.351740341e-07)
5(-4.322943712e-07 -4.56441041e-07 -4.744177592e-07 -4.752172741e-07 -4.583480843e-07)
5(-4.557887344e-07 -4.830077192e-07 -5.031309461e-07 -5.021665546e-07 -4.830515203e-07)
5(-4.767463396e-07 -5.085371786e-07 -5.332034758e-07 -5.287626695e-07 -5.096080773e-07)
5(-4.95127401e-07 -5.332073331e-07 -5.599385111e-07 -5.541938488e-07 -5.349279537e-07)