/*--------------------------------*- C++ -*----------------------------------*\
| =========                 |                                                 |
| \\      /  F ield         | OpenFOAM: The Open Source CFD Toolbox           |
|  \\    /   O peration     | Version:  2.3.1                                 |
|   \\  /    A nd           | Web:      www.OpenFOAM.org                      |
|    \\/     M anipulation  |                                                 |
\*---------------------------------------------------------------------------*/
FoamFile
{
    version     2.0;
    format      ascii;
    class       dictionary;
    location    "constant";
    object      DPSI49;
}
// * * * * * * * * * * * * * * * * * * * * * * * * * * * * * * * * * * * * * //

DPSI49_table
60
(

60
(
5(2.089340185e-09 -2.205280945e-09 -2.639499133e-09 -3.406907553e-09 -8.012619151e-09)
5(1.784218236e-09 -8.594054046e-10 -1.721412238e-09 -1.3969334e-09 -2.813168663e-09)
5(-1.280061613e-09 -1.022973539e-09 -3.11320215e-10 9.910202822e-10 1.775149166e-09)
5(-1.594712851e-09 -1.189720241e-09 5.796962554e-10 -6.995276006e-10 -3.136751228e-09)
5(-1.751703745e-09 -1.486639791e-09 -3.387013003e-10 -6.762569815e-11 -4.782047109e-10)
5(-7.242476463e-10 -1.939233484e-10 -6.339464176e-10 -7.189857862e-10 2.263936184e-10)
5(2.729193656e-10 -1.6296968e-11 -3.486963276e-10 -2.009028497e-09 -3.629572889e-09)
5(-8.428493301e-10 -1.204472252e-09 -7.001960334e-10 5.280829721e-10 9.179960801e-10)
5(-1.076401477e-09 -1.08004228e-09 -8.155523237e-10 -5.472763246e-10 -4.873218402e-10)
5(-1.653602785e-09 -1.835682569e-09 -6.94126711e-10 -4.227377359e-10 -1.405971446e-09)
5(-1.89144108e-09 -2.052114612e-09 -9.187864408e-10 -6.316477652e-10 -1.567728064e-09)
5(-2.041537394e-09 -1.792298598e-09 -1.000488429e-09 -7.663772358e-10 -9.983405227e-10)
5(-1.573065186e-09 -1.492723095e-09 -1.349157145e-09 -1.244146916e-09 -1.124869988e-09)
5(-1.282177803e-09 -1.443890031e-09 -1.027861578e-09 -9.876484732e-10 -1.474658479e-09)
5(-1.606940569e-09 -1.647107122e-09 -1.450247721e-09 -1.141979442e-09 -1.004126781e-09)
5(-1.415178737e-09 -1.786934373e-09 -1.621345908e-09 -1.169944081e-09 -1.199421275e-09)
5(-1.474724616e-09 -1.802474833e-09 -1.745944547e-09 -1.463745733e-09 -1.510002782e-09)
5(-1.391794419e-09 -1.971268902e-09 -1.896701039e-09 -1.222349517e-09 -1.152882589e-09)
5(-1.52224074e-09 -1.943571482e-09 -1.676115995e-09 -9.620204552e-10 -8.920020082e-10)
5(-1.734947954e-09 -1.911060854e-09 -1.577069976e-09 -6.538305888e-10 -1.91842248e-10)
5(-1.458559009e-09 -1.708323594e-09 -1.503501385e-09 -7.158006633e-10 -3.424433889e-10)
5(-1.291729758e-09 -1.622861994e-09 -9.303432563e-10 -2.328196646e-10 -5.403833864e-10)
5(-1.031613668e-09 -1.339410088e-09 -9.890155136e-10 -3.431002515e-10 -3.370766632e-10)
5(-1.247074144e-09 -1.273826939e-09 -7.041186454e-10 -1.256403334e-10 -1.222978289e-10)
5(-9.901607422e-10 -1.130348489e-09 -6.665085507e-10 -1.798820828e-11 4.13341165e-11)
5(-7.505168881e-10 -1.096888768e-09 -6.935874981e-10 2.406908943e-10 4.326828912e-10)
5(-4.741639515e-10 -7.936366984e-10 -6.328173386e-10 2.023554172e-10 5.635406177e-10)
5(-4.621801192e-10 -7.564840887e-10 -5.023693206e-10 3.547206462e-10 6.670574797e-10)
5(-2.637612447e-10 -4.798008263e-10 -2.980070551e-10 3.359992611e-10 5.735973737e-10)
5(-2.651901758e-10 -3.324418026e-10 -4.578880585e-11 4.02907593e-10 4.985395652e-10)
5(-1.547958869e-10 -2.417813804e-10 8.145125525e-12 4.908875368e-10 6.360433451e-10)
5(-1.695789438e-11 -7.604302528e-11 1.724706759e-10 6.67891898e-10 8.531857533e-10)
5(-1.971620793e-11 -3.718772925e-11 2.588583547e-10 5.355594747e-10 4.951148388e-10)
5(1.783181198e-11 5.77448803e-12 3.864819656e-10 8.152656546e-10 8.467521338e-10)
5(1.587932941e-10 1.345345433e-10 4.304245703e-10 7.519611685e-10 7.474788283e-10)
5(9.466517584e-11 8.359117052e-11 5.407720455e-10 9.019176222e-10 7.881477963e-10)
5(3.887848979e-10 3.824711402e-10 5.679189157e-10 7.116557525e-10 6.565461356e-10)
5(3.379532795e-10 4.540715813e-10 6.333092212e-10 1.025289578e-09 1.35060053e-09)
5(5.042665975e-10 5.013486104e-10 6.886532141e-10 7.783143949e-10 6.697226456e-10)
5(6.917971287e-10 5.663813451e-10 6.975465335e-10 1.881070439e-09 2.791464611e-09)
5(8.675325141e-10 7.249547489e-10 6.81638326e-10 1.587712892e-09 2.381568316e-09)
5(8.572623366e-10 7.499146014e-10 9.412571766e-10 1.41927893e-09 1.588407118e-09)
5(1.018149857e-09 8.21969839e-10 1.493478859e-09 1.191258429e-09 5.21151161e-12)
5(9.543784399e-10 5.922995242e-10 1.381606824e-09 1.19475773e-09 -1.618492207e-10)
5(1.02606882e-09 6.68015009e-10 1.181996077e-09 1.027475161e-09 -1.779070826e-11)
5(7.817614089e-10 6.866827419e-10 1.051974432e-09 7.69410471e-10 1.264324586e-11)
5(7.681813401e-10 1.023839635e-09 8.256857803e-10 2.047590562e-10 3.050962287e-11)
5(1.111630425e-09 1.053713499e-09 4.863521777e-10 1.287432712e-12 1.919949513e-11)
5(7.919564928e-10 8.539649701e-10 4.204020795e-10 -2.539657013e-11 2.191952504e-11)
5(1.416187419e-09 6.685435435e-10 -8.505637733e-11 -2.78338319e-11 2.529833103e-11)
5(1.065740838e-09 4.767744341e-10 -1.053076473e-10 -2.923896889e-11 3.084735712e-11)
5(1.420228492e-10 3.788851705e-12 -1.163214617e-10 -3.029124633e-11 3.558268614e-11)
5(-2.094623269e-10 -1.82322405e-10 -1.279277793e-10 -3.07100318e-11 4.208383107e-11)
5(-2.681227876e-10 -2.231192332e-10 -1.408517345e-10 -3.232591977e-11 4.240131845e-11)
5(-2.940706096e-10 -2.478607361e-10 -1.568071975e-10 -3.393579443e-11 4.77182649e-11)
5(-2.787829456e-10 -2.523182913e-10 -1.705205099e-10 -3.547313375e-11 4.713232122e-11)
5(-2.119816693e-10 -2.29816516e-10 -1.847187549e-10 -4.180614254e-11 3.954833008e-11)
5(-2.237285782e-10 -2.309562622e-10 -1.834934202e-10 -3.212019291e-11 6.645744398e-11)
5(-2.966854271e-10 -2.804906271e-10 -1.198076083e-10 -2.448413042e-11 -7.406515048e-11)
5(-4.394212877e-10 -3.917571014e-10 -2.67618497e-10 -3.928956703e-11 1.175346434e-10)
)


60
(
5(5.678051437e-10 -3.891874281e-09 -4.814885994e-09 -5.306559857e-09 -9.111332621e-09)
5(-1.305797963e-09 -2.932903514e-09 -3.653195985e-09 -4.044949201e-09 -5.004354814e-09)
5(-2.580006649e-09 -2.676648238e-09 -3.265653873e-09 -3.439964672e-09 -2.791461688e-09)
5(-3.347550251e-09 -3.005601681e-09 -3.47930043e-09 -3.536471183e-09 -2.449118548e-09)
5(-3.716561784e-09 -3.68238813e-09 -4.020053873e-09 -4.050386104e-09 -3.378300967e-09)
5(-3.892003944e-09 -4.304624079e-09 -4.555891411e-09 -4.57848508e-09 -4.452852626e-09)
5(-4.192258333e-09 -4.728553017e-09 -4.919868396e-09 -4.756525215e-09 -4.644249059e-09)
5(-4.648327758e-09 -5.075149158e-09 -5.092261002e-09 -4.594724689e-09 -4.225404276e-09)
5(-5.081320267e-09 -5.314147631e-09 -5.103882353e-09 -4.285691124e-09 -3.643358535e-09)
5(-5.372411316e-09 -5.483172187e-09 -5.028542698e-09 -3.83584822e-09 -2.960395594e-09)
5(-5.542706658e-09 -5.576519504e-09 -4.8212066e-09 -3.30262078e-09 -2.34746141e-09)
5(-5.484964746e-09 -5.538287037e-09 -4.481875445e-09 -2.633603512e-09 -1.699590183e-09)
5(-5.319013073e-09 -5.346462726e-09 -3.996799675e-09 -1.846224734e-09 -9.064661156e-10)
5(-5.031986666e-09 -5.008672877e-09 -3.449202152e-09 -1.06667387e-09 -8.093074251e-11)
5(-4.61102514e-09 -4.552160587e-09 -2.821146363e-09 -3.063468853e-10 6.48760876e-10)
5(-4.101329325e-09 -4.01799532e-09 -2.155956606e-09 4.275107196e-10 1.319294918e-09)
5(-3.541808211e-09 -3.447659944e-09 -1.511864395e-09 1.084888077e-09 1.904439844e-09)
5(-2.921476306e-09 -2.828675385e-09 -8.898490611e-10 1.625636523e-09 2.339256106e-09)
5(-2.263098425e-09 -2.205460785e-09 -3.440581411e-10 2.059530627e-09 2.685713239e-09)
5(-1.651794776e-09 -1.613073589e-09 1.397271422e-10 2.376371308e-09 2.911224994e-09)
5(-1.084434413e-09 -1.074464739e-09 5.502716217e-10 2.610563344e-09 3.056961879e-09)
5(-5.961340942e-10 -5.959746008e-10 8.761712892e-10 2.744070295e-09 3.132853202e-09)
5(-1.546380224e-10 -1.861756501e-10 1.13001054e-09 2.811277064e-09 3.131300467e-09)
5(2.248122202e-10 1.585888591e-10 1.329143714e-09 2.832052397e-09 3.079903792e-09)
5(5.008338005e-10 4.281386675e-10 1.462084928e-09 2.803952174e-09 3.018655331e-09)
5(7.38183379e-10 6.408851153e-10 1.552761261e-09 2.763594192e-09 2.943015465e-09)
5(9.211922459e-10 8.105352203e-10 1.605678567e-09 2.695975478e-09 2.857670711e-09)
5(1.034679648e-09 9.420879569e-10 1.649916243e-09 2.621253019e-09 2.769991115e-09)
5(1.116594208e-09 1.040968505e-09 1.681580828e-09 2.540495186e-09 2.661896046e-09)
5(1.196516578e-09 1.127747307e-09 1.696661243e-09 2.467920804e-09 2.581116816e-09)
5(1.254198552e-09 1.197483438e-09 1.710006026e-09 2.396641882e-09 2.494764058e-09)
5(1.302535207e-09 1.264330678e-09 1.724161338e-09 2.333112954e-09 2.425978045e-09)
5(1.346959904e-09 1.322256017e-09 1.7437274e-09 2.288212939e-09 2.369543162e-09)
5(1.396637206e-09 1.385556168e-09 1.769384025e-09 2.253885945e-09 2.327462637e-09)
5(1.444872895e-09 1.448716454e-09 1.80377651e-09 2.232376999e-09 2.294649962e-09)
5(1.519341341e-09 1.527441006e-09 1.845508359e-09 2.224308811e-09 2.278597857e-09)
5(1.590309805e-09 1.605002227e-09 1.89837619e-09 2.223199289e-09 2.255340508e-09)
5(1.689544682e-09 1.702959889e-09 1.958598827e-09 2.226671176e-09 2.238759431e-09)
5(1.80943538e-09 1.809023344e-09 2.016848505e-09 2.240261775e-09 2.241748011e-09)
5(1.922277818e-09 1.919694405e-09 2.087013539e-09 2.267372356e-09 2.264325775e-09)
5(2.061456713e-09 2.039524182e-09 2.147830892e-09 2.304850879e-09 2.318094443e-09)
5(2.169552575e-09 2.141583436e-09 2.219632829e-09 2.349338554e-09 2.359611399e-09)
5(2.308629957e-09 2.241894848e-09 2.281892739e-09 2.378456776e-09 2.354312656e-09)
5(2.435063109e-09 2.311488035e-09 2.328566541e-09 2.380506616e-09 2.276915312e-09)
5(2.503701723e-09 2.354752704e-09 2.368308526e-09 2.34482295e-09 2.143399308e-09)
5(2.519354411e-09 2.370843762e-09 2.379122196e-09 2.268655635e-09 1.986076237e-09)
5(2.485890276e-09 2.374678491e-09 2.357621087e-09 2.147088126e-09 1.828132098e-09)
5(2.431037206e-09 2.360318377e-09 2.296890732e-09 1.995539757e-09 1.673994958e-09)
5(2.388018405e-09 2.33217543e-09 2.199659104e-09 1.825239911e-09 1.51549499e-09)
5(2.357660579e-09 2.271383868e-09 2.056857488e-09 1.646759385e-09 1.352951488e-09)
5(2.344421858e-09 2.187341244e-09 1.877210365e-09 1.464306619e-09 1.191943409e-09)
5(2.27683639e-09 2.054891422e-09 1.671140733e-09 1.280109364e-09 1.037993065e-09)
5(2.128969225e-09 1.870552609e-09 1.454317264e-09 1.102508972e-09 8.958424016e-10)
5(1.87823475e-09 1.627400495e-09 1.231708921e-09 9.281679515e-10 7.580485695e-10)
5(1.542519105e-09 1.339082264e-09 1.009351947e-09 7.652229793e-10 6.38231822e-10)
5(1.173778082e-09 1.032437147e-09 7.899092638e-10 6.11858299e-10 5.285546875e-10)
5(8.000562091e-10 7.236964674e-10 5.778097326e-10 4.7059122e-10 4.292277755e-10)
5(4.459949139e-10 4.314959451e-10 3.788285098e-10 3.393490697e-10 3.370730734e-10)
5(1.410957893e-10 1.733171631e-10 1.909434102e-10 2.093671903e-10 2.437222848e-10)
5(-1.320404876e-10 -4.805729547e-11 -2.715552336e-11 5.179707838e-11 1.996007159e-10)
)


60
(
5(-7.124875567e-10 -5.428738642e-09 -6.75943271e-09 -6.6563457e-09 -9.652112139e-09)
5(-2.863075654e-09 -4.696189107e-09 -5.725691361e-09 -5.864592539e-09 -6.375589118e-09)
5(-4.401135027e-09 -4.705343602e-09 -5.470785455e-09 -5.509292865e-09 -4.6412621e-09)
5(-5.363742289e-09 -5.264559113e-09 -5.768050318e-09 -5.536507977e-09 -4.266003626e-09)
5(-5.873276246e-09 -6.029556773e-09 -6.259194451e-09 -5.718354648e-09 -4.69730798e-09)
5(-6.156062643e-09 -6.648155746e-09 -6.600426878e-09 -5.695440645e-09 -4.966596548e-09)
5(-6.459761955e-09 -7.021465817e-09 -6.681234836e-09 -5.297222277e-09 -4.488215192e-09)
5(-6.841869439e-09 -7.203948614e-09 -6.477098333e-09 -4.60162473e-09 -3.516477069e-09)
5(-7.106481941e-09 -7.206559241e-09 -6.068052548e-09 -3.727281886e-09 -2.354860272e-09)
5(-7.139995758e-09 -7.044078637e-09 -5.496149029e-09 -2.770287189e-09 -1.258648788e-09)
5(-6.937892511e-09 -6.73202479e-09 -4.787663699e-09 -1.69120114e-09 -1.313251576e-10)
5(-6.508572682e-09 -6.237719846e-09 -3.955690294e-09 -5.798030732e-10 9.49972778e-10)
5(-5.915799792e-09 -5.576507979e-09 -3.038452195e-09 5.008951319e-10 1.972021786e-09)
5(-5.198993958e-09 -4.794021962e-09 -2.097765898e-09 1.479866113e-09 2.865743501e-09)
5(-4.388848946e-09 -3.943465343e-09 -1.179592377e-09 2.344998874e-09 3.622665056e-09)
5(-3.536594458e-09 -3.071606361e-09 -3.26239162e-10 3.05227767e-09 4.197960886e-09)
5(-2.615264715e-09 -2.194152449e-09 4.325753954e-10 3.61492083e-09 4.61740212e-09)
5(-1.734878957e-09 -1.365882613e-09 1.084193079e-09 4.026974653e-09 4.896801045e-09)
5(-9.36094297e-10 -6.242316328e-10 1.625748894e-09 4.304578546e-09 5.039669533e-09)
5(-2.190637455e-10 3.201886325e-11 2.046453303e-09 4.452767989e-09 5.079728624e-09)
5(3.656892099e-10 5.730960818e-10 2.367072126e-09 4.503228526e-09 5.029927174e-09)
5(8.729929737e-10 1.027294859e-09 2.594154553e-09 4.477636023e-09 4.920713567e-09)
5(1.268142086e-09 1.371617381e-09 2.735586268e-09 4.399828485e-09 4.77279619e-09)
5(1.558539157e-09 1.624712282e-09 2.811632648e-09 4.2810416e-09 4.597895104e-09)
5(1.770097466e-09 1.80669961e-09 2.836784106e-09 4.134860955e-09 4.407750728e-09)
5(1.922924669e-09 1.936795416e-09 2.82676673e-09 3.97825047e-09 4.2226647e-09)
5(2.020630851e-09 2.020157342e-09 2.790407939e-09 3.80896287e-09 4.02730146e-09)
5(2.048279902e-09 2.057533918e-09 2.745040282e-09 3.64907917e-09 3.847445282e-09)
5(2.08948437e-09 2.090396327e-09 2.689482592e-09 3.491082793e-09 3.66891497e-09)
5(2.086128052e-09 2.095444785e-09 2.631245951e-09 3.346088817e-09 3.510976864e-09)
5(2.082931322e-09 2.10081905e-09 2.579287718e-09 3.212024422e-09 3.36270197e-09)
5(2.073680917e-09 2.100499668e-09 2.529520178e-09 3.091468681e-09 3.231608182e-09)
5(2.067690755e-09 2.098348033e-09 2.485971057e-09 2.991265147e-09 3.121624083e-09)
5(2.058389927e-09 2.103911768e-09 2.458769862e-09 2.906980464e-09 3.029518881e-09)
5(2.057428521e-09 2.114822695e-09 2.440214577e-09 2.838683733e-09 2.954246073e-09)
5(2.049454503e-09 2.124244739e-09 2.435749863e-09 2.787939046e-09 2.889905526e-09)
5(2.08473011e-09 2.160351517e-09 2.443457654e-09 2.754069157e-09 2.844598226e-09)
5(2.13496495e-09 2.210833711e-09 2.46444971e-09 2.72988722e-09 2.805704813e-09)
5(2.198297259e-09 2.274408383e-09 2.497652971e-09 2.721562315e-09 2.786999093e-09)
5(2.276594689e-09 2.348448009e-09 2.538886414e-09 2.730426688e-09 2.792456628e-09)
5(2.359879602e-09 2.427871842e-09 2.588987561e-09 2.75583898e-09 2.819024973e-09)
5(2.470336652e-09 2.522578461e-09 2.645109252e-09 2.786251817e-09 2.846541961e-09)
5(2.577840102e-09 2.608046516e-09 2.702544017e-09 2.810997289e-09 2.844440533e-09)
5(2.684049668e-09 2.682969401e-09 2.756813234e-09 2.819468313e-09 2.795926913e-09)
5(2.775454701e-09 2.74224944e-09 2.795634847e-09 2.797890237e-09 2.701679346e-09)
5(2.829678271e-09 2.783092415e-09 2.816157541e-09 2.745828448e-09 2.583669477e-09)
5(2.838804954e-09 2.805691693e-09 2.810168246e-09 2.657393882e-09 2.455168151e-09)
5(2.820932608e-09 2.808302336e-09 2.771846198e-09 2.541643482e-09 2.324066627e-09)
5(2.797796959e-09 2.790458491e-09 2.700414186e-09 2.40793995e-09 2.187603545e-09)
5(2.787078172e-09 2.755329868e-09 2.599679175e-09 2.264866404e-09 2.043276917e-09)
5(2.786817032e-09 2.702576179e-09 2.470793219e-09 2.113773005e-09 1.892738198e-09)
5(2.766884584e-09 2.625034979e-09 2.321837526e-09 1.954732646e-09 1.73630312e-09)
5(2.693144121e-09 2.510923729e-09 2.15458209e-09 1.785575753e-09 1.577629457e-09)
5(2.547288661e-09 2.349626906e-09 1.969116095e-09 1.606831182e-09 1.414564696e-09)
5(2.333725469e-09 2.13924031e-09 1.76096366e-09 1.419762058e-09 1.250505467e-09)
5(2.056032293e-09 1.883637934e-09 1.535565743e-09 1.229618687e-09 1.089153093e-09)
5(1.733845909e-09 1.595686111e-09 1.29886682e-09 1.040986449e-09 9.336032918e-10)
5(1.398495008e-09 1.298000293e-09 1.056858733e-09 8.537408533e-10 7.854976273e-10)
5(1.077775581e-09 1.009961631e-09 8.227723921e-10 6.742188285e-10 6.411866545e-10)
5(8.016537173e-10 6.991186949e-10 5.17754146e-10 5.585706913e-10 6.75736312e-10)
)


60
(
5(-1.936233015e-09 -6.829643367e-09 -8.426121844e-09 -7.61012532e-09 -9.799623195e-09)
5(-4.329032945e-09 -6.292855571e-09 -7.430141513e-09 -7.06864412e-09 -7.07953369e-09)
5(-6.045358817e-09 -6.477924105e-09 -7.188710238e-09 -6.745400767e-09 -5.548645087e-09)
5(-7.107537237e-09 -7.147478816e-09 -7.426343972e-09 -6.559666238e-09 -4.999162448e-09)
5(-7.645671526e-09 -7.874728952e-09 -7.722829244e-09 -6.314291854e-09 -4.877599202e-09)
5(-7.891855709e-09 -8.349042584e-09 -7.771843201e-09 -5.786082629e-09 -4.480580769e-09)
5(-8.101753504e-09 -8.528671717e-09 -7.475966276e-09 -4.890893629e-09 -3.47660201e-09)
5(-8.29163386e-09 -8.455419177e-09 -6.883536773e-09 -3.762540692e-09 -2.103919463e-09)
5(-8.294157966e-09 -8.150025573e-09 -6.076478773e-09 -2.497686211e-09 -6.088466785e-10)
5(-8.021951741e-09 -7.634565615e-09 -5.103891119e-09 -1.178165921e-09 8.079344425e-10)
5(-7.461270626e-09 -6.929324531e-09 -4.017782718e-09 1.627031536e-10 2.129395151e-09)
5(-6.691148806e-09 -6.052807618e-09 -2.860664231e-09 1.432392234e-09 3.301689398e-09)
5(-5.758763574e-09 -5.045580164e-09 -1.702424825e-09 2.584566573e-09 4.339013057e-09)
5(-4.711134049e-09 -3.958442503e-09 -5.907778298e-10 3.569833232e-09 5.183696488e-09)
5(-3.623200111e-09 -2.863836893e-09 4.306887902e-10 4.365196783e-09 5.807761757e-09)
5(-2.552617804e-09 -1.809645946e-09 1.338675012e-09 4.979456648e-09 6.237180212e-09)
5(-1.525462156e-09 -8.324134638e-10 2.095687227e-09 5.411945947e-09 6.498292962e-09)
5(-5.333531747e-10 6.481399708e-11 2.701740273e-09 5.673306856e-09 6.597017723e-09)
5(2.815004358e-10 8.075582672e-10 3.170921894e-09 5.809405021e-09 6.591481099e-09)
5(1.021154299e-09 1.448582642e-09 3.505421519e-09 5.824360099e-09 6.487117124e-09)
5(1.60912348e-09 1.942181105e-09 3.718649901e-09 5.755796373e-09 6.317708767e-09)
5(2.012683785e-09 2.298089438e-09 3.84779271e-09 5.626034548e-09 6.10620301e-09)
5(2.342825316e-09 2.565879841e-09 3.893922588e-09 5.448210985e-09 5.862684067e-09)
5(2.611407758e-09 2.767432904e-09 3.880599165e-09 5.239394029e-09 5.605956369e-09)
5(2.755836144e-09 2.871249468e-09 3.826035884e-09 5.018010038e-09 5.336822668e-09)
5(2.828796865e-09 2.92363902e-09 3.748424404e-09 4.795699853e-09 5.081099281e-09)
5(2.854258917e-09 2.93556962e-09 3.651283723e-09 4.573410818e-09 4.83136923e-09)
5(2.84997903e-09 2.922207243e-09 3.544782081e-09 4.355812306e-09 4.589030584e-09)
5(2.819192359e-09 2.888745577e-09 3.434845655e-09 4.152582593e-09 4.368737532e-09)
5(2.773612716e-09 2.843372614e-09 3.325962743e-09 3.959041096e-09 4.156590718e-09)
5(2.724725111e-09 2.794435806e-09 3.221357964e-09 3.784407311e-09 3.969701733e-09)
5(2.672742925e-09 2.74669853e-09 3.125735706e-09 3.623135414e-09 3.796974722e-09)
5(2.619850046e-09 2.696503725e-09 3.040650088e-09 3.48530319e-09 3.645815759e-09)
5(2.571640216e-09 2.654282242e-09 2.967505564e-09 3.364963426e-09 3.516929785e-09)
5(2.529988293e-09 2.620954859e-09 2.908853158e-09 3.265136082e-09 3.411158839e-09)
5(2.498778528e-09 2.597579405e-09 2.864594221e-09 3.182315371e-09 3.319830339e-09)
5(2.484262599e-09 2.588204547e-09 2.835471025e-09 3.117523148e-09 3.245434076e-09)
5(2.488670617e-09 2.594781295e-09 2.822915239e-09 3.072399667e-09 3.189941036e-09)
5(2.509397381e-09 2.616582154e-09 2.825557776e-09 3.042928081e-09 3.149318296e-09)
5(2.544910602e-09 2.653327532e-09 2.843057057e-09 3.036425179e-09 3.139935496e-09)
5(2.600228068e-09 2.707627928e-09 2.874053462e-09 3.044845977e-09 3.148447304e-09)
5(2.672467089e-09 2.774055121e-09 2.916180414e-09 3.064521586e-09 3.164339481e-09)
5(2.763086403e-09 2.848710856e-09 2.966186769e-09 3.085352849e-09 3.164481002e-09)
5(2.860911124e-09 2.922391472e-09 3.019041914e-09 3.095706707e-09 3.128464657e-09)
5(2.958647477e-09 2.992936675e-09 3.065237319e-09 3.086219565e-09 3.059666038e-09)
5(3.036308714e-09 3.053067951e-09 3.09506307e-09 3.048296254e-09 2.966153491e-09)
5(3.082023439e-09 3.097681652e-09 3.101549049e-09 2.981068499e-09 2.862227189e-09)
5(3.100266568e-09 3.123334239e-09 3.081543597e-09 2.889933025e-09 2.75333541e-09)
5(3.09471472e-09 3.120781058e-09 3.03216758e-09 2.781250998e-09 2.635574965e-09)
5(3.106188632e-09 3.104884306e-09 2.956085749e-09 2.665993151e-09 2.513689548e-09)
5(3.112718947e-09 3.069978035e-09 2.861482691e-09 2.545436429e-09 2.384564968e-09)
5(3.104759941e-09 3.020808702e-09 2.756676172e-09 2.418326364e-09 2.248378779e-09)
5(3.07763128e-09 2.959463907e-09 2.642877192e-09 2.279884337e-09 2.102457348e-09)
5(3.016902247e-09 2.874264628e-09 2.511230409e-09 2.12584474e-09 1.947482665e-09)
5(2.915843071e-09 2.753998176e-09 2.352901011e-09 1.953295944e-09 1.779388079e-09)
5(2.756958525e-09 2.586628723e-09 2.163706681e-09 1.763640074e-09 1.603079043e-09)
5(2.539960628e-09 2.372217484e-09 1.949462231e-09 1.565898088e-09 1.425439136e-09)
5(2.272345898e-09 2.118900949e-09 1.717053899e-09 1.36425565e-09 1.249594841e-09)
5(1.987396515e-09 1.849935992e-09 1.481123872e-09 1.169521537e-09 1.080270242e-09)
5(1.472914964e-09 1.397393811e-09 1.272616197e-09 1.119373605e-09 1.007879489e-09)
)


60
(
5(-3.111264857e-09 -8.106262152e-09 -9.847742225e-09 -8.269323639e-09 -9.681853123e-09)
5(-5.703862481e-09 -7.718085647e-09 -8.823987686e-09 -7.8529715e-09 -7.353176986e-09)
5(-7.528852803e-09 -8.007272208e-09 -8.522986344e-09 -7.450578305e-09 -5.879897923e-09)
5(-8.615160655e-09 -8.70302699e-09 -8.6321842e-09 -7.004835763e-09 -5.103258631e-09)
5(-9.111865347e-09 -9.325993468e-09 -8.686992605e-09 -6.364582168e-09 -4.51675108e-09)
5(-9.260979964e-09 -9.596218144e-09 -8.412639402e-09 -5.420506499e-09 -3.626584396e-09)
5(-9.302440705e-09 -9.533746612e-09 -7.781114661e-09 -4.141417607e-09 -2.211639526e-09)
5(-9.261682604e-09 -9.179716941e-09 -6.84637034e-09 -2.693785914e-09 -5.543688222e-10)
5(-8.995678549e-09 -8.56614884e-09 -5.69453327e-09 -1.161361027e-09 1.134415327e-09)
5(-8.409350434e-09 -7.725734627e-09 -4.4228481e-09 3.517455785e-10 2.676876309e-09)
5(-7.562418907e-09 -6.702827046e-09 -3.073026284e-09 1.82235753e-09 4.083268725e-09)
5(-6.49977914e-09 -5.534016943e-09 -1.722116208e-09 3.143507859e-09 5.266588537e-09)
5(-5.291513381e-09 -4.278504496e-09 -4.217053703e-10 4.290120132e-09 6.23263483e-09)
5(-4.070807248e-09 -3.012709632e-09 7.774881113e-10 5.210138416e-09 6.961127455e-09)
5(-2.799025164e-09 -1.770370161e-09 1.831965332e-09 5.922961042e-09 7.469200458e-09)
5(-1.591591003e-09 -6.13887095e-10 2.728447121e-09 6.425177989e-09 7.768583493e-09)
5(-4.941716738e-10 4.024713538e-10 3.445509724e-09 6.746425464e-09 7.898487366e-09)
5(5.061848984e-10 1.289289175e-09 3.991989629e-09 6.902555421e-09 7.880187751e-09)
5(1.341280441e-09 2.018684931e-09 4.38358592e-09 6.927492351e-09 7.762437376e-09)
5(2.030964001e-09 2.597707791e-09 4.634713857e-09 6.846898689e-09 7.561925434e-09)
5(2.564283478e-09 3.032498768e-09 4.775247571e-09 6.692486859e-09 7.30501631e-09)
5(2.966942693e-09 3.348184403e-09 4.824792664e-09 6.482341227e-09 7.012682334e-09)
5(3.237660012e-09 3.549595314e-09 4.802322108e-09 6.236628646e-09 6.698222999e-09)
5(3.412789053e-09 3.66570959e-09 4.728546779e-09 5.973768819e-09 6.377905797e-09)
5(3.500501191e-09 3.71123378e-09 4.618891628e-09 5.703931974e-09 6.062419317e-09)
5(3.543405158e-09 3.713483732e-09 4.483547596e-09 5.433265109e-09 5.755045786e-09)
5(3.522884185e-09 3.675880835e-09 4.340651995e-09 5.169048191e-09 5.459903157e-09)
5(3.471660254e-09 3.612354834e-09 4.189452582e-09 4.914747865e-09 5.180202194e-09)
5(3.410662346e-09 3.538143001e-09 4.037530959e-09 4.67585124e-09 4.920980195e-09)
5(3.327358119e-09 3.450144595e-09 3.889507208e-09 4.452212603e-09 4.679245753e-09)
5(3.246234249e-09 3.364338648e-09 3.750539602e-09 4.245058796e-09 4.454325485e-09)
5(3.164659365e-09 3.279389174e-09 3.618938485e-09 4.05737709e-09 4.255666959e-09)
5(3.079977678e-09 3.195088066e-09 3.499383001e-09 3.886251778e-09 4.070332944e-09)
5(3.000400831e-09 3.117592135e-09 3.392886995e-09 3.738270365e-09 3.913640838e-09)
5(2.927772521e-09 3.047382286e-09 3.299755508e-09 3.610349712e-09 3.7776565e-09)
5(2.868069857e-09 2.989656589e-09 3.22259127e-09 3.502182452e-09 3.661126473e-09)
5(2.818766386e-09 2.944060117e-09 3.162691801e-09 3.413300075e-09 3.562461427e-09)
5(2.781449943e-09 2.912023645e-09 3.11992734e-09 3.342656987e-09 3.480873138e-09)
5(2.766290646e-09 2.899939444e-09 3.094895966e-09 3.294394463e-09 3.426158291e-09)
5(2.770183633e-09 2.906599482e-09 3.087639634e-09 3.266806872e-09 3.395527558e-09)
5(2.797846819e-09 2.933510028e-09 3.097240039e-09 3.261745531e-09 3.392727261e-09)
5(2.844667148e-09 2.976620964e-09 3.123101427e-09 3.272370149e-09 3.401900625e-09)
5(2.91067535e-09 3.0338527e-09 3.16388484e-09 3.286880343e-09 3.397662407e-09)
5(2.992006159e-09 3.099919938e-09 3.214872253e-09 3.298939103e-09 3.370090641e-09)
5(3.081004982e-09 3.171726082e-09 3.2667778e-09 3.296647424e-09 3.315599111e-09)
5(3.170995463e-09 3.245976989e-09 3.30980358e-09 3.274396282e-09 3.242898508e-09)
5(3.235732443e-09 3.309796066e-09 3.334456854e-09 3.225380161e-09 3.158361533e-09)
5(3.283060952e-09 3.358826351e-09 3.334124607e-09 3.15271757e-09 3.064637492e-09)
5(3.312145959e-09 3.381238124e-09 3.303989628e-09 3.064592667e-09 2.96452785e-09)
5(3.333928716e-09 3.377295296e-09 3.245939807e-09 2.969222072e-09 2.859957122e-09)
5(3.341488574e-09 3.349804743e-09 3.171797817e-09 2.87256225e-09 2.751571828e-09)
5(3.326394804e-09 3.306906257e-09 3.09435865e-09 2.775476462e-09 2.640817431e-09)
5(3.289959011e-09 3.259166074e-09 3.021125712e-09 2.675060946e-09 2.527006058e-09)
5(3.239638176e-09 3.208174884e-09 2.945753792e-09 2.560456104e-09 2.396621e-09)
5(3.192803292e-09 3.155778425e-09 2.854999505e-09 2.42616164e-09 2.251143995e-09)
5(3.134144003e-09 3.083830309e-09 2.735532075e-09 2.267941437e-09 2.08809097e-09)
5(3.049996845e-09 2.977864991e-09 2.579920146e-09 2.089366257e-09 1.913959194e-09)
5(2.918041209e-09 2.821747108e-09 2.390081854e-09 1.901166843e-09 1.736699073e-09)
5(2.725034955e-09 2.610553659e-09 2.177981416e-09 1.719821818e-09 1.56867661e-09)
5(2.24286445e-09 2.119165757e-09 1.965864541e-09 1.682954515e-09 1.410271185e-09)
)


60
(
5(-4.245274068e-09 -9.272099352e-09 -1.105317903e-08 -8.722627687e-09 -9.421483739e-09)
5(-6.982852728e-09 -8.986474853e-09 -9.967343539e-09 -8.348728879e-09 -7.352944374e-09)
5(-8.872042024e-09 -9.3372478e-09 -9.56919819e-09 -7.825836576e-09 -5.890476463e-09)
5(-9.936223827e-09 -1.000012992e-08 -9.515227485e-09 -7.093602242e-09 -4.827465123e-09)
5(-1.034350981e-08 -1.047593022e-08 -9.319263831e-09 -6.11500373e-09 -3.862658395e-09)
5(-1.036207599e-08 -1.052370551e-08 -8.736115379e-09 -4.848195675e-09 -2.628503114e-09)
5(-1.021858067e-08 -1.020779732e-08 -7.799362843e-09 -3.275032736e-09 -9.10601259e-10)
5(-9.950321791e-09 -9.590020735e-09 -6.571473929e-09 -1.601967182e-09 9.143616539e-10)
5(-9.406888791e-09 -8.691422213e-09 -5.162173885e-09 9.575998062e-11 2.714677867e-09)
5(-8.557925051e-09 -7.572327182e-09 -3.656115214e-09 1.731823977e-09 4.333542781e-09)
5(-7.450529537e-09 -6.291195313e-09 -2.129327268e-09 3.244251772e-09 5.729959678e-09)
5(-6.147888822e-09 -4.895660986e-09 -6.432342938e-10 4.568408186e-09 6.866994198e-09)
5(-4.767860143e-09 -3.469633126e-09 7.382555799e-10 5.672690878e-09 7.760462361e-09)
5(-3.368850773e-09 -2.066691546e-09 1.974333487e-09 6.529406035e-09 8.387862594e-09)
5(-2.021784158e-09 -7.568621169e-10 3.026362952e-09 7.158012263e-09 8.796352051e-09)
5(-7.454070812e-10 4.326017634e-10 3.884369622e-09 7.566029924e-09 8.984381628e-09)
5(4.006068792e-10 1.466168203e-09 4.554031813e-09 7.797574748e-09 9.017739484e-09)
5(1.389223321e-09 2.327650269e-09 5.039364352e-09 7.862777302e-09 8.902816712e-09)
5(2.216182849e-09 3.025080193e-09 5.366936548e-09 7.807104267e-09 8.697808326e-09)
5(2.847544041e-09 3.546853069e-09 5.558429926e-09 7.652668816e-09 8.413989315e-09)
5(3.33948357e-09 3.929392191e-09 5.635939898e-09 7.43347918e-09 8.091153729e-09)
5(3.697999438e-09 4.189365348e-09 5.626291778e-09 7.173327765e-09 7.75045682e-09)
5(3.920759417e-09 4.336228163e-09 5.552638148e-09 6.882425354e-09 7.38685614e-09)
5(4.043553245e-09 4.399038779e-09 5.431735546e-09 6.577117834e-09 7.02168019e-09)
5(4.102981614e-09 4.405074159e-09 5.279259287e-09 6.268296785e-09 6.662871417e-09)
5(4.092233216e-09 4.359750369e-09 5.109364176e-09 5.967116727e-09 6.322025524e-09)
5(4.05344617e-09 4.286806709e-09 4.925848655e-09 5.672658252e-09 5.994595831e-09)
5(3.977298176e-09 4.188868953e-09 4.740627524e-09 5.391455158e-09 5.684819638e-09)
5(3.892783407e-09 4.084034993e-09 4.557723211e-09 5.125718451e-09 5.39578545e-09)
5(3.789335789e-09 3.968621684e-09 4.380839419e-09 4.875908495e-09 5.124229838e-09)
5(3.68453485e-09 3.851833894e-09 4.21036398e-09 4.644611144e-09 4.875385316e-09)
5(3.57603747e-09 3.736494554e-09 4.052662042e-09 4.433147808e-09 4.647299732e-09)
5(3.472286168e-09 3.624930191e-09 3.905746683e-09 4.242114546e-09 4.44092089e-09)
5(3.370845074e-09 3.521547748e-09 3.77204368e-09 4.06404009e-09 4.248132963e-09)
5(3.282990233e-09 3.428454613e-09 3.651442383e-09 3.914320554e-09 4.092665475e-09)
5(3.195786618e-09 3.340972623e-09 3.546283029e-09 3.783247919e-09 3.954142567e-09)
5(3.115204887e-09 3.264137593e-09 3.458659004e-09 3.671399097e-09 3.833700067e-09)
5(3.054561101e-09 3.204443835e-09 3.388758072e-09 3.580115511e-09 3.732925055e-09)
5(3.009527294e-09 3.161850489e-09 3.336870532e-09 3.510756835e-09 3.658495116e-09)
5(2.986536933e-09 3.14015254e-09 3.304588917e-09 3.464658625e-09 3.611069146e-09)
5(2.981051541e-09 3.136895498e-09 3.292696552e-09 3.44341742e-09 3.591652506e-09)
5(2.995143279e-09 3.153118875e-09 3.301513684e-09 3.44110481e-09 3.588086454e-09)
5(3.035566064e-09 3.189665592e-09 3.330523345e-09 3.450744194e-09 3.581927564e-09)
5(3.093870141e-09 3.240988259e-09 3.376179743e-09 3.463142297e-09 3.559315139e-09)
5(3.168338565e-09 3.306678094e-09 3.430732373e-09 3.468964129e-09 3.518104871e-09)
5(3.250856512e-09 3.382296938e-09 3.483911472e-09 3.459187957e-09 3.46033056e-09)