/*--------------------------------*- C++ -*----------------------------------*\
| =========                 |                                                 |
| \\      /  F ield         | OpenFOAM: The Open Source CFD Toolbox           |
|  \\    /   O peration     | Version:  2.3.1                                 |
|   \\  /    A nd           | Web:      www.OpenFOAM.org                      |
|    \\/     M anipulation  |                                                 |
\*---------------------------------------------------------------------------*/
FoamFile
{
    version     2.0;
    format      ascii;
    class       dictionary;
    location    "constant";
    object      DPSI37;
}
// * * * * * * * * * * * * * * * * * * * * * * * * * * * * * * * * * * * * * //

DPSI37_table
60
(

60
(
5(-2.986261969e-15 -3.102417717e-15 -9.258510619e-15 -1.3997671e-14 -6.265932372e-14)
5(-2.943616245e-15 -4.197269562e-15 -6.826400379e-15 -1.171753749e-14 -2.954864631e-14)
5(6.409916592e-14 -5.329446085e-15 -6.969501419e-15 -1.324528396e-14 -2.040767452e-14)
5(2.051540161e-13 -7.154527069e-15 -9.239793809e-15 -1.86371223e-14 -3.161196816e-14)
5(2.858807876e-13 -1.013438852e-14 -1.46775407e-14 -3.029588454e-14 -5.624587847e-14)
5(2.526593467e-13 -1.45961952e-14 -2.356312435e-14 -4.876924484e-14 -1.014737746e-13)
5(-1.157622713e-14 -2.083675954e-14 -3.529853243e-14 -7.282579046e-14 -1.615603718e-13)
5(-1.623032307e-14 -2.945507903e-14 -5.058734394e-14 -1.052265483e-13 -2.238946141e-13)
5(3.517567832e-13 -4.132409193e-14 -7.039431255e-14 -1.48334377e-13 -3.098204773e-13)
5(6.20229375e-13 -5.630061072e-14 -9.822287499e-14 -2.057417652e-13 -4.294115741e-13)
5(7.072523248e-13 -7.732857064e-14 -1.374975399e-13 -2.821047711e-13 -5.801144313e-13)
5(2.052350282e-13 -1.097518399e-13 -1.904604097e-13 -3.808538304e-13 -7.658725403e-13)
5(-7.954617127e-14 -1.491743255e-13 -2.587669049e-13 -5.041282655e-13 -9.980863854e-13)
5(-1.081814613e-13 -2.005521917e-13 -3.449858914e-13 -6.525903791e-13 -1.255421329e-12)
5(-1.467011567e-13 -2.672780911e-13 -4.525133463e-13 -8.300128194e-13 -1.548093124e-12)
5(-1.664225124e-13 -3.454480795e-13 -5.825323248e-13 -1.037122082e-12 -1.874447783e-12)
5(-2.351042975e-13 -4.544759195e-13 -7.446069032e-13 -1.281343183e-12 -2.232119132e-12)
5(-3.390756317e-13 -5.940141185e-13 -9.491847731e-13 -1.564067375e-12 -2.610320854e-12)
5(-4.646477354e-13 -7.719465724e-13 -1.194265304e-12 -1.891461559e-12 -3.014215254e-12)
5(-6.124551058e-13 -9.953954766e-13 -1.491591268e-12 -2.270239006e-12 -3.442114132e-12)
5(-8.087480336e-13 -1.28208511e-12 -1.86287554e-12 -2.721411344e-12 -3.934606725e-12)
5(-1.067461182e-12 -1.650386748e-12 -2.32257281e-12 -3.271778034e-12 -4.49113453e-12)
5(-1.401668503e-12 -2.129602371e-12 -2.912092388e-12 -3.942371597e-12 -5.149549283e-12)
5(-1.846705647e-12 -2.762997224e-12 -3.683516384e-12 -4.820441709e-12 -6.002101525e-12)
5(-2.456398121e-12 -3.601524657e-12 -4.703614263e-12 -5.981532272e-12 -7.130130194e-12)
5(-3.27715959e-12 -4.744479524e-12 -6.08867481e-12 -7.571451183e-12 -8.691143058e-12)
5(-4.429441382e-12 -6.40057267e-12 -8.059789074e-12 -9.803945642e-12 -1.087725406e-11)
5(-6.052536553e-12 -8.778496843e-12 -1.080819628e-11 -1.295647844e-11 -1.39556951e-11)
5(-8.357013594e-12 -1.209463253e-11 -1.478506137e-11 -1.745686932e-11 -1.829186449e-11)
5(-1.166500955e-11 -1.682609239e-11 -2.04589878e-11 -2.387069557e-11 -2.444164173e-11)
5(-1.648341488e-11 -2.360909475e-11 -2.846453818e-11 -3.269616199e-11 -3.281267357e-11)
5(-2.3473196e-11 -3.33742695e-11 -3.985425867e-11 -4.511246546e-11 -4.440556883e-11)
5(-3.351817994e-11 -4.688316247e-11 -5.53747797e-11 -6.150597817e-11 -5.898198974e-11)
5(-4.764913665e-11 -6.540285347e-11 -7.604028657e-11 -8.295941252e-11 -7.795003048e-11)
5(-6.739848224e-11 -9.063389149e-11 -1.035673513e-10 -1.095896704e-10 -1.001179285e-10)
5(-9.429520952e-11 -1.226230128e-10 -1.367609811e-10 -1.411763687e-10 -1.249621283e-10)
5(-1.299807412e-10 -1.645771025e-10 -1.803495547e-10 -1.775113933e-10 -1.509634755e-10)
5(-1.752217273e-10 -2.128771749e-10 -2.273827149e-10 -2.141231841e-10 -1.766198907e-10)
5(-2.300264715e-10 -2.681733321e-10 -2.755623175e-10 -2.489851851e-10 -1.932338651e-10)
5(-2.918815795e-10 -3.261533561e-10 -3.202321678e-10 -2.748063775e-10 -1.995428087e-10)
5(-3.596826694e-10 -3.818677388e-10 -3.585360683e-10 -2.873150985e-10 -1.89249625e-10)
5(-4.256891788e-10 -4.261617705e-10 -3.788896199e-10 -2.798468275e-10 -1.642988232e-10)
5(-4.798405859e-10 -4.510636641e-10 -3.763968768e-10 -2.515397669e-10 -1.300959396e-10)
5(-5.113838589e-10 -4.437509128e-10 -3.430097595e-10 -2.040750966e-10 -9.315905236e-11)
5(-5.105959903e-10 -4.095332251e-10 -2.91527996e-10 -1.485617186e-10 -5.9587377e-11)
5(-4.755841643e-10 -3.46292043e-10 -2.236187011e-10 -9.606724128e-11 -3.337407001e-11)
5(-4.060504081e-10 -2.668448926e-10 -1.494201944e-10 -5.480423277e-11 -1.62619364e-11)
5(-3.101124467e-10 -1.833329156e-10 -8.684456942e-11 -2.7265743e-11 -7.000722732e-12)
5(-2.132778409e-10 -1.089170726e-10 -4.320624938e-11 -1.177819e-11 -2.849827413e-12)
5(-1.254496578e-10 -5.440339686e-11 -1.846920806e-11 -4.544033155e-12 -1.299813861e-12)
5(-6.253818753e-11 -2.272078997e-11 -6.809377621e-12 -1.835562436e-12 -7.828802546e-13)
5(-2.49621996e-11 -8.045923043e-12 -2.50766642e-12 -9.544327317e-13 -6.233912484e-13)
5(-8.626350094e-12 -2.758856569e-12 -1.187489873e-12 -6.907283406e-13 -5.816886418e-13)
5(-2.665348524e-12 -1.199032088e-12 -8.008777833e-13 -6.081243905e-13 -5.737550926e-13)
5(-1.139889468e-12 -8.011347517e-13 -6.747152909e-13 -5.824141473e-13 -5.906720256e-13)
5(-7.37282937e-13 -6.50947641e-13 -6.111993763e-13 -5.798464261e-13 -6.252084878e-13)
5(-5.512435682e-13 -5.583842098e-13 -5.702557044e-13 -5.926729512e-13 -6.804756761e-13)
5(-4.170134525e-13 -4.826472279e-13 -5.416287187e-13 -6.204739194e-13 -7.571963945e-13)
5(-3.238295762e-13 -4.182532921e-13 -5.090548265e-13 -6.927368296e-13 -8.704982721e-13)
5(-2.448126381e-13 -3.686183225e-13 -4.902997355e-13 -6.690423443e-13 -9.057803522e-13)
)


60
(
5(-4.05017704e-15 -4.470913436e-15 -1.417822621e-14 -2.60357474e-14 -1.068895336e-13)
5(-4.441573501e-15 -6.526983422e-15 -1.217027782e-14 -2.546263925e-14 -7.04354456e-14)
5(3.321752511e-14 -8.931903959e-15 -1.378698406e-14 -3.162280854e-14 -6.878786143e-14)
5(1.192760128e-13 -1.261839453e-14 -1.948133199e-14 -4.619013719e-14 -9.681814586e-14)
5(1.553355187e-13 -1.842560256e-14 -3.101591372e-14 -7.186642851e-14 -1.568451474e-13)
5(1.241060414e-13 -2.712703364e-14 -4.962156404e-14 -1.105092052e-13 -2.544987627e-13)
5(-2.082899993e-14 -3.9295044e-14 -7.382574632e-14 -1.61424304e-13 -3.711088987e-13)
5(-2.958344796e-14 -5.590746424e-14 -1.045087681e-13 -2.264848751e-13 -5.089335464e-13)
5(1.545423171e-13 -7.844693863e-14 -1.448206611e-13 -3.102864976e-13 -6.777105245e-13)
5(2.825143678e-13 -1.082340157e-13 -1.988077952e-13 -4.192977473e-13 -8.894490857e-13)
5(3.106622658e-13 -1.485532124e-13 -2.715215964e-13 -5.580015153e-13 -1.158568362e-12)
5(2.755022908e-14 -2.035662751e-13 -3.662207622e-13 -7.302032054e-13 -1.483173064e-12)
5(-1.478904926e-13 -2.727208126e-13 -4.851265468e-13 -9.363903221e-13 -1.852044448e-12)
5(-1.992951646e-13 -3.611321162e-13 -6.311373051e-13 -1.180314597e-12 -2.259427906e-12)
5(-2.674717965e-13 -4.73435424e-13 -8.097169745e-13 -1.461278617e-12 -2.707250619e-12)
5(-3.426641124e-13 -6.111988982e-13 -1.02358783e-12 -1.782534326e-12 -3.183578343e-12)
5(-4.551109885e-13 -7.873206771e-13 -1.280844234e-12 -2.145985515e-12 -3.680651756e-12)
5(-6.09163163e-13 -1.006340292e-12 -1.588611422e-12 -2.552675482e-12 -4.203990832e-12)
5(-8.024868093e-13 -1.276051304e-12 -1.95059093e-12 -3.008737249e-12 -4.740337281e-12)
5(-1.039515462e-12 -1.606910938e-12 -2.377173167e-12 -3.518520046e-12 -5.296050897e-12)
5(-1.346136151e-12 -2.013963701e-12 -2.885940567e-12 -4.099725722e-12 -5.881430385e-12)
5(-1.725681099e-12 -2.516511956e-12 -3.490880172e-12 -4.777397671e-12 -6.55340377e-12)
5(-2.206274247e-12 -3.140309345e-12 -4.224515446e-12 -5.567695366e-12 -7.307473216e-12)
5(-2.825678137e-12 -3.919682255e-12 -5.130124534e-12 -6.542043667e-12 -8.234497637e-12)
5(-3.609769407e-12 -4.903255525e-12 -6.27136189e-12 -7.773314052e-12 -9.412629989e-12)
5(-4.610742572e-12 -6.167192322e-12 -7.741937702e-12 -9.390117823e-12 -1.099751789e-11)
5(-5.9198733e-12 -7.858420629e-12 -9.7067184e-12 -1.154202274e-11 -1.31314446e-11)
5(-7.670844732e-12 -1.012617035e-11 -1.231684243e-11 -1.449142747e-11 -1.608306098e-11)
5(-9.937296882e-12 -1.317221101e-11 -1.593652233e-11 -1.857473541e-11 -2.020553259e-11)
5(-1.309283658e-11 -1.734499608e-11 -2.096708445e-11 -2.429433717e-11 -2.601791192e-11)
5(-1.73498857e-11 -2.313788196e-11 -2.789701436e-11 -3.21178123e-11 -3.382416176e-11)
5(-2.330869891e-11 -3.126516825e-11 -3.761831847e-11 -4.303678619e-11 -4.472090039e-11)
5(-3.164721583e-11 -4.242165961e-11 -5.087492954e-11 -5.765319422e-11 -5.859772478e-11)
5(-4.319577236e-11 -5.76538496e-11 -6.868201817e-11 -7.682932008e-11 -7.711305587e-11)
5(-5.901566965e-11 -7.82885817e-11 -9.236258275e-11 -1.012821553e-10 -9.935948887e-11)
5(-8.060388228e-11 -1.050006723e-10 -1.218810741e-10 -1.312952297e-10 -1.256603222e-10)
5(-1.094067735e-10 -1.399480911e-10 -1.602886239e-10 -1.670364723e-10 -1.551603149e-10)
5(-1.454714776e-10 -1.817804799e-10 -2.040163728e-10 -2.058308411e-10 -1.861171542e-10)
5(-1.907988661e-10 -2.316009383e-10 -2.516396875e-10 -2.459346564e-10 -2.123945641e-10)
5(-2.431832145e-10 -2.859075023e-10 -3.001313874e-10 -2.819086897e-10 -2.325308799e-10)
5(-3.02218161e-10 -3.422166743e-10 -3.466301622e-10 -3.089444248e-10 -2.381375548e-10)
5(-3.641721063e-10 -3.931047738e-10 -3.807750782e-10 -3.203899531e-10 -2.285072679e-10)
5(-4.204041316e-10 -4.317006613e-10 -3.970916484e-10 -3.119488465e-10 -2.043259577e-10)
5(-4.624635365e-10 -4.474734022e-10 -3.87013772e-10 -2.805181561e-10 -1.68892514e-10)
5(-4.826275025e-10 -4.370506358e-10 -3.540878394e-10 -2.32043647e-10 -1.278160194e-10)
5(-4.741455189e-10 -3.972007027e-10 -2.978038036e-10 -1.749703498e-10 -8.719525925e-11)
5(-4.321144776e-10 -3.336802516e-10 -2.257645581e-10 -1.187970569e-10 -5.32175234e-11)
5(-3.608453455e-10 -2.54301993e-10 -1.526948136e-10 -7.185813136e-11 -2.859943979e-11)
5(-2.740769572e-10 -1.720503289e-10 -9.063661906e-11 -3.836289323e-11 -1.369668009e-11)
5(-1.83964553e-10 -1.015808632e-10 -4.678810223e-11 -1.784020537e-11 -6.092258682e-12)
5(-1.071262051e-10 -5.108078087e-11 -2.085374511e-11 -7.623436592e-12 -2.824943507e-12)
5(-5.196679132e-11 -2.161348952e-11 -8.259417888e-12 -3.289648844e-12 -1.672021521e-12)
5(-2.066346138e-11 -8.056248781e-12 -3.416505242e-12 -1.810956983e-12 -1.28502569e-12)
5(-6.990981641e-12 -3.174606058e-12 -1.873169489e-12 -1.348453127e-12 -1.16213273e-12)
5(-2.711477098e-12 -1.785144226e-12 -1.431264302e-12 -1.197604773e-12 -1.117769393e-12)
5(-1.606444635e-12 -1.381835636e-12 -1.251226839e-12 -1.128411315e-12 -1.113701981e-12)
5(-1.245416832e-12 -1.182747338e-12 -1.135951758e-12 -1.092939507e-12 -1.137100121e-12)
5(-1.014108648e-12 -1.029555037e-12 -1.047161114e-12 -1.083084816e-12 -1.189961923e-12)
5(-8.301810874e-13 -8.924371006e-13 -9.757956435e-13 -1.105261609e-12 -1.27798157e-12)
5(-6.76501326e-13 -8.09164989e-13 -9.619504168e-13 -1.163334284e-12 -1.396515507e-12)
)


60
(
5(-6.512214823e-15 -7.877915079e-15 -2.635470555e-14 -5.716077202e-14 -2.11759034e-13)
5(-7.990340116e-15 -1.213295264e-14 -2.602146193e-14 -6.169650716e-14 -1.765489432e-13)
5(-1.019764891e-14 -1.813882205e-14 -3.225611301e-14 -7.992956859e-14 -1.946611678e-13)
5(-1.389040742e-14 -2.665841197e-14 -4.733885864e-14 -1.157357596e-13 -2.679146887e-13)
5(-2.02516108e-14 -3.943787207e-14 -7.386738749e-14 -1.736158125e-13 -4.03843934e-13)
5(-3.038735675e-14 -5.829682763e-14 -1.134062237e-13 -2.55983257e-13 -6.01768991e-13)
5(-4.425124685e-14 -8.442453936e-14 -1.657404072e-13 -3.632846081e-13 -8.37690479e-13)
5(-6.256101804e-14 -1.198674746e-13 -2.324509181e-13 -4.980155651e-13 -1.110619567e-12)
5(-8.741240791e-14 -1.673997357e-13 -3.181851636e-13 -6.671489394e-13 -1.44176689e-12)
5(-1.221377693e-13 -2.307538181e-13 -4.305171648e-13 -8.802044686e-13 -1.843637609e-12)
5(-1.685812177e-13 -3.139377369e-13 -5.756677265e-13 -1.143482324e-12 -2.332799772e-12)
5(-2.315939538e-13 -4.215352783e-13 -7.598010054e-13 -1.46054141e-12 -2.894033586e-12)
5(-3.14670915e-13 -5.58811141e-13 -9.87565038e-13 -1.83292099e-12 -3.517212073e-12)
5(-4.201915302e-13 -7.319447976e-13 -1.262568473e-12 -2.262700037e-12 -4.201054269e-12)
5(-5.577287047e-13 -9.479885835e-13 -1.59214827e-12 -2.750888003e-12 -4.91291459e-12)
5(-7.354698081e-13 -1.214663737e-12 -1.983601236e-12 -3.29940002e-12 -5.6646844e-12)
5(-9.64500105e-13 -1.543829355e-12 -2.445923431e-12 -3.908526944e-12 -6.435916565e-12)
5(-1.246406999e-12 -1.94652351e-12 -2.987083794e-12 -4.579317949e-12 -7.220594242e-12)
5(-1.61641175e-12 -2.432287498e-12 -3.612343412e-12 -5.318096359e-12 -8.03064992e-12)
5(-2.057924379e-12 -3.019199973e-12 -4.335807251e-12 -6.123807558e-12 -8.845608494e-12)
5(-2.618300873e-12 -3.725739861e-12 -5.166287622e-12 -7.00767973e-12 -9.685569277e-12)
5(-3.338879123e-12 -4.561728714e-12 -6.121302504e-12 -7.989356257e-12 -1.062619304e-11)
5(-4.202052927e-12 -5.558878824e-12 -7.233652645e-12 -9.090666723e-12 -1.162772872e-11)
5(-5.189192834e-12 -6.744009058e-12 -8.527317442e-12 -1.034975947e-11 -1.279146327e-11)
5(-6.445326454e-12 -8.150213185e-12 -1.002821003e-11 -1.183238912e-11 -1.412114607e-11)
5(-7.946801114e-12 -9.804378234e-12 -1.180585771e-11 -1.360809668e-11 -1.582055813e-11)
5(-9.744038017e-12 -1.177009582e-11 -1.39497302e-11 -1.579268566e-11 -1.798970596e-11)
5(-1.188215566e-11 -1.413506085e-11 -1.656313463e-11 -1.853856622e-11 -2.076609472e-11)
5(-1.445825307e-11 -1.702351888e-11 -1.982526682e-11 -2.208200131e-11 -2.453366627e-11)
5(-1.75778515e-11 -2.060313355e-11 -2.400385459e-11 -2.674368271e-11 -2.951578997e-11)
5(-2.135394422e-11 -2.511717907e-11 -2.944597271e-11 -3.298453593e-11 -3.646120981e-11)
5(-2.60800828e-11 -3.094487973e-11 -3.668090042e-11 -4.142510824e-11 -4.578893189e-11)
5(-3.206534604e-11 -3.859244465e-11 -4.63493353e-11 -5.28841916e-11 -5.836209039e-11)
5(-3.975641404e-11 -4.879688847e-11 -5.935331572e-11 -6.811521692e-11 -7.495880996e-11)
5(-4.981733628e-11 -6.23767459e-11 -7.669619012e-11 -8.841236347e-11 -9.6880567e-11)
5(-6.29491435e-11 -8.049599349e-11 -9.951130398e-11 -1.147761409e-10 -1.237766196e-10)
5(-8.020395288e-11 -1.041726466e-10 -1.291088975e-10 -1.47901903e-10 -1.568485621e-10)
5(-1.032372106e-10 -1.348953219e-10 -1.661853265e-10 -1.879994007e-10 -1.950482286e-10)
5(-1.325153249e-10 -1.736869736e-10 -2.112538746e-10 -2.341703649e-10 -2.35743637e-10)
5(-1.692858702e-10 -2.202802808e-10 -2.632296777e-10 -2.839272302e-10 -2.756171182e-10)
5(-2.146865503e-10 -2.751214914e-10 -3.19390793e-10 -3.328451331e-10 -3.079175359e-10)
5(-2.672041444e-10 -3.337907764e-10 -3.740048022e-10 -3.740814287e-10 -3.276496702e-10)
5(-3.254979698e-10 -3.920383606e-10 -4.2045511e-10 -3.996499389e-10 -3.275670736e-10)
5(-3.840372316e-10 -4.423293911e-10 -4.496597555e-10 -4.014415569e-10 -3.060766519e-10)
5(-4.371773564e-10 -4.740427267e-10 -4.530798376e-10 -3.756319989e-10 -2.641538164e-10)
5(-4.741747736e-10 -4.78834747e-10 -4.251620484e-10 -3.235588701e-10 -2.073291898e-10)
5(-4.848227762e-10 -4.509050038e-10 -3.664997113e-10 -2.538525965e-10 -1.471370797e-10)
5(-4.641314053e-10 -3.913764634e-10 -2.861833692e-10 -1.785807716e-10 -9.252098043e-11)
5(-4.079115487e-10 -3.070070529e-10 -1.984639157e-10 -1.11138179e-10 -5.168680398e-11)
5(-3.251463457e-10 -2.134816202e-10 -1.194726243e-10 -6.023044744e-11 -2.559174276e-11)
5(-2.298174008e-10 -1.282448999e-10 -6.236644364e-11 -2.888773457e-11 -1.177147843e-11)
5(-1.399288642e-10 -6.453717395e-11 -2.811124731e-11 -1.249123539e-11 -5.629878474e-12)
5(-6.959738336e-11 -2.757540783e-11 -1.153017257e-11 -5.785862088e-12 -3.441542425e-12)
5(-2.836966677e-11 -1.065014026e-11 -5.250439819e-12 -3.486350381e-12 -2.710922395e-12)
5(-1.035714633e-11 -4.802771931e-12 -3.379975246e-12 -2.76793899e-12 -2.449071335e-12)
5(-4.383179196e-12 -3.217934482e-12 -2.813182261e-12 -2.494467448e-12 -2.329234884e-12)
5(-2.969717431e-12 -2.716944077e-12 -2.516454211e-12 -2.333371716e-12 -2.266614998e-12)
5(-2.505088227e-12 -2.393801757e-12 -2.290642669e-12 -2.221903676e-12 -2.249969082e-12)
5(-2.140378785e-12 -2.207704123e-12 -2.115930092e-12 -2.219584949e-12 -2.28142405e-12)
5(-1.829195549e-12 -1.962233197e-12 -1.978311711e-12 -2.375317697e-12 -2.647382177e-12)
)


60
(
5(-9.781093156e-15 -1.300407202e-14 -4.355789332e-14 -1.028139832e-13 -3.468158798e-13)
5(-1.310910672e-14 -2.111274659e-14 -4.729108633e-14 -1.169903491e-13 -3.30418676e-13)
5(-1.774643267e-14 -3.23200431e-14 -6.140557959e-14 -1.528080294e-13 -3.815774441e-13)
5(-2.468570689e-14 -4.772836908e-14 -8.987556332e-14 -2.162738153e-13 -5.090375367e-13)
5(-3.609949234e-14 -7.02403794e-14 -1.366046045e-13 -3.126626167e-13 -7.274228921e-13)
5(-5.376952788e-14 -1.029821451e-13 -2.031815556e-13 -4.452734498e-13 -1.025319265e-12)
5(-7.806123645e-14 -1.476192686e-13 -2.902349223e-13 -6.146039736e-13 -1.38075185e-12)
5(-1.103173922e-13 -2.075996921e-13 -4.008425497e-13 -8.257161843e-13 -1.786275466e-12)
5(-1.539202554e-13 -2.868922145e-13 -5.408364373e-13 -1.086335208e-12 -2.269698415e-12)
5(-2.130741634e-13 -3.910422265e-13 -7.208199147e-13 -1.407333791e-12 -2.846812307e-12)
5(-2.924112186e-13 -5.265940632e-13 -9.500285644e-13 -1.796594355e-12 -3.530700178e-12)
5(-3.986242386e-13 -7.002456873e-13 -1.236391618e-12 -2.259847312e-12 -4.294119176e-12)
5(-5.359595961e-13 -9.207077024e-13 -1.586061798e-12 -2.79986603e-12 -5.143314989e-12)
5(-7.181200263e-13 -1.196477643e-12 -2.007313913e-12 -3.419609706e-12 -6.047707047e-12)
5(-9.423880799e-13 -1.538926229e-12 -2.509270607e-12 -4.122334714e-12 -7.014737838e-12)
5(-1.227741139e-12 -1.959731712e-12 -3.104258417e-12 -4.91240314e-12 -8.028203921e-12)
5(-1.604617078e-12 -2.476855647e-12 -3.803615313e-12 -5.792357276e-12 -9.081431923e-12)
5(-2.069290422e-12 -3.107161429e-12 -4.619892801e-12 -6.763111289e-12 -1.015131533e-11)
5(-2.652841813e-12 -3.86852821e-12 -5.567228106e-12 -7.832623135e-12 -1.126171e-11)
5(-3.381442338e-12 -4.786355277e-12 -6.662401732e-12 -9.007449652e-12 -1.242196794e-11)
5(-4.276599189e-12 -5.879263732e-12 -7.920605081e-12 -1.030374145e-11 -1.363434366e-11)
5(-5.371907903e-12 -7.172778096e-12 -9.363525012e-12 -1.17279746e-11 -1.494451618e-11)
5(-6.704095073e-12 -8.69448884e-12 -1.100765026e-11 -1.330820049e-11 -1.632747385e-11)
5(-8.314427886e-12 -1.04758983e-11 -1.287450944e-11 -1.506571795e-11 -1.791610146e-11)
5(-1.022979535e-11 -1.2537864e-11 -1.499404828e-11 -1.704111338e-11 -1.964099778e-11)
5(-1.243363548e-11 -1.489746086e-11 -1.740487489e-11 -1.926805344e-11 -2.169416269e-11)
5(-1.500740736e-11 -1.752072382e-11 -2.01308489e-11 -2.184266109e-11 -2.409206964e-11)
5(-1.798526917e-11 -2.052578522e-11 -2.322370716e-11 -2.481388288e-11 -2.697834998e-11)
5(-2.142267299e-11 -2.391642915e-11 -2.676014292e-11 -2.835799698e-11 -3.062106623e-11)
5(-2.516040341e-11 -2.775945029e-11 -3.08836515e-11 -3.263885214e-11 -3.517671428e-11)
5(-2.944264108e-11 -3.214751647e-11 -3.583052631e-11 -3.798707729e-11 -4.127883449e-11)
5(-3.41957991e-11 -3.716861896e-11 -4.1820945e-11 -4.491380536e-11 -4.950206662e-11)
5(-3.9477297e-11 -4.321000326e-11 -4.938270976e-11 -5.395506752e-11 -6.002069043e-11)
5(-4.552367807e-11 -5.068020044e-11 -5.91937956e-11 -6.608948065e-11 -7.433437337e-11)
5(-5.279467e-11 -6.007147869e-11 -7.19584107e-11 -8.225695487e-11 -9.353000756e-11)
5(-6.161990462e-11 -7.232849487e-11 -8.902576092e-11 -1.037291179e-10 -1.184112347e-10)
5(-7.238037407e-11 -8.854801019e-11 -1.118582855e-10 -1.319402545e-10 -1.502165797e-10)
5(-8.703446196e-11 -1.101788439e-10 -1.419200495e-10 -1.683449391e-10 -1.897806803e-10)
5(-1.05829143e-10 -1.390305552e-10 -1.808627403e-10 -2.133875537e-10 -2.362743695e-10)
5(-1.313359006e-10 -1.767250415e-10 -2.287787235e-10 -2.666091701e-10 -2.867090943e-10)
5(-1.652256459e-10 -2.246160605e-10 -2.857821707e-10 -3.258372772e-10 -3.374654695e-10)
5(-2.083427063e-10 -2.818872706e-10 -3.495401326e-10 -3.855027086e-10 -3.817134475e-10)
5(-2.626847318e-10 -3.475841721e-10 -4.141486729e-10 -4.378129033e-10 -4.097035243e-10)
5(-3.26636107e-10 -4.162532824e-10 -4.716406483e-10 -4.728802838e-10 -4.158303836e-10)
5(-3.961888274e-10 -4.794400733e-10 -5.102354885e-10 -4.804483838e-10 -3.94223223e-10)
5(-4.642638113e-10 -5.263828195e-10 -5.213227551e-10 -4.550703758e-10 -3.460885533e-10)
5(-5.219376356e-10 -5.444005006e-10 -4.94797508e-10 -3.9767228e-10 -2.769322357e-10)
5(-5.552331515e-10 -5.263626772e-10 -4.30026164e-10 -3.160081462e-10 -1.99726747e-10)
5(-5.509668591e-10 -4.674970681e-10 -3.379472865e-10 -2.245698177e-10 -1.279635087e-10)
5(-5.052969019e-10 -3.748030163e-10 -2.355897324e-10 -1.414178948e-10 -7.186473501e-11)
5(-4.20260711e-10 -2.654718923e-10 -1.428855579e-10 -7.725242052e-11 -3.602990683e-11)
5(-3.116271063e-10 -1.61346407e-10 -7.404388063e-11 -3.709565126e-11 -1.704534508e-11)
5(-1.993577491e-10 -8.412188544e-11 -3.310398074e-11 -1.628978857e-11 -8.396295408e-12)
5(-1.062302172e-10 -3.710672144e-11 -1.388454425e-11 -7.995383954e-12 -5.454497926e-12)
5(-4.496275985e-11 -1.454195159e-11 -7.09700576e-12 -5.29565521e-12 -4.45738763e-12)
5(-1.793734607e-11 -7.02741995e-12 -5.151959552e-12 -4.490716081e-12 -4.089806132e-12)
5(-7.39111537e-12 -5.059283828e-12 -4.512210165e-12 -4.127466247e-12 -3.891550336e-12)
5(-4.803041352e-12 -4.433045672e-12 -4.121238117e-12 -3.877434945e-12 -3.76845045e-12)
5(-4.108799738e-12 -4.074225937e-12 -3.818051173e-12 -3.751278523e-12 -3.730324773e-12)
5(-3.65127674e-12 -3.758428836e-12 -3.900548673e-12 -3.868057151e-12 -4.167190751e-12)
)


60
(
5(-1.386111101e-14 -1.994183901e-14 -6.577898426e-14 -1.623502785e-13 -5.030645661e-13)
5(-1.99210297e-14 -3.332120325e-14 -7.619941532e-14 -1.902503451e-13 -5.204657335e-13)
5(-2.759285174e-14 -5.129009962e-14 -1.011225837e-13 -2.467406776e-13 -6.095009464e-13)
5(-3.902379964e-14 -7.53637776e-14 -1.462069563e-13 -3.407545123e-13 -8.029510346e-13)
5(-5.71537058e-14 -1.09700878e-13 -2.160536868e-13 -4.785047232e-13 -1.098248164e-12)
5(-8.420382238e-14 -1.588294415e-13 -3.13080743e-13 -6.634847509e-13 -1.484425853e-12)
5(-1.215399141e-13 -2.25135915e-13 -4.384415982e-13 -8.953236094e-13 -1.948337768e-12)
5(-1.709026761e-13 -3.135005246e-13 -5.966058305e-13 -1.18132646e-12 -2.470214227e-12)
5(-2.373312762e-13 -4.294129687e-13 -7.954383035e-13 -1.531465048e-12 -3.087085773e-12)
5(-3.255590446e-13 -5.800862129e-13 -1.048365e-12 -1.957533921e-12 -3.813144187e-12)
5(-4.456262138e-13 -7.741885611e-13 -1.366261541e-12 -2.469747569e-12 -4.655441437e-12)
5(-5.98555149e-13 -1.021198849e-12 -1.759512664e-12 -3.074720691e-12 -5.598056276e-12)
5(-8.020162755e-13 -1.332382576e-12 -2.237083397e-12 -3.778456515e-12 -6.640290496e-12)
5(-1.060216372e-12 -1.72021891e-12 -2.811246463e-12 -4.587202206e-12 -7.747313613e-12)
5(-1.396727459e-12 -2.202371002e-12 -3.49725191e-12 -5.507328656e-12 -8.966143085e-12)
5(-1.816867817e-12 -2.796762989e-12 -4.311122946e-12 -6.544553055e-12 -1.022603774e-11)
5(-2.344247834e-12 -3.523579481e-12 -5.269862396e-12 -7.708265175e-12 -1.158929865e-11)
5(-3.024298285e-12 -4.409460211e-12 -6.392437205e-12 -9.011047964e-12 -1.299361165e-11)
5(-3.843524557e-12 -5.482244803e-12 -7.705156903e-12 -1.046233374e-11 -1.448797153e-11)
5(-4.906732555e-12 -6.770940206e-12 -9.228472937e-12 -1.20787456e-11 -1.606365251e-11)
5(-6.201225151e-12 -8.310056103e-12 -1.098713723e-11 -1.387356918e-11 -1.774080357e-11)
5(-7.700257706e-12 -1.013314504e-11 -1.300127745e-11 -1.586119803e-11 -1.954889667e-11)
5(-9.60699061e-12 -1.227182894e-11 -1.530217718e-11 -1.806005061e-11 -2.150777112e-11)
5(-1.193940931e-11 -1.47521766e-11 -1.789764892e-11 -2.049965665e-11 -2.365066377e-11)
5(-1.45704466e-11 -1.758363257e-11 -2.082133945e-11 -2.319253819e-11 -2.609561052e-11)
5(-1.768527768e-11 -2.080002007e-11 -2.408983702e-11 -2.614713996e-11 -2.867592047e-11)
5(-2.130228055e-11 -2.442022312e-11 -2.767124488e-11 -2.939194286e-11 -3.157954975e-11)
5(-2.535618499e-11 -2.840703031e-11 -3.158653457e-11 -3.29552345e-11 -3.495325383e-11)
5(-2.976499383e-11 -3.269864616e-11 -3.582238097e-11 -3.686998582e-11 -3.872494865e-11)
5(-3.465098459e-11 -3.729562687e-11 -4.042860084e-11 -4.123567479e-11 -4.318680118e-11)
5(-3.998787319e-11 -4.220809312e-11 -4.542158222e-11 -4.62183374e-11 -4.86626545e-11)
5(-4.546973508e-11 -4.736498284e-11 -5.092566094e-11 -5.200094652e-11 -5.548006822e-11)
5(-5.105534784e-11 -5.283584702e-11 -5.717730973e-11 -5.905330416e-11 -6.411243212e-11)
5(-5.662310805e-11 -5.860427436e-11 -6.447246677e-11 -6.814399324e-11 -7.60384493e-11)
5(-6.247447761e-11 -6.504813103e-11 -7.345154859e-11 -7.998875988e-11 -9.126759847e-11)
5(-6.872141711e-11 -7.279236454e-11 -8.517335541e-11 -9.59259081e-11 -1.123828731e-10)
5(-7.531279356e-11 -8.286805728e-11 -1.00959414e-10 -1.178330239e-10 -1.399229607e-10)
5(-8.313460631e-11 -9.637306614e-11 -1.226748114e-10 -1.471547444e-10 -1.758283164e-10)
5(-9.34760955e-11 -1.151264687e-10 -1.521185572e-10 -1.860281161e-10 -2.21806633e-10)
5(-1.084098076e-10 -1.414587132e-10 -1.916652554e-10 -2.357021039e-10 -2.761203534e-10)
5(-1.291651811e-10 -1.779362262e-10 -2.429222303e-10 -2.961216463e-10 -3.353983296e-10)
5(-1.604325597e-10 -2.268904177e-10 -3.064308844e-10 -3.644597131e-10 -3.980874649e-10)
5(-2.031136083e-10 -2.89469304e-10 -3.795296655e-10 -4.353785834e-10 -4.519066654e-10)
5(-2.606632509e-10 -3.64713963e-10 -4.569642244e-10 -4.999367083e-10 -4.893646308e-10)
5(-3.33398056e-10 -4.479038119e-10 -5.280474119e-10 -5.449259302e-10 -4.996849286e-10)
5(-4.179216028e-10 -5.30453151e-10 -5.814935073e-10 -5.586542789e-10 -4.779310554e-10)
5(-5.034593358e-10 -5.986730827e-10 -6.01792251e-10 -5.329767325e-10 -4.210226797e-10)
5(-5.879653625e-10 -6.363011884e-10 -5.770702312e-10 -4.68482572e-10 -3.390906376e-10)
5(-6.473760392e-10 -6.309370828e-10 -5.081547616e-10 -3.736996299e-10 -2.4454044e-10)
5(-6.63955084e-10 -5.752134785e-10 -4.042403077e-10 -2.658949184e-10 -1.561621462e-10)
5(-6.327486197e-10 -4.748904532e-10 -2.840290179e-10 -1.660520649e-10 -8.759076635e-11)
5(-5.486584195e-10 -3.511585194e-10 -1.728188857e-10 -8.992654477e-11 -4.405540062e-11)
5(-4.232977694e-10 -2.214675434e-10 -9.082614581e-11 -4.20528943e-11 -2.060876413e-11)
5(-2.906898786e-10 -1.197800373e-10 -4.039557068e-11 -1.915797565e-11 -1.093320758e-11)
5(-1.640155875e-10 -5.473966105e-11 -1.725515122e-11 -1.01279059e-11 -7.548941881e-12)
5(-8.402126685e-11 -2.2301635e-11 -9.292903587e-12 -7.435126719e-12 -6.558554066e-12)
5(-3.43061782e-11 -1.100257729e-11 -7.452881869e-12 -6.636505777e-12 -6.124798748e-12)
5(-1.448797007e-11 -7.480863782e-12 -6.757592537e-12 -6.232800965e-12 -5.885424779e-12)
5(-8.074311612e-12 -6.557945442e-12 -6.317686613e-12 -5.915644159e-12 -5.774143085e-12)
5(-8.065373352e-12 -6.288798607e-12 -6.682858593e-12 -6.13479596e-12 -6.229253375e-12)
)


60
(
5(-1.878414761e-14 -2.871008228e-14 -9.304952702e-14 -2.33735869e-13 -6.762252995e-13)
5(-2.837411952e-14 -4.885294388e-14 -1.124705012e-13 -2.800155257e-13 -7.363195305e-13)
5(-4.017583509e-14 -7.522239902e-14 -1.506617095e-13 -3.597256736e-13 -8.701992073e-13)
5(-5.712107449e-14 -1.09566177e-13 -2.15073816e-13 -4.85425567e-13 -1.114811479e-12)
5(-8.354553083e-14 -1.5772464e-13 -3.109166488e-13 -6.638976747e-13 -1.483742125e-12)
5(-1.218331128e-13 -2.257217221e-13 -4.402036745e-13 -8.995302223e-13 -1.951481674e-12)
5(-1.746058695e-13 -3.1653508e-13 -6.059373199e-13 -1.192825059e-12 -2.496896478e-12)
5(-2.448814334e-13 -4.365917474e-13 -8.141408162e-13 -1.552332882e-12 -3.127245788e-12)
5(-3.363922827e-13 -5.93341584e-13 -1.074348579e-12 -1.987480324e-12 -3.854254931e-12)
5(-4.617504853e-13 -7.949915479e-13 -1.402291535e-12 -2.514764137e-12 -4.721380535e-12)
5(-6.232666203e-13 -1.052420096e-12 -1.810698707e-12 -3.142648913e-12 -5.693021566e-12)
5(-8.350819095e-13 -1.377781369e-12 -2.313207239e-12 -3.883755401e-12 -6.795767121e-12)
5(-1.111812448e-12 -1.786028249e-12 -2.922890074e-12 -4.744330563e-12 -7.998788225e-12)
5(-1.462455309e-12 -2.296260349e-12 -3.654881169e-12 -5.736807385e-12 -9.329661588e-12)
5(-1.916422213e-12 -2.928879131e-12 -4.529554628e-12 -6.872513149e-12 -1.07570147e-11)
5(-2.485495311e-12 -3.707480953e-12 -5.570758358e-12 -8.162902942e-12 -1.23077517e-11)
5(-3.20053048e-12 -4.660158897e-12 -6.80730384e-12 -9.625952615e-12 -1.397168699e-11)
5(-4.087337477e-12 -5.823014623e-12 -8.26243851e-12 -1.1287301e-11 -1.577041908e-11)
5(-5.242651918e-12 -7.237385064e-12 -9.972751195e-12 -1.3162868e-11 -1.767289091e-11)
5(-6.60645907e-12 -8.933743566e-12 -1.195863655e-11 -1.527257873e-11 -1.977777581e-11)
5(-8.327891689e-12 -1.096152087e-11 -1.42665289e-11 -1.763883059e-11 -2.19938192e-11)
5(-1.045565052e-11 -1.337722981e-11 -1.69342291e-11 -2.028128445e-11 -2.446373886e-11)
5(-1.290219377e-11 -1.621212382e-11 -1.998867475e-11 -2.322352799e-11 -2.714094573e-11)
5(-1.601173529e-11 -1.94948349e-11 -2.345216617e-11 -2.64917304e-11 -3.006504464e-11)
5(-1.953577091e-11 -2.326974194e-11 -2.734793605e-11 -3.009073819e-11 -3.332207587e-11)
5(-2.361813098e-11 -2.750873208e-11 -3.163990453e-11 -3.402917438e-11 -3.669405072e-11)
5(-2.853448415e-11 -3.232537308e-11 -3.635329312e-11 -3.827253901e-11 -4.058263416e-11)
5(-3.389050917e-11 -3.75893045e-11 -4.147834137e-11 -4.278805158e-11 -4.467390058e-11)
5(-3.948974854e-11 -4.320164046e-11 -4.684854909e-11 -4.755337777e-11 -4.895301757e-11)
5(-4.606062715e-11 -4.910820942e-11 -5.245763648e-11 -5.259658959e-11 -5.383387792e-11)
5(-5.285833256e-11 -5.524329517e-11 -5.821411891e-11 -5.777262163e-11 -5.925027025e-11)
5(-5.965027961e-11 -6.142438908e-11 -6.407075523e-11 -6.319422713e-11 -6.50133019e-11)
5(-6.628307753e-11 -6.74085138e-11 -6.995208017e-11 -6.915695361e-11 -7.231120326e-11)