/*--------------------------------*- C++ -*----------------------------------*\
| =========                 |                                                 |
| \\      /  F ield         | OpenFOAM: The Open Source CFD Toolbox           |
|  \\    /   O peration     | Version:  2.3.1                                 |
|   \\  /    A nd           | Web:      www.OpenFOAM.org                      |
|    \\/     M anipulation  |                                                 |
\*---------------------------------------------------------------------------*/
FoamFile
{
    version     2.0;
    format      ascii;
    class       dictionary;
    location    "constant";
    object      DPSI42;
}
// * * * * * * * * * * * * * * * * * * * * * * * * * * * * * * * * * * * * * //

DPSI42_table
60
(

60
(
5(5.643014599e-08 -1.790000664e-07 -2.189501248e-07 -3.358041246e-07 -6.446392469e-07)
5(7.929942576e-08 -9.024900013e-08 -1.583603489e-07 -1.752943138e-07 -2.89247307e-07)
5(-9.602577866e-08 -9.449807018e-08 -5.785083205e-08 9.201123654e-08 1.966906044e-07)
5(-1.104843923e-07 -1.089192373e-07 5.275330162e-09 -1.405529587e-07 -3.90095386e-07)
5(-1.119904485e-07 -1.162225639e-07 -6.196875982e-08 -7.452527414e-08 -1.312627861e-07)
5(-2.501728733e-08 -1.812032832e-08 -7.363264353e-08 -9.160100412e-08 -4.054349202e-08)
5(-6.485046155e-09 -2.627196321e-08 -4.98280269e-08 -1.795370217e-07 -3.038423505e-07)
5(-4.903681253e-08 -7.991001636e-08 -6.913275867e-08 -1.110461271e-08 8.575181522e-09)
5(-2.238040588e-09 -4.105549746e-08 -7.366427743e-08 -8.123974091e-08 -9.152095829e-08)
5(-2.711047259e-09 -5.750909678e-08 -6.370793721e-08 -7.824197051e-08 -1.389922262e-07)
5(5.554353188e-09 -5.318644136e-08 -6.929736127e-08 -8.610500759e-08 -1.435663541e-07)
5(-2.20878089e-08 -5.65218298e-08 -7.373901006e-08 -8.638402143e-08 -1.134204597e-07)
5(-6.083095859e-08 -7.318373699e-08 -8.63499754e-08 -1.058446616e-07 -1.204229957e-07)
5(-5.279630414e-08 -7.164035109e-08 -7.263880366e-08 -9.456934584e-08 -1.31420902e-07)
5(-5.952796677e-08 -7.472969225e-08 -8.762300352e-08 -1.009496716e-07 -1.132287876e-07)
5(-6.082255802e-08 -7.834082246e-08 -8.97309914e-08 -1.024841336e-07 -1.183177359e-07)
5(-6.08597194e-08 -8.191964791e-08 -9.465859183e-08 -1.158577573e-07 -1.425722185e-07)
5(-6.500851208e-08 -8.570573144e-08 -1.052655815e-07 -1.255020526e-07 -1.439547398e-07)
5(-7.116435614e-08 -9.155014045e-08 -1.081336686e-07 -1.317768187e-07 -1.564237273e-07)
5(-7.824582648e-08 -9.81761521e-08 -1.217232736e-07 -1.289140019e-07 -1.293509717e-07)
5(-7.646478065e-08 -9.738683487e-08 -1.272559264e-07 -1.38179549e-07 -1.371391631e-07)
5(-7.880229179e-08 -1.05221403e-07 -1.070431952e-07 -1.177766501e-07 -1.511641659e-07)
5(-8.147035753e-08 -1.058950856e-07 -1.28492918e-07 -1.483914136e-07 -1.677412716e-07)
5(-1.013697644e-07 -1.147374039e-07 -1.298911275e-07 -1.507426335e-07 -1.670903695e-07)
5(-1.070735071e-07 -1.238959728e-07 -1.461872867e-07 -1.655810111e-07 -1.767143972e-07)
5(-1.156892592e-07 -1.421494408e-07 -1.693272953e-07 -1.638158792e-07 -1.54689327e-07)
5(-1.155495206e-07 -1.41681171e-07 -1.902720486e-07 -1.857429183e-07 -1.554474368e-07)
5(-1.249652872e-07 -1.609717576e-07 -2.080810174e-07 -1.879416005e-07 -1.535272713e-07)
5(-1.327528282e-07 -1.618183526e-07 -2.114082874e-07 -2.09276065e-07 -1.83403474e-07)
5(-1.544317387e-07 -1.706125284e-07 -2.019242466e-07 -2.13616224e-07 -2.07022918e-07)
5(-1.693598433e-07 -1.900507773e-07 -2.25022674e-07 -2.198643309e-07 -1.970518286e-07)
5(-1.767074215e-07 -1.922718691e-07 -2.12698463e-07 -1.685263385e-07 -1.160603295e-07)
5(-2.01135109e-07 -2.141552623e-07 -2.209845078e-07 -2.367778701e-07 -2.559426507e-07)
5(-2.258227508e-07 -2.41312941e-07 -2.141888477e-07 -1.368691102e-07 -9.904915187e-08)
5(-2.313994012e-07 -2.464162553e-07 -2.217542299e-07 -1.355377095e-07 -8.584561274e-08)
5(-2.796177654e-07 -3.030514131e-07 -2.156921527e-07 -8.155829792e-08 -5.558140838e-08)
5(-2.400756682e-07 -2.393085812e-07 -2.007103163e-07 -1.603149828e-07 -1.551080871e-07)
5(-2.884761074e-07 -2.457407638e-07 -1.985394364e-07 6.83103009e-08 3.362132828e-07)
5(-2.75064814e-07 -2.660596099e-07 -1.710792656e-07 -9.568946233e-08 -1.039781832e-07)
5(-2.524521783e-07 -2.843086231e-07 -1.716300138e-07 8.044796494e-07 1.636859498e-06)
5(-1.991996799e-07 -2.14729176e-07 -1.413867176e-07 7.655604164e-07 1.5863697e-06)
5(-2.041492194e-07 -1.91785104e-07 1.399224437e-07 7.984706954e-07 1.139582423e-06)
5(-1.092053251e-07 -1.298420672e-07 7.251362318e-07 7.700305447e-07 -6.692640376e-08)
5(-1.218858105e-07 -3.075041115e-07 7.811691204e-07 9.531790694e-07 -1.596532474e-07)
5(-1.995438325e-08 -2.016079692e-07 7.702728733e-07 9.012092666e-07 -1.340354942e-07)
5(-1.080409542e-07 -6.691308808e-08 7.912151764e-07 7.286882095e-07 -1.605323446e-07)
5(-1.149876971e-08 5.410703099e-07 7.05589169e-07 5.633029185e-08 -2.039149773e-07)
5(3.856562603e-07 7.15534482e-07 4.362586123e-07 -2.262021053e-07 -2.777507686e-07)
5(3.040523886e-07 7.069659987e-07 4.119663566e-07 -3.263700137e-07 -3.627562748e-07)
5(1.460192405e-06 6.289600913e-07 -2.943732529e-07 -4.199559427e-07 -4.665674459e-07)
5(1.243980608e-06 4.765573351e-07 -3.907079581e-07 -5.346340297e-07 -5.924732384e-07)
5(1.595283388e-07 -1.114418026e-07 -4.945081512e-07 -6.739417244e-07 -7.471021304e-07)
5(-3.010737203e-07 -3.953389138e-07 -6.210107065e-07 -8.427928852e-07 -9.339421674e-07)
5(-4.48113938e-07 -5.338649071e-07 -7.740200907e-07 -1.048058426e-06 -1.168156308e-06)
5(-5.546646686e-07 -6.651313959e-07 -9.599107349e-07 -1.291283517e-06 -1.439315793e-06)
5(-6.118158673e-07 -7.871665792e-07 -1.175540441e-06 -1.575476042e-06 -1.765649697e-06)
5(-5.793669931e-07 -8.812420369e-07 -1.426506674e-06 -1.882556372e-06 -2.102178533e-06)
5(-7.664848191e-07 -1.05197916e-06 -1.646348151e-06 -2.207315433e-06 -2.465850802e-06)
5(-1.11683131e-06 -1.411707394e-06 -1.537933885e-06 -2.434699901e-06 -3.531045967e-06)
5(-1.69901363e-06 -2.077991325e-06 -3.100727503e-06 -3.653148791e-06 -3.553747403e-06)
)


60
(
5(-5.016549599e-08 -2.843298481e-07 -3.642542405e-07 -5.104320972e-07 -7.919184229e-07)
5(-1.296069243e-07 -2.340457497e-07 -3.069452499e-07 -4.057206303e-07 -5.07331473e-07)
5(-1.804555804e-07 -2.166331103e-07 -2.868973312e-07 -3.636510445e-07 -3.772486095e-07)
5(-2.080892528e-07 -2.306409011e-07 -3.003436785e-07 -3.752800109e-07 -3.752022524e-07)
5(-2.191083775e-07 -2.598165313e-07 -3.31232125e-07 -4.249427404e-07 -4.61769388e-07)
5(-2.231949744e-07 -2.866779833e-07 -3.641193966e-07 -4.837740596e-07 -5.658368385e-07)
5(-2.332674346e-07 -3.059839007e-07 -3.911403142e-07 -5.232814681e-07 -6.207974592e-07)
5(-2.495869308e-07 -3.220061942e-07 -4.126398443e-07 -5.467807992e-07 -6.415011554e-07)
5(-2.674282146e-07 -3.365604255e-07 -4.322500387e-07 -5.675977888e-07 -6.560439531e-07)
5(-2.842653931e-07 -3.525489867e-07 -4.539740033e-07 -5.945218827e-07 -6.823865085e-07)
5(-3.008184899e-07 -3.713962617e-07 -4.77684072e-07 -6.262779064e-07 -7.204986453e-07)
5(-3.162553387e-07 -3.917877939e-07 -5.024379668e-07 -6.591206498e-07 -7.631429358e-07)
5(-3.328371972e-07 -4.124433202e-07 -5.27349061e-07 -6.89448902e-07 -7.996005442e-07)
5(-3.50649168e-07 -4.330669249e-07 -5.530503706e-07 -7.192971869e-07 -8.320084988e-07)
5(-3.693373296e-07 -4.541275077e-07 -5.785967668e-07 -7.494773848e-07 -8.653991789e-07)
5(-3.892590387e-07 -4.76592835e-07 -6.049631237e-07 -7.803170855e-07 -9.00016524e-07)
5(-4.102263365e-07 -5.006165032e-07 -6.330302342e-07 -8.125393296e-07 -9.359918722e-07)
5(-4.326478062e-07 -5.259271021e-07 -6.623184654e-07 -8.460142686e-07 -9.731249633e-07)
5(-4.56006432e-07 -5.525589923e-07 -6.9385073e-07 -8.811978886e-07 -1.010835277e-06)
5(-4.819265286e-07 -5.810758581e-07 -7.271681498e-07 -9.190185082e-07 -1.051376447e-06)
5(-5.099020826e-07 -6.117074467e-07 -7.621142699e-07 -9.572180106e-07 -1.09155909e-06)
5(-5.40368473e-07 -6.44533811e-07 -7.99253224e-07 -9.979149446e-07 -1.134138232e-06)
5(-5.73964778e-07 -6.806033149e-07 -8.379932629e-07 -1.041523868e-06 -1.182779915e-06)
5(-6.104251632e-07 -7.195953896e-07 -8.786153249e-07 -1.0858922e-06 -1.232186172e-06)
5(-6.499365355e-07 -7.615381547e-07 -9.236522077e-07 -1.133955467e-06 -1.282838584e-06)
5(-6.934062304e-07 -8.086378492e-07 -9.730633415e-07 -1.18289135e-06 -1.332864439e-06)
5(-7.395570219e-07 -8.586610709e-07 -1.026214435e-06 -1.233993158e-06 -1.382834066e-06)
5(-7.918565177e-07 -9.125455338e-07 -1.080565741e-06 -1.285015875e-06 -1.431695725e-06)
5(-8.475184635e-07 -9.705160772e-07 -1.136353133e-06 -1.338399734e-06 -1.487379842e-06)
5(-9.066487129e-07 -1.031982845e-06 -1.19436871e-06 -1.388204728e-06 -1.534893832e-06)
5(-9.689749742e-07 -1.096358899e-06 -1.25288357e-06 -1.437256782e-06 -1.582600381e-06)
5(-1.034868093e-06 -1.162525321e-06 -1.310889639e-06 -1.480337717e-06 -1.619259884e-06)
5(-1.102861719e-06 -1.230939441e-06 -1.366084933e-06 -1.515031189e-06 -1.647278606e-06)
5(-1.172442981e-06 -1.299269112e-06 -1.416345936e-06 -1.535721499e-06 -1.655326234e-06)
5(-1.241820889e-06 -1.365910155e-06 -1.458494106e-06 -1.542241248e-06 -1.648137989e-06)
5(-1.306196111e-06 -1.427624418e-06 -1.49044155e-06 -1.530930798e-06 -1.620908031e-06)
5(-1.365658043e-06 -1.482779443e-06 -1.506907835e-06 -1.505682345e-06 -1.58881051e-06)
5(-1.414490134e-06 -1.524457168e-06 -1.50760878e-06 -1.46394152e-06 -1.538919619e-06)
5(-1.446334892e-06 -1.549673005e-06 -1.49010158e-06 -1.382376723e-06 -1.429802174e-06)
5(-1.466941001e-06 -1.555106816e-06 -1.442381663e-06 -1.234800338e-06 -1.22023144e-06)
5(-1.459176043e-06 -1.53242604e-06 -1.363113122e-06 -1.005145461e-06 -8.813895289e-07)
5(-1.441103419e-06 -1.492222254e-06 -1.229466915e-06 -7.018404557e-07 -4.794353119e-07)
5(-1.369734336e-06 -1.41937126e-06 -1.03495171e-06 -3.559941637e-07 -1.035913494e-07)
5(-1.253627772e-06 -1.321376607e-06 -7.767829506e-07 -4.012900741e-09 1.60975735e-07)
5(-1.126727961e-06 -1.186017619e-06 -4.556950077e-07 3.294162643e-07 3.263727951e-07)
5(-9.873753993e-07 -9.946553315e-07 -1.066612506e-07 6.105744259e-07 4.317658522e-07)
5(-8.425971702e-07 -7.36736913e-07 2.361718466e-07 8.022031629e-07 5.000496329e-07)
5(-6.55925926e-07 -4.297941214e-07 5.310767024e-07 8.965770253e-07 5.267312965e-07)
5(-4.024973771e-07 -1.104274141e-07 7.438768009e-07 8.942362081e-07 4.816698258e-07)
5(-7.084905316e-08 1.767796012e-07 8.372399129e-07 8.027337873e-07 3.527172889e-07)
5(2.870682664e-07 3.946145385e-07 8.042820463e-07 6.343202611e-07 1.55974221e-07)
5(5.498675886e-07 4.989858501e-07 6.611326142e-07 3.930290044e-07 -9.797632617e-08)
5(6.24639401e-07 4.621044581e-07 4.401063811e-07 9.84760051e-08 -3.959709571e-07)
5(4.934768209e-07 2.856297374e-07 1.54246853e-07 -2.578900898e-07 -7.596855065e-07)
5(1.780226201e-07 -1.168163937e-08 -1.958644596e-07 -6.695460246e-07 -1.161024002e-06)
5(-2.400388891e-07 -3.8982765e-07 -6.084653015e-07 -1.146544681e-06 -1.626530094e-06)
5(-7.126469896e-07 -8.292451536e-07 -1.083815657e-06 -1.685913957e-06 -2.159369055e-06)
5(-1.2072253e-06 -1.299486188e-06 -1.615629867e-06 -2.296321785e-06 -2.761226828e-06)
5(-1.668001743e-06 -1.768434594e-06 -2.214043281e-06 -3.002882852e-06 -3.454366077e-06)
5(-2.171120505e-06 -2.084208915e-06 -2.886889281e-06 -4.042074051e-06 -4.301051447e-06)
)


60
(
5(-1.293716201e-07 -3.771235863e-07 -4.963970082e-07 -6.609329995e-07 -9.303225324e-07)
5(-2.213657784e-07 -3.477896419e-07 -4.569539471e-07 -5.893578783e-07 -7.037879266e-07)
5(-2.84951228e-07 -3.442033592e-07 -4.511714052e-07 -5.79149769e-07 -6.227012799e-07)
5(-3.223590827e-07 -3.706749574e-07 -4.790473135e-07 -6.11212061e-07 -6.479080614e-07)
5(-3.420927576e-07 -4.092458371e-07 -5.232781147e-07 -6.749238505e-07 -7.471254788e-07)
5(-3.557638697e-07 -4.457989104e-07 -5.684722942e-07 -7.452167489e-07 -8.59884016e-07)
5(-3.747095973e-07 -4.76313957e-07 -6.077531647e-07 -7.978045993e-07 -9.307104862e-07)
5(-4.001023313e-07 -5.024702939e-07 -6.413278312e-07 -8.376040494e-07 -9.713478007e-07)
5(-4.273707496e-07 -5.273408326e-07 -6.734741554e-07 -8.747903462e-07 -1.004868036e-06)
5(-4.533253371e-07 -5.536023796e-07 -7.074205674e-07 -9.1872262e-07 -1.052556458e-06)
5(-4.786750288e-07 -5.828469815e-07 -7.436607471e-07 -9.645854147e-07 -1.106180133e-06)
5(-5.035604119e-07 -6.134456925e-07 -7.808984939e-07 -1.011104118e-06 -1.162331984e-06)
5(-5.297554289e-07 -6.446962292e-07 -8.182367859e-07 -1.056172761e-06 -1.215231015e-06)
5(-5.57635724e-07 -6.763237517e-07 -8.557457107e-07 -1.10033987e-06 -1.264872261e-06)
5(-5.865363822e-07 -7.087929409e-07 -8.937976741e-07 -1.144912378e-06 -1.314881727e-06)
5(-6.167290501e-07 -7.42437424e-07 -9.331784941e-07 -1.190739962e-06 -1.365671147e-06)
5(-6.47916459e-07 -7.779058208e-07 -9.745732526e-07 -1.238400408e-06 -1.418782997e-06)
5(-6.813755643e-07 -8.151161675e-07 -1.017594431e-06 -1.287036039e-06 -1.471641017e-06)
5(-7.167442906e-07 -8.546499487e-07 -1.062703658e-06 -1.338091224e-06 -1.527925924e-06)
5(-7.545165409e-07 -8.962044247e-07 -1.110498638e-06 -1.391604268e-06 -1.585264476e-06)
5(-7.959501927e-07 -9.408484792e-07 -1.16037936e-06 -1.44810919e-06 -1.646914433e-06)
5(-8.394384039e-07 -9.877742472e-07 -1.212617207e-06 -1.506827855e-06 -1.710743627e-06)
5(-8.876319137e-07 -1.039503408e-06 -1.268724348e-06 -1.56809464e-06 -1.776782986e-06)
5(-9.386117292e-07 -1.094748815e-06 -1.327979644e-06 -1.632549482e-06 -1.847191489e-06)
5(-9.94896676e-07 -1.155000392e-06 -1.391749727e-06 -1.700194215e-06 -1.91958622e-06)
5(-1.05500243e-06 -1.219310257e-06 -1.460662376e-06 -1.770494387e-06 -1.991158336e-06)
5(-1.120080307e-06 -1.288654576e-06 -1.533819331e-06 -1.84559267e-06 -2.069002266e-06)
5(-1.19251674e-06 -1.364068906e-06 -1.610753e-06 -1.92011382e-06 -2.142725707e-06)
5(-1.267915285e-06 -1.44360793e-06 -1.690482443e-06 -1.999051702e-06 -2.225205215e-06)
5(-1.349419275e-06 -1.529223258e-06 -1.774099203e-06 -2.076148816e-06 -2.302132347e-06)
5(-1.438131411e-06 -1.61974504e-06 -1.858476193e-06 -2.152404078e-06 -2.378465249e-06)
5(-1.530295253e-06 -1.713898037e-06 -1.944659389e-06 -2.225711282e-06 -2.449073602e-06)
5(-1.624870669e-06 -1.811975035e-06 -2.031329738e-06 -2.289063633e-06 -2.504279077e-06)
5(-1.725554361e-06 -1.912081832e-06 -2.113218956e-06 -2.343906143e-06 -2.549862961e-06)
5(-1.827564482e-06 -2.011953031e-06 -2.189734513e-06 -2.383708035e-06 -2.574285808e-06)
5(-1.932669342e-06 -2.11341819e-06 -2.257965371e-06 -2.408467524e-06 -2.585387638e-06)
5(-2.023253047e-06 -2.204203238e-06 -2.314948877e-06 -2.417778107e-06 -2.581485311e-06)
5(-2.119691997e-06 -2.290894137e-06 -2.355724666e-06 -2.407003553e-06 -2.555631892e-06)
5(-2.199724067e-06 -2.35979479e-06 -2.375034895e-06 -2.353008031e-06 -2.466851271e-06)
5(-2.267414366e-06 -2.413409236e-06 -2.368125244e-06 -2.233892953e-06 -2.281746614e-06)
5(-2.324158769e-06 -2.449760605e-06 -2.324374425e-06 -2.026920025e-06 -1.970600825e-06)
5(-2.344932575e-06 -2.4513513e-06 -2.228346791e-06 -1.745732822e-06 -1.582172536e-06)
5(-2.344520323e-06 -2.431747419e-06 -2.063756273e-06 -1.401555688e-06 -1.184588464e-06)
5(-2.29964854e-06 -2.376763118e-06 -1.82246776e-06 -1.020864302e-06 -8.424137175e-07)
5(-2.217594204e-06 -2.275056027e-06 -1.513027847e-06 -6.334966714e-07 -5.676787148e-07)
5(-2.111501503e-06 -2.10771464e-06 -1.146100411e-06 -2.627134623e-07 -3.332067925e-07)
5(-1.989036523e-06 -1.86606192e-06 -7.551442249e-07 5.812744767e-08 -1.127018261e-07)
5(-1.812523237e-06 -1.554365239e-06 -3.773367467e-07 3.050360831e-07 7.318925854e-08)
5(-1.548359387e-06 -1.201384531e-06 -5.193078913e-08 4.679522573e-07 1.901999635e-07)
5(-1.185847808e-06 -8.396497359e-07 1.887838671e-07 5.386302084e-07 2.096288398e-07)
5(-7.645344571e-07 -5.14000025e-07 3.177186635e-07 5.108656355e-07 1.227195292e-07)
5(-3.762408953e-07 -2.649137735e-07 3.368245821e-07 3.921673415e-07 -4.733494008e-08)
5(-1.316513595e-07 -1.346854301e-07 2.544656586e-07 1.790417693e-07 -2.964585144e-07)
5(-7.41801133e-08 -1.425337607e-07 7.823464602e-08 -1.270879914e-07 -6.314890179e-07)
5(-1.857395327e-07 -2.873110937e-07 -2.021358409e-07 -5.256226302e-07 -1.046722546e-06)
5(-4.427650688e-07 -5.528767488e-07 -5.762904722e-07 -1.012396224e-06 -1.546129193e-06)
5(-8.111712087e-07 -9.161598217e-07 -1.039476042e-06 -1.584673398e-06 -2.121887751e-06)
5(-1.233801779e-06 -1.343277989e-06 -1.591654304e-06 -2.246585503e-06 -2.772526919e-06)
5(-1.68974014e-06 -1.819891887e-06 -2.216877806e-06 -2.997219572e-06 -3.520583088e-06)
5(-2.242022884e-06 -2.188001838e-06 -2.929675285e-06 -4.120735403e-06 -4.515758382e-06)
)


60
(
5(-2.01776775e-07 -4.622620809e-07 -6.167212963e-07 -7.950145166e-07 -1.055108222e-06)
5(-3.050024022e-07 -4.477000486e-07 -5.900142561e-07 -7.526719826e-07 -8.785252998e-07)
5(-3.805779225e-07 -4.584302876e-07 -5.970180326e-07 -7.643264382e-07 -8.314875759e-07)
5(-4.27283279e-07 -4.963823325e-07 -6.370962289e-07 -8.129998707e-07 -8.794609022e-07)
5(-4.546994213e-07 -5.434727987e-07 -6.921497349e-07 -8.882840354e-07 -9.900089447e-07)
5(-4.759766312e-07 -5.87787556e-07 -7.476851734e-07 -9.696500372e-07 -1.112549515e-06)
5(-5.030672759e-07 -6.270730996e-07 -7.968798915e-07 -1.034076884e-06 -1.196920793e-06)
5(-5.361259407e-07 -6.623508488e-07 -8.408771258e-07 -1.08686038e-06 -1.253440638e-06)
5(-5.708526878e-07 -6.96248543e-07 -8.836369773e-07 -1.137248029e-06 -1.302845102e-06)
5(-6.045915469e-07 -7.313443488e-07 -9.277396995e-07 -1.192800852e-06 -1.363415089e-06)
5(-6.3739071e-07 -7.68788173e-07 -9.735403626e-07 -1.250217395e-06 -1.430139859e-06)
5(-6.703891004e-07 -8.078439962e-07 -1.020168202e-06 -1.308262693e-06 -1.499497961e-06)
5(-7.042431324e-07 -8.475921923e-07 -1.067389569e-06 -1.364816632e-06 -1.565051618e-06)
5(-7.396649163e-07 -8.878561319e-07 -1.114907352e-06 -1.419649048e-06 -1.625828487e-06)
5(-7.762324037e-07 -9.290333951e-07 -1.162811307e-06 -1.476083357e-06 -1.689771721e-06)
5(-8.144706486e-07 -9.71836768e-07 -1.211948424e-06 -1.532912501e-06 -1.753489557e-06)
5(-8.542970822e-07 -1.016360311e-06 -1.263109859e-06 -1.591988498e-06 -1.81939669e-06)
5(-8.957469806e-07 -1.062579872e-06 -1.315968837e-06 -1.653076202e-06 -1.887709879e-06)
5(-9.398445152e-07 -1.111359615e-06 -1.371595523e-06 -1.715604668e-06 -1.955689199e-06)
5(-9.867420263e-07 -1.162710528e-06 -1.429852066e-06 -1.781771757e-06 -2.028019475e-06)
5(-1.036459076e-06 -1.217427124e-06 -1.491488628e-06 -1.850060438e-06 -2.101685136e-06)
5(-1.089958608e-06 -1.275210058e-06 -1.555166652e-06 -1.921514431e-06 -2.179875248e-06)
5(-1.147214167e-06 -1.337218116e-06 -1.623442939e-06 -1.996662453e-06 -2.260913063e-06)
5(-1.209282532e-06 -1.403911433e-06 -1.696084678e-06 -2.075880162e-06 -2.345869397e-06)
5(-1.275122192e-06 -1.475985962e-06 -1.773346717e-06 -2.160122403e-06 -2.438776933e-06)
5(-1.348297362e-06 -1.554013389e-06 -1.855725684e-06 -2.246105542e-06 -2.529269631e-06)
5(-1.426007383e-06 -1.637497867e-06 -1.944178821e-06 -2.336052044e-06 -2.621885856e-06)
5(-1.510819299e-06 -1.727538371e-06 -2.037442389e-06 -2.431721622e-06 -2.72235352e-06)
5(-1.600663854e-06 -1.823215973e-06 -2.134763152e-06 -2.525612922e-06 -2.817360952e-06)
5(-1.697490052e-06 -1.925683655e-06 -2.237330488e-06 -2.626995357e-06 -2.923500899e-06)
5(-1.8016082e-06 -2.034480716e-06 -2.343310247e-06 -2.724738689e-06 -3.020801948e-06)
5(-1.911359386e-06 -2.148090269e-06 -2.452151568e-06 -2.825171383e-06 -3.121769382e-06)
5(-2.026429042e-06 -2.26879822e-06 -2.562941987e-06 -2.916780569e-06 -3.210103588e-06)
5(-2.149421468e-06 -2.394348696e-06 -2.673087785e-06 -3.002801466e-06 -3.290237045e-06)
5(-2.274058985e-06 -2.521119687e-06 -2.781119379e-06 -3.075723885e-06 -3.34910309e-06)
5(-2.403591121e-06 -2.649942151e-06 -2.88468131e-06 -3.139476831e-06 -3.397727678e-06)
5(-2.532413732e-06 -2.777244836e-06 -2.98049027e-06 -3.189562357e-06 -3.432320986e-06)
5(-2.656858703e-06 -2.900220258e-06 -3.06347015e-06 -3.215705248e-06 -3.440408556e-06)
5(-2.780428467e-06 -3.017419074e-06 -3.129344589e-06 -3.207429989e-06 -3.403055499e-06)
5(-2.895920378e-06 -3.122457768e-06 -3.171886401e-06 -3.131152264e-06 -3.259634603e-06)
5(-2.997139531e-06 -3.207125147e-06 -3.180298666e-06 -2.981642642e-06 -3.011021021e-06)
5(-3.091456724e-06 -3.275485189e-06 -3.140362764e-06 -2.755338931e-06 -2.679697217e-06)
5(-3.152268853e-06 -3.315646898e-06 -3.035697791e-06 -2.455756605e-06 -2.309122111e-06)
5(-3.186371852e-06 -3.328127006e-06 -2.853206223e-06 -2.108748588e-06 -1.971855111e-06)
5(-3.182607004e-06 -3.291296638e-06 -2.594531342e-06 -1.731641981e-06 -1.666588898e-06)
5(-3.155457444e-06 -3.191678062e-06 -2.271824661e-06 -1.347834208e-06 -1.373226281e-06)
5(-3.098210218e-06 -3.015205137e-06 -1.905662007e-06 -9.739089886e-07 -1.061664752e-06)
5(-2.99507651e-06 -2.757441335e-06 -1.518986667e-06 -6.402721256e-07 -7.536443727e-07)
5(-2.81056468e-06 -2.445791126e-06 -1.14655395e-06 -3.582936572e-07 -4.943392085e-07)
5(-2.487539235e-06 -2.089076888e-06 -8.237426953e-07 -1.430355656e-07 -3.197654272e-07)
5(-2.085024148e-06 -1.726351765e-06 -5.703937195e-07 -1.92289339e-08 -2.583860756e-07)
5(-1.668506283e-06 -1.389289314e-06 -3.992915477e-07 3.616828744e-09 -3.006191242e-07)
5(-1.30041332e-06 -1.110376191e-06 -3.147973549e-07 -8.276965754e-08 -4.563169092e-07)
5(-1.050407e-06 -9.328322403e-07 -3.367221974e-07 -2.84858316e-07 -7.145778627e-07)
5(-9.268689963e-07 -8.750690873e-07 -4.803459891e-07 -6.102578462e-07 -1.088739967e-06)
5(-9.517893828e-07 -9.492882806e-07 -7.496481043e-07 -1.059021151e-06 -1.572917913e-06)
5(-1.109777801e-06 -1.15448927e-06 -1.141687531e-06 -1.610140835e-06 -2.144867556e-06)
5(-1.407686227e-06 -1.485287714e-06 -1.644020314e-06 -2.26742361e-06 -2.819319226e-06)
5(-1.804668978e-06 -1.920056702e-06 -2.258301267e-06 -3.034665425e-06 -3.598092537e-06)
5(-2.126699714e-06 -2.32321473e-06 -3.161551719e-06 -4.163480197e-06 -4.52804612e-06)
)


60
(
5(-2.697865151e-07 -5.416194537e-07 -7.277686279e-07 -9.161184024e-07 -1.167682627e-06)
5(-3.832899693e-07 -5.398219777e-07 -7.115097866e-07 -8.987228164e-07 -1.034318993e-06)
5(-4.699767017e-07 -5.63344814e-07 -7.293996732e-07 -9.284654983e-07 -1.015638365e-06)
5(-5.250746147e-07 -6.114816502e-07 -7.801035642e-07 -9.907504089e-07 -1.081783893e-06)
5(-5.594446882e-07 -6.664058207e-07 -8.445337095e-07 -1.076388615e-06 -1.203414623e-06)
5(-5.876350809e-07 -7.176032124e-07 -9.08613934e-07 -1.167145628e-06 -1.334734621e-06)
5(-6.215861982e-07 -7.644298546e-07 -9.667068558e-07 -1.241598036e-06 -1.429728114e-06)
5(-6.614520492e-07 -8.075460379e-07 -1.019755895e-06 -1.305313274e-06 -1.498888278e-06)
5(-7.027944757e-07 -8.490955464e-07 -1.071012459e-06 -1.366480165e-06 -1.561626103e-06)
5(-7.427147268e-07 -8.916388839e-07 -1.123644976e-06 -1.431752308e-06 -1.633393357e-06)
5(-7.822408412e-07 -9.363647083e-07 -1.177544904e-06 -1.498781479e-06 -1.711035614e-06)
5(-8.215021202e-07 -9.82545923e-07 -1.232534466e-06 -1.565857321e-06 -1.789755147e-06)
5(-8.616569566e-07 -1.029471184e-06 -1.287526526e-06 -1.63106207e-06 -1.865254147e-06)
5(-9.039377512e-07 -1.076853751e-06 -1.342702412e-06 -1.695929387e-06 -1.938205622e-06)
5(-9.471023109e-07 -1.124994924e-06 -1.398530039e-06 -1.760696064e-06 -2.010291849e-06)
5(-9.917859587e-07 -1.174478823e-06 -1.455628716e-06 -1.827009749e-06 -2.083937348e-06)
5(-1.03765514e-06 -1.226233767e-06 -1.514493771e-06 -1.895090937e-06 -2.161043834e-06)
5(-1.085936079e-06 -1.280143738e-06 -1.575070776e-06 -1.964599135e-06 -2.239427836e-06)
5(-1.136539611e-06 -1.336041137e-06 -1.639130563e-06 -2.037105337e-06 -2.318223052e-06)
5(-1.189890341e-06 -1.394979115e-06 -1.705751867e-06 -2.111973909e-06 -2.40000911e-06)
5(-1.246603826e-06 -1.457342963e-06 -1.775453768e-06 -2.190544509e-06 -2.486485646e-06)
5(-1.306905221e-06 -1.523115859e-06 -1.848586854e-06 -2.271621213e-06 -2.574260231e-06)
5(-1.371938442e-06 -1.593611897e-06 -1.925340743e-06 -2.357540043e-06 -2.669224555e-06)
5(-1.44123901e-06 -1.668969599e-06 -2.006736508e-06 -2.447946722e-06 -2.769316885e-06)
5(-1.514875991e-06 -1.749691643e-06 -2.094123008e-06 -2.542010464e-06 -2.871094829e-06)
5(-1.59508002e-06 -1.837117477e-06 -2.188004994e-06 -2.640763605e-06 -2.976027474e-06)
5(-1.681453575e-06 -1.930063895e-06 -2.286949403e-06 -2.745862451e-06 -3.088337523e-06)
5(-1.773668023e-06 -2.030008484e-06 -2.392385943e-06 -2.85425845e-06 -3.20243638e-06)
5(-1.871057657e-06 -2.13645587e-06 -2.503941226e-06 -2.966440146e-06 -3.319694963e-06)
5(-1.979966548e-06 -2.251904284e-06 -2.62053939e-06 -3.081633676e-06 -3.43929478e-06)
5(-2.093972518e-06 -2.373012948e-06 -2.742163562e-06 -3.199761838e-06 -3.560935471e-06)
5(-2.214764908e-06 -2.501106425e-06 -2.868660069e-06 -3.31729332e-06 -3.678762907e-06)
5(-2.34469405e-06 -2.637706329e-06 -2.999303555e-06 -3.436199607e-06 -3.798975473e-06)
5(-2.480532457e-06 -2.781133533e-06 -3.132688999e-06 -3.547922929e-06 -3.907108789e-06)
5(-2.623822644e-06 -2.929742251e-06 -3.266266441e-06 -3.652797832e-06 -4.003881385e-06)
5(-2.771054016e-06 -3.082119022e-06 -3.398025666e-06 -3.748711143e-06 -4.090002705e-06)
5(-2.919302831e-06 -3.235917095e-06 -3.526038062e-06 -3.835497826e-06 -4.167352309e-06)
5(-3.07457199e-06 -3.391850095e-06 -3.646764047e-06 -3.90545861e-06 -4.222601384e-06)
5(-3.229242002e-06 -3.543689193e-06 -3.754616717e-06 -3.944617276e-06 -4.234198749e-06)
5(-3.382046442e-06 -3.68928078e-06 -3.845808672e-06 -3.93015437e-06 -4.160774665e-06)
5(-3.530002906e-06 -3.8255627e-06 -3.910787918e-06 -3.844316373e-06 -3.982710164e-06)
5(-3.668169365e-06 -3.949192702e-06 -3.935834991e-06 -3.681852e-06 -3.715727237e-06)
5(-3.79425602e-06 -4.056412214e-06 -3.903631681e-06 -3.459987172e-06 -3.424145455e-06)
5(-3.910551424e-06 -4.145661171e-06 -3.799350796e-06 -3.179756407e-06 -3.13459275e-06)
5(-4.005870818e-06 -4.199279193e-06 -3.623144495e-06 -2.853544192e-06 -2.847110167e-06)
5(-4.076659472e-06 -4.195554533e-06 -3.379932557e-06 -2.495911358e-06 -2.540268581e-06)
5(-4.140050223e-06 -4.126957615e-06 -3.081448685e-06 -2.131201678e-06 -2.206065839e-06)
5(-4.149499435e-06 -3.978595422e-06 -2.748209557e-06 -1.773965117e-06 -1.849771989e-06)
5(-4.080403445e-06 -3.766140693e-06 -2.406447705e-06 -1.437022242e-06 -1.501406776e-06)
5(-3.892724371e-06 -3.50060327e-06 -2.074118225e-06 -1.133367484e-06 -1.214767658e-06)
5(-3.60549021e-06 -3.19308913e-06 -1.765521527e-06 -8.843141966e-07 -1.006816572e-06)
5(-3.272610009e-06 -2.865992685e-06 -1.490064777e-06 -7.123284445e-07 -8.940022552e-07)
5(-2.937906808e-06 -2.543431092e-06 -1.264317076e-06 -6.445217127e-07 -9.013296327e-07)
5(-2.635959773e-06 -2.254414504e-06 -1.113704596e-06 -6.911727421e-07 -1.021540804e-06)
5(-2.36857909e-06 -2.013454256e-06 -1.065442557e-06 -8.816179201e-07 -1.286404038e-06)
5(-2.188269533e-06 -1.873514711e-06 -1.148565439e-06 -1.2197109e-06 -1.699130895e-06)
5(-2.084395717e-06 -1.844728652e-06 -1.384025237e-06 -1.693166841e-06 -2.224175879e-06)
5(-2.108091312e-06 -1.960774047e-06 -1.780568481e-06 -2.305044338e-06 -2.86604968e-06)
5(-2.30047363e-06 -2.270616532e-06 -2.363550379e-06 -3.052752981e-06 -3.625726832e-06)
5(-2.63990253e-06 -2.552875952e-06 -3.125869127e-06 -4.173990451e-06 -4.553500604e-06)
)


60
(
5(-3.344699778e-07 -6.163645053e-07 -8.311258847e-07 -1.026841631e-06 -1.270315781e-06)
5(-4.572221232e-07 -6.25694735e-07 -8.237697246e-07 -1.031056445e-06 -1.174549167e-06)
5(-5.540230092e-07 -6.607235512e-07 -8.511584896e-07 -1.076224437e-06 -1.180355338e-06)
5(-6.172591055e-07 -7.182922789e-07 -9.11094748e-07 -1.149936489e-06 -1.261759902e-06)
5(-6.580131808e-07 -7.802852327e-07 -9.83765895e-07 -1.244391429e-06 -1.392538228e-06)
5(-6.921462279e-07 -8.376410649e-07 -1.055436836e-06 -1.343413844e-06 -1.531783589e-06)
5(-7.320880511e-07 -8.909027154e-07 -1.121130764e-06 -1.426703846e-06 -1.636161945e-06)
5(-7.78050074e-07 -9.410204335e-07 -1.181793634e-06 -1.499397624e-06 -1.715999924e-06)
5(-8.250682353e-07 -9.891938579e-07 -1.240596889e-06 -1.569540893e-06 -1.789142888e-06)
5(-8.709709685e-07 -1.038293605e-06 -1.300214501e-06 -1.643292715e-06 -1.871067738e-06)
5(-9.157694105e-07 -1.089091964e-06 -1.361173415e-06 -1.718071404e-06 -1.956971255e-06)
5(-9.608248075e-07 -1.141422352e-06 -1.422704375e-06 -1.792923814e-06 -2.04472985e-06)
5(-1.006492948e-06 -1.194219625e-06 -1.484325673e-06 -1.865509826e-06 -2.127919436e-06)
5(-1.053588852e-06 -1.247506196e-06 -1.546112875e-06 -1.937962435e-06 -2.2099349e-06)
5(-1.102215239e-06 -1.301697877e-06 -1.608432168e-06 -2.010051528e-06 -2.290293845e-06)
5(-1.15216339e-06 -1.357314597e-06 -1.67201485e-06 -2.08412145e-06 -2.373600718e-06)
5(-1.203697247e-06 -1.41472076e-06 -1.737068266e-06 -2.159031738e-06 -2.457587098e-06)
5(-1.256820513e-06 -1.474145684e-06 -1.804646677e-06 -2.236402418e-06 -2.543811541e-06)
5(-1.312422155e-06 -1.536081381e-06 -1.874584595e-06 -2.316191197e-06 -2.632686458e-06)
5(-1.37099877e-06 -1.600795133e-06 -1.947629358e-06 -2.398475996e-06 -2.722796475e-06)
5(-1.4323686e-06 -1.668758293e-06 -2.023948916e-06 -2.484693946e-06 -2.817925641e-06)
5(-1.498406587e-06 -1.741101239e-06 -2.103453646e-06 -2.57399652e-06 -2.916938494e-06)
5(-1.568144054e-06 -1.817428249e-06 -2.187162972e-06 -2.668149042e-06 -3.021450637e-06)
5(-1.642095814e-06 -1.898936211e-06 -2.276006644e-06 -2.766657473e-06 -3.130561892e-06)
5(-1.721244353e-06 -1.986216497e-06 -2.370696919e-06 -2.870353414e-06 -3.244721209e-06)
5(-1.80683356e-06 -2.079767676e-06 -2.471963684e-06 -2.978682239e-06 -3.360959929e-06)
5(-1.89805449e-06 -2.179813351e-06 -2.579851808e-06 -3.092726574e-06 -3.482710523e-06)
5(-1.996253527e-06 -2.287170351e-06 -2.693631276e-06 -3.210962382e-06 -3.608779565e-06)
5(-2.100622511e-06 -2.401434374e-06 -2.814008064e-06 -3.335874753e-06 -3.742656633e-06)
5(-2.214416566e-06 -2.52409916e-06 -2.941130909e-06 -3.465276407e-06 -3.879268373e-06)
5(-2.333248836e-06 -2.653838284e-06 -3.074774212e-06 -3.598056215e-06 -4.018757702e-06)
5(-2.461952205e-06 -2.793118143e-06 -3.214723884e-06 -3.733298306e-06 -4.159836874e-06)
5(-2.599635904e-06 -2.940145185e-06 -3.359733302e-06 -3.869763784e-06 -4.299571264e-06)
5(-2.744583085e-06 -3.09474183e-06 -3.509834954e-06 -4.004135288e-06 -4.432825857e-06)