/*--------------------------------*- C++ -*----------------------------------*\
| =========                 |                                                 |
| \\      /  F ield         | OpenFOAM: The Open Source CFD Toolbox           |
|  \\    /   O peration     | Version:  2.3.1                                 |
|   \\  /    A nd           | Web:      www.OpenFOAM.org                      |
|    \\/     M anipulation  |                                                 |
\*---------------------------------------------------------------------------*/
FoamFile
{
    version     2.0;
    format      ascii;
    class       dictionary;
    location    "constant";
    object      DPSI39;
}
// * * * * * * * * * * * * * * * * * * * * * * * * * * * * * * * * * * * * * //

DPSI39_table
60
(

60
(
5(-2.177720377e-15 -6.6775956e-16 -9.002414974e-16 -3.724614123e-16 -2.035900647e-16)
5(-1.587170812e-15 -8.372105936e-16 -6.319747936e-16 -3.615691582e-16 -1.962860935e-16)
5(-1.357440409e-15 -9.541695924e-16 -5.855924566e-16 -3.859903918e-16 -2.009596113e-16)
5(-1.348740805e-15 -1.07616234e-15 -6.312591604e-16 -4.190164088e-16 -2.31367769e-16)
5(-1.794719788e-15 -1.222138466e-15 -7.454245295e-16 -4.613677229e-16 -2.574274306e-16)
5(-2.292505317e-15 -1.354587613e-15 -8.729831213e-16 -5.009952919e-16 -2.784909648e-16)
5(-2.565288185e-15 -1.434768864e-15 -9.400124976e-16 -5.200871268e-16 -2.775326988e-16)
5(-2.742437833e-15 -1.489822645e-15 -9.399096804e-16 -5.159673e-16 -2.877160768e-16)
5(-2.84535313e-15 -1.53581577e-15 -9.346181002e-16 -5.067250719e-16 -2.750116535e-16)
5(-2.84582037e-15 -1.543555315e-15 -9.156726531e-16 -4.913856688e-16 -2.62026765e-16)
5(-2.990996862e-15 -1.523896494e-15 -8.990804758e-16 -4.682691667e-16 -2.452065424e-16)
5(-2.96086487e-15 -1.501598183e-15 -8.701409887e-16 -4.396873994e-16 -2.26040731e-16)
5(-2.976265067e-15 -1.449008821e-15 -8.280677101e-16 -4.037189156e-16 -2.029318521e-16)
5(-2.937507184e-15 -1.385626578e-15 -7.735369909e-16 -3.647091704e-16 -1.791352287e-16)
5(-2.866499911e-15 -1.310582582e-15 -7.129133723e-16 -3.229067654e-16 -1.54841299e-16)
5(-2.729676179e-15 -1.210375486e-15 -6.421769912e-16 -2.809854588e-16 -1.309147351e-16)
5(-2.618023877e-15 -1.10510863e-15 -5.680812305e-16 -2.400655136e-16 -1.084421974e-16)
5(-2.468772081e-15 -9.937366283e-16 -4.974173355e-16 -2.018914312e-16 -8.846213251e-17)
5(-2.281910333e-15 -8.871293166e-16 -4.273670138e-16 -1.667681209e-16 -7.034594553e-17)
5(-2.091058399e-15 -7.774765346e-16 -3.612081666e-16 -1.348786775e-16 -5.495990441e-17)
5(-1.881617469e-15 -6.667220864e-16 -2.986471997e-16 -1.072159094e-16 -4.241384728e-17)
5(-1.678647953e-15 -5.600741869e-16 -2.415011459e-16 -8.324689288e-17 -3.2230639e-17)
5(-1.479977103e-15 -4.638277645e-16 -1.919277114e-16 -6.330000012e-17 -2.396183628e-17)
5(-1.245431933e-15 -3.734583518e-16 -1.486527047e-16 -4.773728977e-17 -1.800481737e-17)
5(-1.047519038e-15 -2.96659846e-16 -1.136802851e-16 -3.582712389e-17 -1.376254568e-17)
5(-8.569611453e-16 -2.295101217e-16 -8.502055571e-17 -2.725142463e-17 -1.120466213e-17)
5(-6.870136664e-16 -1.750646051e-16 -6.369411535e-17 -2.169891648e-17 -1.010069189e-17)
5(-5.471745676e-16 -1.316086447e-16 -4.876976591e-17 -1.901559798e-17 -1.041430034e-17)
5(-4.255439633e-16 -9.899278571e-17 -3.94928099e-17 -1.896505277e-17 -1.211999839e-17)
5(-3.254972356e-16 -7.736452673e-17 -3.555895486e-17 -2.163536392e-17 -1.550516455e-17)
5(-2.479294998e-16 -6.501857422e-17 -3.649734715e-17 -2.70898879e-17 -2.076215235e-17)
5(-1.924092521e-16 -6.163841468e-17 -4.292134278e-17 -3.614978996e-17 -2.850746302e-17)
5(-1.563279962e-16 -6.648679453e-17 -5.448352527e-17 -4.886426105e-17 -3.862793138e-17)
5(-1.362273118e-16 -7.932053782e-17 -7.155262119e-17 -6.588356478e-17 -5.168131699e-17)
5(-1.328282344e-16 -1.007321299e-16 -9.522352055e-17 -8.667475963e-17 -6.64833365e-17)
5(-1.42777666e-16 -1.285085244e-16 -1.225138363e-16 -1.1002706e-16 -8.174846001e-17)
5(-1.670934139e-16 -1.660054962e-16 -1.579587136e-16 -1.342521281e-16 -9.509213271e-17)
5(-2.011619313e-16 -2.038860588e-16 -1.904314291e-16 -1.533671578e-16 -1.034458188e-16)
5(-2.407024625e-16 -2.419274875e-16 -2.156255104e-16 -1.638928129e-16 -1.024981443e-16)
5(-2.786151562e-16 -2.708421722e-16 -2.277224741e-16 -1.605549468e-16 -9.060161789e-17)
5(-3.111956481e-16 -2.850251612e-16 -2.241711173e-16 -1.425126092e-16 -7.029225509e-17)
5(-3.273401588e-16 -2.750141509e-16 -1.98679053e-16 -1.117641862e-16 -4.673129195e-17)
5(-3.168181827e-16 -2.416060497e-16 -1.571686919e-16 -7.584769404e-17 -2.624512674e-17)
5(-2.780880156e-16 -1.872563017e-16 -1.079413957e-16 -4.359298018e-17 -1.203467658e-17)
5(-2.177019614e-16 -1.280455416e-16 -6.413612102e-17 -2.053581959e-17 -4.419785695e-18)
5(-1.50062119e-16 -7.494977859e-17 -3.170087165e-17 -7.724860263e-18 -1.231973152e-18)
5(-8.817714948e-17 -3.668961113e-17 -1.235224766e-17 -2.249819011e-18 -2.523387537e-19)
5(-4.235220228e-17 -1.450656767e-17 -3.706301087e-18 -4.937463604e-19 -3.702807747e-20)
5(-1.689272239e-17 -4.461509958e-18 -8.170028673e-19 -7.696684859e-20 -3.88607272e-21)
5(-4.946144442e-18 -9.840690333e-19 -1.30865043e-19 -7.936999076e-21 -3.187157194e-22)
5(-1.084986827e-18 -1.510891872e-19 -1.330355574e-20 -5.866531499e-22 -1.850476505e-23)
5(-1.436135159e-19 -1.490505225e-20 -9.00258279e-22 -3.119400435e-23 -8.726708082e-25)
5(-1.411620378e-20 -9.221273409e-22 -4.305067434e-23 -1.297393108e-24 -3.121237863e-26)
5(-6.123231508e-22 -2.961884332e-23 -1.167963199e-24 -4.960170625e-26 -8.825650387e-28)
5(-1.368657493e-23 2.784686932e-24 -2.173536804e-26 -1.52911258e-24 -1.690679678e-29)
5(-9.733116372e-26 4.319882134e-22 -1.440687106e-25 -4.439779541e-22 -2.192741381e-31)
5(-2.954639003e-28 4.190628694e-20 1.529478689e-23 -1.193139015e-19 -8.998567907e-34)
5(-3.088307355e-31 -2.087088691e-18 1.011679281e-22 -2.694346832e-17 -1.630555108e-36)
5(-1.12485623e-35 7.331873437e-17 2.21115567e-19 3.856311203e-17 -6.812893264e-39)
5(-7.163711484e-42 -2.881686901e-41 4.472284334e-41 -3.163847121e-40 -1.140289114e-39)
)


60
(
5(-3.939682641e-15 -1.248310222e-15 -1.386705992e-15 -5.481003555e-16 -2.56739659e-16)
5(-3.723578013e-15 -1.759196281e-15 -1.127173815e-15 -5.493940248e-16 -2.416813705e-16)
5(-3.814175712e-15 -2.133060229e-15 -1.114927724e-15 -5.915387526e-16 -2.607333621e-16)
5(-4.344613883e-15 -2.46950894e-15 -1.243748442e-15 -6.550313034e-16 -2.728424771e-16)
5(-5.272337673e-15 -2.829357737e-15 -1.464873241e-15 -7.201665724e-16 -3.075267195e-16)
5(-6.447363652e-15 -3.186996833e-15 -1.712548654e-15 -7.848890525e-16 -3.389694146e-16)
5(-7.373916867e-15 -3.476780624e-15 -1.846434299e-15 -8.260009453e-16 -3.44003598e-16)
5(-8.05825721e-15 -3.681015258e-15 -1.896698693e-15 -8.359901454e-16 -3.557757772e-16)
5(-8.411168321e-15 -3.820899668e-15 -1.914467821e-15 -8.308914733e-16 -3.454964354e-16)
5(-8.8580426e-15 -3.918852188e-15 -1.917566603e-15 -8.177871461e-16 -3.318998994e-16)
5(-9.339644056e-15 -3.969939645e-15 -1.900387168e-15 -7.920273504e-16 -3.166653321e-16)
5(-9.693867125e-15 -3.980115099e-15 -1.868998029e-15 -7.557999801e-16 -2.981230697e-16)
5(-9.811004185e-15 -3.90320931e-15 -1.804037829e-15 -7.073756726e-16 -2.738338776e-16)
5(-9.903672734e-15 -3.773951409e-15 -1.709554541e-15 -6.521291107e-16 -2.475092919e-16)
5(-9.803262584e-15 -3.612132976e-15 -1.589421385e-15 -5.904431681e-16 -2.189648109e-16)
5(-9.745772976e-15 -3.403452252e-15 -1.458995803e-15 -5.254563466e-16 -1.908391418e-16)
5(-9.363581346e-15 -3.175370795e-15 -1.315885482e-15 -4.592750671e-16 -1.629951822e-16)
5(-9.008610645e-15 -2.906655672e-15 -1.173277998e-15 -3.953879845e-16 -1.377628895e-16)
5(-8.571145596e-15 -2.618846266e-15 -1.022488822e-15 -3.352044649e-16 -1.139368467e-16)
5(-8.017577533e-15 -2.322428607e-15 -8.769249591e-16 -2.789861481e-16 -9.260733625e-17)
5(-7.571516559e-15 -2.026798989e-15 -7.380706965e-16 -2.282597335e-16 -7.380615008e-17)
5(-6.780779238e-15 -1.732374032e-15 -6.09330346e-16 -1.825768953e-16 -5.805124438e-17)
5(-6.169428028e-15 -1.455221356e-15 -4.916383047e-16 -1.425752646e-16 -4.494473855e-17)
5(-5.435630179e-15 -1.198091039e-15 -3.882584058e-16 -1.097118036e-16 -3.441843111e-17)
5(-4.821422314e-15 -9.68431327e-16 -2.999395329e-16 -8.327778803e-17 -2.643518827e-17)
5(-4.117638206e-15 -7.669025031e-16 -2.276128873e-16 -6.228503493e-17 -2.075673912e-17)
5(-3.502206825e-15 -5.970668429e-16 -1.691457286e-16 -4.702207066e-17 -1.702674641e-17)
5(-3.012416462e-15 -4.529958822e-16 -1.245524312e-16 -3.633818222e-17 -1.532027814e-17)
5(-2.440339254e-15 -3.41253056e-16 -9.201829389e-17 -3.012217452e-17 -1.531748861e-17)
5(-2.011027777e-15 -2.550901494e-16 -6.952223831e-17 -2.774105141e-17 -1.734080961e-17)
5(-1.611921423e-15 -1.890539796e-16 -5.638181011e-17 -2.901932195e-17 -2.13361387e-17)
5(-1.285726963e-15 -1.455779086e-16 -5.161623866e-17 -3.419448124e-17 -2.790672426e-17)
5(-9.995634235e-16 -1.199032044e-16 -5.388904383e-17 -4.32037081e-17 -3.694250477e-17)
5(-7.72900051e-16 -1.061373412e-16 -6.257616915e-17 -5.630724418e-17 -4.926986522e-17)
5(-5.915628121e-16 -1.055618909e-16 -7.804912776e-17 -7.356473825e-17 -6.401900959e-17)
5(-4.882764152e-16 -1.147217459e-16 -9.833694541e-17 -9.440055654e-17 -8.062195565e-17)
5(-3.728882065e-16 -1.345784493e-16 -1.258269279e-16 -1.17665361e-16 -9.746236524e-17)
5(-3.09583275e-16 -1.592283634e-16 -1.5409762e-16 -1.394847777e-16 -1.114509322e-16)
5(-2.745368285e-16 -1.88167425e-16 -1.799646209e-16 -1.565967086e-16 -1.183944619e-16)
5(-2.619438757e-16 -2.147231294e-16 -1.988309217e-16 -1.638370186e-16 -1.157889221e-16)
5(-2.663089405e-16 -2.341364206e-16 -2.067188645e-16 -1.581095423e-16 -1.022231985e-16)
5(-2.682827246e-16 -2.37964237e-16 -1.969319386e-16 -1.384589265e-16 -8.03178281e-17)
5(-2.639085497e-16 -2.234845363e-16 -1.704253076e-16 -1.084259462e-16 -5.556142815e-17)
5(-2.427873673e-16 -1.897249596e-16 -1.315469625e-16 -7.422189883e-17 -3.310785856e-17)
5(-2.051957421e-16 -1.444103565e-16 -8.968675132e-17 -4.371138156e-17 -1.663744749e-17)
5(-1.556279204e-16 -9.638375044e-17 -5.25976662e-17 -2.168301651e-17 -6.795808004e-18)
5(-1.035090163e-16 -5.556099353e-17 -2.568243841e-17 -8.75520167e-18 -2.229454065e-18)
5(-5.867993647e-17 -2.679982544e-17 -1.020413159e-17 -2.813997325e-18 -5.46459534e-19)
5(-2.790627487e-17 -1.047714559e-17 -3.147123973e-18 -7.033720116e-19 -1.009274194e-19)
5(-1.063650719e-17 -3.171720879e-18 -7.35718776e-19 -1.239033593e-19 -1.32309612e-20)
5(-3.114266269e-18 -7.012042077e-19 -1.218825116e-19 -1.604210191e-20 -1.169263849e-21)
5(-6.304531701e-19 -1.042656166e-19 -1.313081474e-20 -1.345966509e-21 -8.279255628e-23)
5(-8.085059318e-20 -9.896256063e-21 -9.120638089e-22 -7.598516034e-23 -3.750090134e-24)
5(-5.352467995e-21 -5.378810618e-22 -3.503294918e-23 -2.385849165e-24 -1.103689304e-25)
5(-2.185348994e-22 5.458808091e-23 -9.43902997e-25 4.253157215e-23 -2.514865308e-27)
5(-3.224841901e-24 1.46209778e-20 -4.390818046e-23 9.362203924e-21 -2.675091544e-29)
5(-2.081928032e-26 3.608171883e-18 -1.127639649e-20 2.276544243e-18 -1.175219889e-31)
5(-1.559399121e-29 1.117955233e-15 -2.731994142e-18 6.44007628e-16 -2.325605697e-34)
5(-2.35104692e-33 4.830290001e-13 4.016761176e-18 2.187612793e-13 -1.30237105e-37)
5(-7.725049232e-39 -2.911936936e-40 2.194267214e-41 -1.412102108e-39 -3.606921961e-39)
)


60
(
5(-8.7174143e-15 -2.825325116e-15 -2.536101846e-15 -9.619134632e-16 -3.790067111e-16)
5(-1.01281732e-14 -4.327791397e-15 -2.403416183e-15 -1.014843859e-15 -3.568294799e-16)
5(-1.160969075e-14 -5.57237292e-15 -2.560409e-15 -1.114502393e-15 -3.697475638e-16)
5(-1.36358101e-14 -6.583223922e-15 -2.941817902e-15 -1.247975075e-15 -4.068596796e-16)
5(-1.67004205e-14 -7.584413495e-15 -3.457737968e-15 -1.396366278e-15 -4.587787242e-16)
5(-2.040508596e-14 -8.600712469e-15 -3.948331537e-15 -1.526845867e-15 -5.09024783e-16)
5(-2.355292629e-14 -9.405735453e-15 -4.273090015e-15 -1.61969769e-15 -5.396310587e-16)
5(-2.586869956e-14 -1.00727584e-14 -4.465004042e-15 -1.673053565e-15 -5.523851342e-16)
5(-2.804817671e-14 -1.060659811e-14 -4.560105547e-15 -1.68960443e-15 -5.549740643e-16)
5(-3.010124631e-14 -1.094947116e-14 -4.619477914e-15 -1.685301335e-15 -5.49562507e-16)
5(-3.171183203e-14 -1.120106261e-14 -4.634140831e-15 -1.66107772e-15 -5.406183416e-16)
5(-3.354004644e-14 -1.126417752e-14 -4.588284409e-15 -1.612729297e-15 -5.22389786e-16)
5(-3.500544823e-14 -1.118908702e-14 -4.461819121e-15 -1.535295502e-15 -4.944255249e-16)
5(-3.570395616e-14 -1.09511106e-14 -4.26077975e-15 -1.437445934e-15 -4.63039918e-16)
5(-3.580120177e-14 -1.05922434e-14 -3.996578229e-15 -1.328001684e-15 -4.21606364e-16)
5(-3.5970589e-14 -1.009441192e-14 -3.69733998e-15 -1.20671149e-15 -3.805347245e-16)
5(-3.60708558e-14 -9.477287119e-15 -3.372727682e-15 -1.076248766e-15 -3.369498212e-16)
5(-3.514664667e-14 -8.78691217e-15 -3.032771552e-15 -9.473191487e-16 -2.942322298e-16)
5(-3.466820064e-14 -8.022037996e-15 -2.682121994e-15 -8.196868626e-16 -2.532077265e-16)
5(-3.33580288e-14 -7.255630424e-15 -2.33636192e-15 -6.986617859e-16 -2.132996428e-16)
5(-3.198558235e-14 -6.467742682e-15 -1.99309359e-15 -5.84060623e-16 -1.769858308e-16)
5(-3.060197127e-14 -5.655506211e-15 -1.677279359e-15 -4.798894181e-16 -1.446443787e-16)
5(-2.891608339e-14 -4.898253918e-15 -1.384404965e-15 -3.853063466e-16 -1.165033294e-16)
5(-2.647958267e-14 -4.193673994e-15 -1.12175104e-15 -3.041428855e-16 -9.222968581e-17)
5(-2.433380786e-14 -3.541835302e-15 -8.892397879e-16 -2.362291108e-16 -7.151238537e-17)
5(-2.235426019e-14 -2.941822286e-15 -6.915644134e-16 -1.803174371e-16 -5.566063981e-17)
5(-2.018127958e-14 -2.426550005e-15 -5.279187537e-16 -1.353008972e-16 -4.369049784e-17)
5(-1.827315743e-14 -1.974575203e-15 -3.976533292e-16 -1.01004513e-16 -3.475647516e-17)
5(-1.599153588e-14 -1.590420496e-15 -2.948795948e-16 -7.600651245e-17 -2.968490339e-17)
5(-1.385688515e-14 -1.275307217e-15 -2.16550074e-16 -5.84668623e-17 -2.688910745e-17)
5(-1.194524209e-14 -1.012714747e-15 -1.604117866e-16 -4.788277344e-17 -2.737549917e-17)
5(-1.005940847e-14 -8.032544662e-16 -1.224193663e-16 -4.317059406e-17 -3.05299707e-17)
5(-8.229777796e-15 -6.328839695e-16 -9.686332661e-17 -4.351630232e-17 -3.691498945e-17)
5(-6.730007015e-15 -4.939110338e-16 -8.266405961e-17 -4.87394817e-17 -4.658526556e-17)
5(-5.206094825e-15 -3.901566096e-16 -7.812411713e-17 -5.890863154e-17 -6.027490905e-17)
5(-3.987868854e-15 -3.045827484e-16 -8.203928143e-17 -7.407191802e-17 -7.730100243e-17)
5(-2.973305597e-15 -2.475505998e-16 -9.366563648e-17 -9.389939204e-17 -9.759733269e-17)
5(-2.083705774e-15 -2.106363949e-16 -1.113687692e-16 -1.175392013e-16 -1.191429729e-16)
5(-1.462485595e-15 -1.901115841e-16 -1.343311228e-16 -1.424249915e-16 -1.383577262e-16)
5(-9.758911746e-16 -1.854078208e-16 -1.591741558e-16 -1.6436664e-16 -1.507883213e-16)
5(-6.165583788e-16 -1.912553498e-16 -1.812215557e-16 -1.780603411e-16 -1.513214226e-16)
5(-4.316817735e-16 -2.008912342e-16 -1.939506084e-16 -1.778663497e-16 -1.383175386e-16)
5(-3.124831025e-16 -2.067458472e-16 -1.917044585e-16 -1.614013757e-16 -1.126689514e-16)
5(-2.530808575e-16 -2.006221797e-16 -1.720650218e-16 -1.303652039e-16 -8.0677115e-17)
5(-2.171576743e-16 -1.778741407e-16 -1.376418308e-16 -9.211059256e-17 -4.949730378e-17)
5(-1.853779746e-16 -1.409988816e-16 -9.60440712e-17 -5.574247957e-17 -2.536596676e-17)
5(-1.464400273e-16 -9.816136966e-17 -5.702647855e-17 -2.83252048e-17 -1.069855516e-17)
5(-1.027505182e-16 -5.814914131e-17 -2.83105838e-17 -1.164386419e-17 -3.543700481e-18)
5(-6.130729249e-17 -2.843074952e-17 -1.119734256e-17 -3.783394262e-18 -9.222306176e-19)
5(-3.060953276e-17 -1.11395053e-17 -3.340163157e-18 -9.154514806e-19 -1.770225993e-19)
5(-1.218394839e-17 -3.315592439e-18 -7.484135341e-19 -1.665468572e-19 -2.386021399e-20)
5(-3.638655019e-18 -6.837798278e-19 -1.173430395e-19 -1.990456018e-20 -2.032386694e-21)
5(-7.136332501e-19 -9.585608505e-20 -1.165881569e-20 -1.596276627e-21 -1.331684267e-22)
5(-8.893477929e-20 -8.070221889e-21 -6.645622671e-22 -8.531009918e-23 -5.305249521e-24)
5(-6.463176898e-21 -8.186258496e-22 -1.363846638e-23 -4.915002877e-22 -1.110634757e-25)
5(-1.674525062e-22 -7.588970515e-20 1.033324298e-21 -7.880317719e-20 -1.808387911e-27)
5(-8.492414836e-25 -1.610075152e-17 2.026354242e-19 -1.57191856e-17 -7.397453857e-30)
5(-7.96564763e-27 -4.776255645e-15 5.300108817e-17 -4.174172326e-15 -1.46745625e-32)
5(-2.757767474e-30 -2.387025843e-12 1.99407514e-14 -1.754667289e-12 -5.363834408e-36)
5(-3.335501625e-33 -9.22506171e-09 -9.808970237e-20 -5.70276566e-09 -1.564392078e-38)
)


60
(
5(-1.665978602e-14 -5.334736545e-15 -4.035304015e-15 -1.506074346e-15 -5.410871923e-16)
5(-2.221539568e-14 -8.638470995e-15 -4.263431492e-15 -1.68349805e-15 -5.393684025e-16)
5(-2.74382249e-14 -1.137161657e-14 -4.798658823e-15 -1.902569539e-15 -5.76724398e-16)
5(-3.306339637e-14 -1.36014977e-14 -5.588267353e-15 -2.156004996e-15 -6.443893725e-16)
5(-4.076827563e-14 -1.57305073e-14 -6.520171647e-15 -2.419800852e-15 -7.347247381e-16)
5(-4.980834015e-14 -1.780439269e-14 -7.371046501e-15 -2.654035906e-15 -8.233116334e-16)
5(-5.829323746e-14 -1.9575097e-14 -7.982834002e-15 -2.830085304e-15 -8.85309172e-16)
5(-6.512905584e-14 -2.107356617e-14 -8.380574575e-15 -2.939008741e-15 -9.184915108e-16)
5(-7.132060714e-14 -2.229677455e-14 -8.624846435e-15 -3.003543958e-15 -9.370719389e-16)
5(-7.776447355e-14 -2.334284025e-14 -8.775232338e-15 -3.026437148e-15 -9.488143163e-16)
5(-8.325222651e-14 -2.392257607e-14 -8.834222204e-15 -3.012503898e-15 -9.475192786e-16)
5(-8.92998125e-14 -2.432166555e-14 -8.772652567e-15 -2.948321964e-15 -9.320057428e-16)
5(-9.428095307e-14 -2.439914112e-14 -8.572201135e-15 -2.843784753e-15 -9.026154251e-16)
5(-1.006953283e-13 -2.408416373e-14 -8.25005801e-15 -2.698782926e-15 -8.567708247e-16)
5(-1.024276007e-13 -2.353764021e-14 -7.828123546e-15 -2.524555179e-15 -8.033294718e-16)
5(-1.04365041e-13 -2.274051494e-14 -7.342735046e-15 -2.323647515e-15 -7.407795893e-16)
5(-1.072283808e-13 -2.18129601e-14 -6.756927137e-15 -2.111500765e-15 -6.695593713e-16)
5(-1.086490814e-13 -2.064870259e-14 -6.137562291e-15 -1.89557101e-15 -5.988574331e-16)
5(-1.091992377e-13 -1.936504407e-14 -5.525942064e-15 -1.666612186e-15 -5.258861212e-16)
5(-1.094127104e-13 -1.805537319e-14 -4.893404101e-15 -1.447348099e-15 -4.563993511e-16)
5(-1.085756814e-13 -1.669456983e-14 -4.272577276e-15 -1.23450981e-15 -3.875018403e-16)
5(-1.063183247e-13 -1.526229476e-14 -3.683480036e-15 -1.039185237e-15 -3.266360961e-16)
5(-1.045919826e-13 -1.391690162e-14 -3.143498653e-15 -8.610743423e-16 -2.697113225e-16)
5(-1.024029194e-13 -1.257519926e-14 -2.640476561e-15 -7.000385987e-16 -2.179109854e-16)
5(-9.752788415e-14 -1.130625341e-14 -2.182820576e-15 -5.584308148e-16 -1.743069088e-16)
5(-9.381792222e-14 -1.020095071e-14 -1.786861233e-15 -4.389409215e-16 -1.383365974e-16)
5(-8.718825162e-14 -8.956004856e-15 -1.453892188e-15 -3.396368158e-16 -1.078498397e-16)
5(-8.17257917e-14 -7.931989613e-15 -1.17254298e-15 -2.604053311e-16 -8.463658406e-17)
5(-7.51605914e-14 -7.034999966e-15 -9.34142953e-16 -1.973345305e-16 -6.731061993e-17)
5(-6.957404355e-14 -6.130999912e-15 -7.428544248e-16 -1.500015843e-16 -5.541571767e-17)
5(-6.202452993e-14 -5.242515165e-15 -5.947459614e-16 -1.151893409e-16 -4.817530952e-17)
5(-5.367175366e-14 -4.493563029e-15 -4.76240091e-16 -9.179828198e-17 -4.550754378e-17)
5(-4.586105491e-14 -3.76548748e-15 -3.788937666e-16 -7.694482229e-17 -4.630888558e-17)
5(-3.842053882e-14 -3.145690663e-15 -3.008721131e-16 -7.013095917e-17 -5.148033551e-17)
5(-3.194999393e-14 -2.546123574e-15 -2.442070001e-16 -6.986345044e-17 -6.107699585e-17)
5(-2.549758785e-14 -1.99406707e-15 -2.024225853e-16 -7.594294543e-17 -7.526722796e-17)
5(-1.932450805e-14 -1.566078857e-15 -1.745442563e-16 -8.856819311e-17 -9.412913532e-17)
5(-1.417238099e-14 -1.183921296e-15 -1.599588358e-16 -1.074995223e-16 -1.171229249e-16)
5(-9.782525245e-15 -8.375105045e-16 -1.581841471e-16 -1.315452245e-16 -1.422883552e-16)
5(-6.459238574e-15 -6.030226999e-16 -1.667989126e-16 -1.582007312e-16 -1.647463052e-16)
5(-4.056276293e-15 -4.389183817e-16 -1.826547711e-16 -1.827355823e-16 -1.790391518e-16)
5(-2.358627389e-15 -3.387349744e-16 -1.999702045e-16 -1.982288847e-16 -1.807744612e-16)
5(-1.316477453e-15 -2.853152304e-16 -2.105303686e-16 -1.982036452e-16 -1.650380725e-16)
5(-7.489874659e-16 -2.529697075e-16 -2.069854152e-16 -1.798976814e-16 -1.351150888e-16)
5(-4.363704429e-16 -2.281711704e-16 -1.844107396e-16 -1.451584977e-16 -9.727303355e-17)
5(-2.977703938e-16 -1.973181688e-16 -1.469498558e-16 -1.023342004e-16 -6.03925879e-17)
5(-2.267972256e-16 -1.55663219e-16 -1.018085665e-16 -6.215679298e-17 -3.134389546e-17)
5(-1.733268884e-16 -1.087302585e-16 -5.972069916e-17 -3.127926343e-17 -1.328655312e-17)
5(-1.225830794e-16 -6.489735075e-17 -2.899832189e-17 -1.272246733e-17 -4.42537764e-18)
5(-7.582828933e-17 -3.216637786e-17 -1.119557893e-17 -4.110433616e-18 -1.113747729e-18)
5(-3.918675219e-17 -1.268499303e-17 -3.296701297e-18 -9.8240644e-19 -2.105594867e-19)
5(-1.645381144e-17 -3.678581046e-18 -6.980387295e-19 -1.704186504e-19 -3.042385328e-20)
5(-5.422386208e-18 -7.976381222e-19 -1.007492679e-19 -1.897633051e-20 -2.138862391e-21)
5(-1.222078608e-18 -1.166775248e-19 -8.830684737e-21 -1.315576426e-21 -1.388399784e-22)
5(-1.539765064e-19 -1.017497502e-20 -4.494522539e-22 -6.923897095e-22 -4.131698686e-24)
5(-1.650266437e-20 -9.059853298e-20 4.538677459e-22 -8.672365362e-20 -3.574334541e-26)
5(-5.665378305e-22 -1.814201372e-17 7.969782706e-20 -1.440293264e-17 -4.1742797e-28)
5(-5.565512483e-24 -4.851909469e-15 1.485937839e-17 -3.083576499e-15 -4.610113184e-31)
5(-4.321987133e-26 -1.912940986e-12 -2.934453117e-17 -8.998167565e-13 -1.705607189e-34)
5(-4.755016302e-26 4.954463529e-12 6.398174779e-23 4.260163792e-12 -4.933279502e-38)
)


60
(
5(-2.902683792e-14 -8.816062359e-15 -5.840382174e-15 -2.163296012e-15 -7.436702133e-16)
5(-4.320389391e-14 -1.481225803e-14 -6.628786283e-15 -2.511112242e-15 -7.800290535e-16)
5(-5.599983723e-14 -1.986823402e-14 -7.724014355e-15 -2.89424173e-15 -8.581459106e-16)
5(-6.921640068e-14 -2.38995727e-14 -9.064473835e-15 -3.306530658e-15 -9.748829997e-16)
5(-8.677927092e-14 -2.774525171e-14 -1.051451184e-14 -3.721154887e-15 -1.116794675e-15)
5(-1.077379215e-13 -3.169250742e-14 -1.182761426e-14 -4.098428614e-15 -1.258117963e-15)
5(-1.266566935e-13 -3.516211105e-14 -1.287087046e-14 -4.392977178e-15 -1.366770947e-15)
5(-1.446064886e-13 -3.811841234e-14 -1.358783481e-14 -4.601769469e-15 -1.438400357e-15)
5(-1.608523423e-13 -4.07575801e-14 -1.410452004e-14 -4.748353795e-15 -1.490819219e-15)
5(-1.781662863e-13 -4.294077106e-14 -1.443095648e-14 -4.838221802e-15 -1.526484068e-15)
5(-1.958248025e-13 -4.488239236e-14 -1.464097642e-14 -4.860589309e-15 -1.550127714e-15)
5(-2.124810549e-13 -4.621572256e-14 -1.464869198e-14 -4.815190043e-15 -1.546927152e-15)
5(-2.303389886e-13 -4.715725056e-14 -1.447527782e-14 -4.701228127e-15 -1.525596424e-15)
5(-2.443378209e-13 -4.763231373e-14 -1.408965788e-14 -4.520713885e-15 -1.469326279e-15)
5(-2.608983133e-13 -4.764089815e-14 -1.355391043e-14 -4.285703632e-15 -1.403644062e-15)
5(-2.741627629e-13 -4.733306937e-14 -1.290181731e-14 -4.009773588e-15 -1.313084447e-15)
5(-2.860122616e-13 -4.653687385e-14 -1.213953187e-14 -3.705961218e-15 -1.215664334e-15)
5(-3.004915032e-13 -4.574813169e-14 -1.131573522e-14 -3.370311362e-15 -1.107744968e-15)
5(-3.070073422e-13 -4.461580845e-14 -1.041279266e-14 -3.029103699e-15 -9.916564653e-16)
5(-3.172936024e-13 -4.337823221e-14 -9.515011994e-15 -2.686911093e-15 -8.822581031e-16)
5(-3.240091303e-13 -4.19636096e-14 -8.614905265e-15 -2.352403107e-15 -7.666559732e-16)
5(-3.251466879e-13 -4.038990331e-14 -7.724750101e-15 -2.035567075e-15 -6.569413232e-16)
5(-3.317298994e-13 -3.885343892e-14 -6.910476019e-15 -1.732935867e-15 -5.54386629e-16)
5(-3.317598144e-13 -3.732287549e-14 -6.131035022e-15 -1.454073752e-15 -4.616003488e-16)
5(-3.252616735e-13 -3.55769421e-14 -5.411018309e-15 -1.207733328e-15 -3.793600534e-16)
5(-3.204825921e-13 -3.366192912e-14 -4.78315734e-15 -9.883147583e-16 -3.070868475e-16)
5(-3.154351742e-13 -3.182460741e-14 -4.208177874e-15 -7.991934451e-16 -2.454579343e-16)
5(-3.022065819e-13 -2.996841261e-14 -3.668732993e-15 -6.44208857e-16 -1.964337724e-16)
5(-2.802804541e-13 -2.782027912e-14 -3.183191946e-15 -5.143925489e-16 -1.544005949e-16)
5(-2.636686715e-13 -2.532339792e-14 -2.780043686e-15 -4.070484653e-16 -1.232549524e-16)
5(-2.424301207e-13 -2.319588914e-14 -2.426016815e-15 -3.251079454e-16 -1.00586035e-16)
5(-2.198617145e-13 -2.105125734e-14 -2.07583063e-15 -2.602164559e-16 -8.458597853e-17)
5(-1.935586645e-13 -1.830030093e-14 -1.765476471e-15 -2.110451586e-16 -7.47867929e-17)
5(-1.640561045e-13 -1.576035777e-14 -1.486623204e-15 -1.743226998e-16 -7.210503228e-17)
5(-1.394763073e-13 -1.326883304e-14 -1.242872471e-15 -1.480903527e-16 -7.336908505e-17)
5(-1.123376427e-13 -1.096683865e-14 -1.016393634e-15 -1.323647627e-16 -8.105185467e-17)
5(-9.033461111e-14 -8.801001474e-15 -8.030417e-16 -1.260184715e-16 -9.447931225e-17)
5(-6.778523082e-14 -6.689146188e-15 -6.311752751e-16 -1.279856353e-16 -1.140271835e-16)
5(-4.949002609e-14 -4.870717256e-15 -4.928884106e-16 -1.391106238e-16 -1.392862754e-16)
5(-3.39129167e-14 -3.433141425e-15 -3.842928834e-16 -1.591848765e-16 -1.665358177e-16)
5(-2.183173745e-14 -2.274009712e-15 -3.17618176e-16 -1.839561306e-16 -1.907076166e-16)
5(-1.307066411e-14 -1.45991011e-15 -2.799353092e-16 -2.077213308e-16 -2.069138775e-16)
5(-7.440357163e-15 -9.241696399e-16 -2.649531075e-16 -2.225074327e-16 -2.066839252e-16)
5(-3.842687205e-15 -5.882627914e-16 -2.544548566e-16 -2.207669859e-16 -1.874901148e-16)
5(-1.864887182e-15 -4.076227156e-16 -2.376713837e-16 -1.983077778e-16 -1.5245525e-16)
5(-9.139784978e-16 -3.096923626e-16 -2.073623335e-16 -1.58253923e-16 -1.085121237e-16)
5(-5.158041472e-16 -2.446845995e-16 -1.627880163e-16 -1.10144904e-16 -6.590575733e-17)
5(-3.089806049e-16 -1.867740267e-16 -1.111381792e-16 -6.586434733e-17 -3.409993382e-17)
5(-2.173793311e-16 -1.298714237e-16 -6.488926928e-17 -3.267039707e-17 -1.41618908e-17)
5(-1.558136172e-16 -7.885901489e-17 -3.121154473e-17 -1.293024532e-17 -4.587893084e-18)
5(-9.777098626e-17 -3.984376831e-17 -1.192597386e-17 -3.986390671e-18 -1.12104513e-18)
5(-5.342519787e-17 -1.669313784e-17 -3.453194758e-18 -9.076728258e-19 -2.010775279e-19)
5(-2.369834402e-17 -5.124121434e-18 -7.41572016e-19 -1.405940265e-19 -2.315544827e-20)
5(-8.890331823e-18 -1.187228132e-18 -1.023568104e-19 -1.464948721e-20 -1.884681441e-21)
5(-2.188863519e-18 -1.871229277e-19 -8.422188856e-21 -5.776282835e-22 -7.197184651e-23)
5(-5.287723691e-19 2.158051393e-20 -1.320626609e-21 5.941971091e-20 -1.327161887e-24)
5(-5.195744618e-20 1.086594443e-17 -1.908050429e-19 1.340414768e-17 -6.01942587e-27)
5(-4.33496246e-21 3.931867874e-15 -5.224195134e-17 3.872270575e-15 -3.914749881e-29)
5(-1.755805502e-22 2.344925578e-12 -1.962967157e-14 1.730371604e-12 -6.932087659e-33)
5(-4.301893485e-22 9.027263621e-09 9.624080569e-20 5.608364778e-09 -4.900028811e-11)
)


60
(
5(-4.782290061e-14 -1.334165848e-14 -7.960982386e-15 -2.93210355e-15 -9.968774945e-16)
5(-7.789277737e-14 -2.327377529e-14 -9.496988095e-15 -3.494919997e-15 -1.089218977e-15)
5(-1.057344521e-13 -3.186392386e-14 -1.132822349e-14 -4.091274802e-15 -1.226145942e-15)
5(-1.350637388e-13 -3.874568094e-14 -1.340448567e-14 -4.707289126e-15 -1.40591794e-15)
5(-1.722659202e-13 -4.545495696e-14 -1.555674255e-14 -5.321526437e-15 -1.623424005e-15)
5(-2.169701695e-13 -5.27194975e-14 -1.754789934e-14 -5.887213326e-15 -1.842379408e-15)
5(-2.585482182e-13 -5.927726127e-14 -1.923918649e-14 -6.362231465e-15 -2.010662087e-15)
5(-3.016101553e-13 -6.540075643e-14 -2.049136599e-14 -6.725352357e-15 -2.151451427e-15)
5(-3.389886946e-13 -7.108620307e-14 -2.148824582e-14 -7.010504399e-15 -2.249975733e-15)
5(-3.8633118e-13 -7.624738252e-14 -2.223608833e-14 -7.211385194e-15 -2.335304998e-15)
5(-4.298361638e-13 -8.130958746e-14 -2.28759057e-14 -7.339659173e-15 -2.398123612e-15)
5(-4.808766106e-13 -8.561638754e-14 -2.322638733e-14 -7.362591006e-15 -2.431581462e-15)
5(-5.253092934e-13 -8.975593418e-14 -2.337463781e-14 -7.288690069e-15 -2.427134618e-15)
5(-5.713425125e-13 -9.283033836e-14 -2.320212046e-14 -7.114555395e-15 -2.383019274e-15)
5(-6.189989911e-13 -9.596985767e-14 -2.285790362e-14 -6.859235494e-15 -2.304500744e-15)
5(-6.635331865e-13 -9.841440741e-14 -2.229689493e-14 -6.531839181e-15 -2.192087321e-15)
5(-7.136709169e-13 -1.010126685e-13 -2.163257558e-14 -6.152971134e-15 -2.062160928e-15)
5(-7.466135171e-13 -1.029079791e-13 -2.084692183e-14 -5.707399166e-15 -1.910988325e-15)
5(-7.969494151e-13 -1.041326272e-13 -1.989899899e-14 -5.254270557e-15 -1.753912375e-15)
5(-8.306481462e-13 -1.055930896e-13 -1.900581804e-14 -4.782536536e-15 -1.576809584e-15)
5(-8.701271297e-13 -1.061002692e-13 -1.799584926e-14 -4.315547238e-15 -1.406504346e-15)
5(-9.004026316e-13 -1.075054208e-13 -1.710386681e-14 -3.85536053e-15 -1.23954483e-15)
5(-9.096593537e-13 -1.078011789e-13 -1.616955556e-14 -3.408201453e-15 -1.068819618e-15)
5(-9.392990347e-13 -1.071795013e-13 -1.525717993e-14 -2.991135725e-15 -9.176951736e-16)
5(-9.552021215e-13 -1.065695363e-13 -1.440816388e-14 -2.594749425e-15 -7.768031509e-16)
5(-9.358686295e-13 -1.054205985e-13 -1.351569113e-14 -2.234029065e-15 -6.434362497e-16)
5(-9.389314903e-13 -1.029140106e-13 -1.268645778e-14 -1.925040978e-15 -5.313909753e-16)
5(-9.07055257e-13 -1.002894837e-13 -1.187454001e-14 -1.655543795e-15 -4.359501619e-16)
5(-8.816095556e-13 -9.582640711e-14 -1.110696917e-14 -1.41983701e-15 -3.50845849e-16)
5(-8.40554509e-13 -9.125310878e-14 -1.032931327e-14 -1.21167981e-15 -2.88163563e-16)
5(-8.104265163e-13 -8.646312941e-14 -9.557762372e-15 -1.042977789e-15 -2.320670545e-16)
5(-7.172602774e-13 -7.953524618e-14 -8.619292997e-15 -8.914046222e-16 -1.923941251e-16)
5(-6.458324764e-13 -7.235401944e-14 -7.66675019e-15 -7.646271543e-16 -1.593691347e-16)