/*--------------------------------*- C++ -*----------------------------------*\
| =========                 |                                                 |
| \\      /  F ield         | OpenFOAM: The Open Source CFD Toolbox           |
|  \\    /   O peration     | Version:  2.3.1                                 |
|   \\  /    A nd           | Web:      www.OpenFOAM.org                      |
|    \\/     M anipulation  |                                                 |
\*---------------------------------------------------------------------------*/
FoamFile
{
    version     2.0;
    format      ascii;
    class       dictionary;
    location    "constant";
    object      DPSI57;
}
// * * * * * * * * * * * * * * * * * * * * * * * * * * * * * * * * * * * * * //

DPSI57_table
60
(

60
(
5(1.110348746e-15 -1.314478896e-15 -1.183166767e-15 -5.823807629e-15 -1.299072997e-14)
5(6.954261918e-16 -2.956069537e-16 -4.992527159e-16 -3.632687174e-16 -9.990933926e-16)
5(6.702320708e-14 3.746720429e-14 1.871574105e-19 1.958369963e-16 2.540668752e-16)
5(2.081711948e-13 1.245643289e-13 2.077994117e-16 1.026089711e-16 -1.853366727e-16)
5(2.905777487e-13 1.621991502e-13 4.271775635e-17 2.600019075e-16 2.346054889e-16)
5(2.603803011e-13 1.356201196e-13 -8.003362715e-17 -7.021821538e-17 2.317165955e-16)
5(2.058638711e-16 7.514179238e-17 4.129611776e-18 -5.782415354e-16 -1.229558241e-15)
5(-2.63385647e-16 -4.060500058e-16 -9.435536364e-17 4.063462797e-16 4.548161393e-16)
5(3.731755436e-13 1.917136942e-13 -9.711271505e-17 2.432783887e-16 1.730881889e-16)
5(6.477159538e-13 3.339749932e-13 6.477369146e-16 5.155543962e-16 -1.351330528e-16)
5(7.454664059e-13 3.839692586e-13 1.08977061e-15 3.825844727e-16 -1.943428339e-16)
5(2.621313821e-13 1.343370716e-13 -1.393088662e-16 -5.604659737e-17 -4.941720757e-16)
5(-1.171259366e-15 -8.266085417e-16 -5.267903901e-16 -6.107249898e-16 -5.980078032e-16)
5(-1.110956256e-15 -9.102942097e-16 -8.555154288e-17 -3.883708471e-16 -1.283297236e-15)
5(-1.786162096e-15 -1.322588012e-15 -7.69924846e-16 -5.455239683e-16 -3.464033656e-16)
5(2.069958293e-14 1.188796489e-14 1.566533063e-15 5.219527969e-16 4.511547195e-16)
5(1.970189045e-14 9.856891863e-15 1.137573563e-15 6.912894004e-16 -1.390607745e-15)
5(3.078661488e-15 2.233418429e-15 -2.775257578e-16 -1.826919585e-15 -1.756836488e-15)
5(-8.199443932e-15 -5.083843759e-15 -1.869660484e-15 -2.815067338e-15 -3.642796567e-15)
5(-9.418537251e-15 -7.248375096e-15 -4.751607779e-15 -1.084498369e-15 2.532887273e-15)
5(-1.143411368e-14 -8.511666054e-15 -5.905203929e-15 -4.750173177e-16 5.610887157e-15)
5(-1.4641075e-14 -1.326343086e-14 -9.272418498e-16 7.341820233e-15 4.825367909e-15)
5(-1.977406963e-14 -1.537257226e-14 -5.123531486e-15 5.210028476e-15 1.009265281e-14)
5(-3.741391248e-14 -2.204254465e-14 -2.071096031e-15 1.114909827e-14 2.056862107e-14)
5(-6.459769201e-14 -3.055396678e-14 1.588165161e-15 1.772606744e-14 3.724009058e-14)
5(-1.213224253e-13 -5.409521061e-14 6.69785044e-15 3.93815942e-14 8.126775817e-14)
5(-1.392286396e-13 -6.708060496e-14 -1.490221761e-14 4.735515704e-14 1.33225304e-13)
5(-1.4844603e-13 -1.135485297e-13 -5.536506039e-14 8.899304491e-14 2.135853782e-13)
5(-2.120344203e-13 -1.362666363e-13 -4.971131664e-14 1.203230982e-13 2.848145123e-13)
5(-3.550843709e-13 -1.86497135e-13 8.483727583e-15 1.999960977e-13 3.72929613e-13)
5(-5.242566203e-13 -2.847058547e-13 1.842963471e-14 3.539403126e-13 6.370925869e-13)
5(-6.849746885e-13 -3.132741456e-13 1.842214891e-13 6.673418065e-13 1.038079853e-12)
5(-1.023553429e-12 -4.488259545e-13 3.8981056e-13 8.544933781e-13 1.0728776e-12)
5(-1.423568208e-12 -6.224130551e-13 8.620136448e-13 1.824452316e-12 2.123348172e-12)
5(-1.522377099e-12 -4.899539527e-13 1.396884052e-12 2.551158056e-12 2.871404068e-12)
5(-2.27078123e-12 -9.116163706e-13 2.524235924e-12 4.209924704e-12 3.835687645e-12)
5(-9.20071906e-13 8.790717707e-13 3.622341569e-12 4.150410967e-12 3.745155623e-12)
5(-1.107992098e-12 2.034291675e-12 5.424070608e-12 6.072292961e-12 6.49514916e-12)
5(1.075858306e-12 3.47613752e-12 7.364435594e-12 6.770480146e-12 4.663001051e-12)
5(4.746012062e-12 5.843612775e-12 9.183514032e-12 9.225169233e-12 6.90393008e-12)
5(9.805787636e-12 1.001249248e-11 9.882900945e-12 7.461610451e-12 5.234267445e-12)
5(1.271008271e-11 1.240780877e-11 1.043581985e-11 6.103020542e-12 3.304830348e-12)
5(1.814814546e-11 1.483009243e-11 9.724525374e-12 4.058676789e-12 -3.499255633e-17)
5(1.936426139e-11 1.318723867e-11 8.434719945e-12 4.99585196e-12 -9.257806476e-14)
5(2.064659182e-11 1.338740459e-11 5.61229398e-12 2.663943729e-12 -8.37610003e-15)
5(1.531057761e-11 1.079699414e-11 3.78042269e-12 7.202890174e-13 -2.418669924e-16)
5(1.116343198e-11 7.241748053e-12 1.776751698e-12 1.933695555e-13 1.930783038e-14)
5(9.503721674e-12 5.022495821e-12 2.58418378e-13 4.219886108e-14 -8.062208301e-16)
5(3.746002492e-12 2.00483181e-12 1.143122999e-13 3.673834796e-15 -1.439139503e-15)
5(1.498674331e-12 7.568057702e-13 1.302430552e-15 -1.949669805e-15 -2.500258483e-15)
5(5.441541481e-13 2.73913069e-13 -1.722478645e-15 -3.333104682e-15 -4.25481867e-15)
5(1.050832291e-13 5.23810001e-14 -2.90580597e-15 -5.578519422e-15 -7.111765223e-15)
5(-5.061083369e-17 -1.474148043e-15 -4.817870769e-15 -9.168365005e-15 -1.166084601e-14)
5(-2.305841315e-15 -3.583928277e-15 -7.851028256e-15 -1.489765605e-14 -1.902969744e-14)
5(-3.74190364e-15 -5.840624716e-15 -1.263396336e-14 -2.373493794e-14 -3.026366265e-14)
5(-4.539591142e-15 -8.648276445e-15 -1.988297811e-14 -3.713109367e-14 -4.748477398e-14)
5(-3.688682465e-15 -1.193232684e-14 -3.079061223e-14 -5.632106788e-14 -7.164503876e-14)
5(-1.076975007e-14 -1.901833405e-14 -4.433899301e-14 -8.298777108e-14 -1.050410677e-13)
5(-2.393442221e-14 -3.675262589e-14 -4.967427892e-14 -1.145706104e-13 -1.813653631e-13)
5(-4.47690254e-14 -7.058050948e-14 -1.546005472e-13 -2.432854632e-13 -2.739505212e-13)
)


60
(
5(9.984179284e-16 -4.614837194e-15 -6.74950391e-15 -3.341261185e-14 -6.267966061e-14)
5(-7.296661567e-16 -2.475103863e-15 -4.366787368e-15 -1.270934682e-14 -2.011637843e-14)
5(-1.989852661e-15 -2.126749413e-15 -4.285665822e-15 -8.631988496e-15 -1.032564177e-14)
5(-3.187635358e-15 -2.90016459e-15 -6.207135606e-15 -1.165724898e-14 -1.274307846e-14)
5(-4.465825816e-15 -5.00877868e-15 -1.061416026e-14 -2.236805733e-14 -2.789960247e-14)
5(-6.294769777e-15 -8.508829685e-15 -1.803307038e-14 -4.278925148e-14 -5.85952075e-14)
5(-9.016057381e-15 -1.298026191e-14 -2.751381837e-14 -6.741026525e-14 -9.4586725e-14)
5(-1.315992344e-14 -1.86365877e-14 -3.963985012e-14 -9.44129429e-14 -1.309508532e-13)
5(-1.904585595e-14 -2.596939985e-14 -5.551575232e-14 -1.274016487e-13 -1.733270221e-13)
5(-2.734866929e-14 -3.638855561e-14 -7.65798039e-14 -1.745741062e-13 -2.372985589e-13)
5(-3.735040049e-14 -5.044907005e-14 -1.042315121e-13 -2.321925953e-13 -3.146133873e-13)
5(-5.146871545e-14 -6.959755488e-14 -1.391641648e-13 -3.015432172e-13 -4.069311781e-13)
5(-6.919925815e-14 -9.361655778e-14 -1.816349831e-13 -3.853890233e-13 -5.192242295e-13)
5(-9.147376199e-14 -1.230081626e-13 -2.307450603e-13 -4.730369863e-13 -6.320138241e-13)
5(-1.195243309e-13 -1.583799235e-13 -2.865863635e-13 -5.668986897e-13 -7.500087322e-13)
5(-1.546543535e-13 -2.008888398e-13 -3.487549481e-13 -6.647462677e-13 -8.705459811e-13)
5(-1.946659699e-13 -2.49705675e-13 -4.165547868e-13 -7.617365656e-13 -9.858951115e-13)
5(-2.451233478e-13 -3.073502273e-13 -4.886679537e-13 -8.49950528e-13 -1.08224988e-12)
5(-3.063324029e-13 -3.738317377e-13 -5.642219184e-13 -9.287575677e-13 -1.159740449e-12)
5(-3.798873958e-13 -4.497318386e-13 -6.427002612e-13 -9.903584333e-13 -1.20328524e-12)
5(-4.688210656e-13 -5.375145899e-13 -7.239985662e-13 -1.046675574e-12 -1.238878634e-12)
5(-5.767578524e-13 -6.404623851e-13 -8.095092347e-13 -1.085338464e-12 -1.241708888e-12)
5(-7.207664983e-13 -7.678393388e-13 -9.042076545e-13 -1.11407827e-12 -1.218540792e-12)
5(-9.169172455e-13 -9.335281933e-13 -1.01905723e-12 -1.14221164e-12 -1.177446223e-12)
5(-1.161939136e-12 -1.141259472e-12 -1.168820894e-12 -1.180306884e-12 -1.120565007e-12)
5(-1.526658216e-12 -1.437826034e-12 -1.37568348e-12 -1.237138892e-12 -1.042763202e-12)
5(-2.02854425e-12 -1.850801211e-12 -1.67012896e-12 -1.319672685e-12 -9.343948849e-13)
5(-2.761736448e-12 -2.442441194e-12 -2.077006088e-12 -1.423713395e-12 -7.660877085e-13)
5(-3.7965039e-12 -3.281183414e-12 -2.636697551e-12 -1.539635304e-12 -5.040057205e-13)
5(-5.30173467e-12 -4.482490782e-12 -3.38465248e-12 -1.655596234e-12 -1.133757901e-13)
5(-7.350103779e-12 -6.122460136e-12 -4.334537086e-12 -1.624840015e-12 6.479348644e-13)
5(-1.016755987e-11 -8.281847723e-12 -5.417504052e-12 -1.343034551e-12 1.919211694e-12)
5(-1.379377141e-11 -1.104116609e-11 -6.538088418e-12 -5.410914628e-13 3.922862204e-12)
5(-1.833852868e-11 -1.431352821e-11 -7.380080331e-12 1.39031483e-12 7.534404207e-12)
5(-2.359881071e-11 -1.784788415e-11 -7.321817056e-12 5.016503954e-12 1.293158019e-11)
5(-2.897650159e-11 -2.105733097e-11 -5.722526296e-12 1.106419015e-11 2.085576765e-11)
5(-3.338787612e-11 -2.287117407e-11 -1.450263483e-12 2.022745876e-11 3.147641199e-11)
5(-3.590540531e-11 -2.20774832e-11 6.617773676e-12 3.302067309e-11 4.507066496e-11)
5(-3.344564202e-11 -1.665321663e-11 1.923502971e-11 5.003669583e-11 6.224659523e-11)
5(-2.509182099e-11 -4.942429859e-12 3.764001363e-11 7.126927543e-11 8.292576356e-11)
5(-7.166246335e-12 1.465402943e-11 6.041204537e-11 9.431158331e-11 1.046056447e-10)
5(1.824553879e-11 4.058015376e-11 8.6901544e-11 1.159190779e-10 1.210782875e-10)
5(5.330914177e-11 7.179451451e-11 1.124722641e-10 1.298876639e-10 1.249073096e-10)
5(9.357498098e-11 1.030969189e-10 1.312912919e-10 1.321144354e-10 1.136532749e-10)
5(1.278431581e-10 1.283469355e-10 1.390171078e-10 1.205376441e-10 9.095471474e-11)
5(1.501400187e-10 1.416058203e-10 1.31358304e-10 9.734625982e-11 6.391898417e-11)
5(1.546733297e-10 1.391714921e-10 1.097549023e-10 6.810562846e-11 3.922251369e-11)
5(1.391144049e-10 1.193520856e-10 7.975161525e-11 4.075874099e-11 2.057289843e-11)
5(1.098806281e-10 8.882993873e-11 4.949247381e-11 2.054805777e-11 9.050451455e-12)
5(7.317561722e-11 5.526939673e-11 2.546683913e-11 8.726425516e-12 3.285465294e-12)
5(4.068005621e-11 2.864039032e-11 1.064986056e-11 3.059351098e-12 1.064727069e-12)
5(1.724088901e-11 1.152418038e-11 3.612122129e-12 9.546276859e-13 3.320955334e-13)
5(5.947500006e-12 3.804820457e-12 1.052759748e-12 3.030857352e-13 1.033320194e-13)
5(1.488722092e-12 9.556211285e-13 2.987616394e-13 1.057200019e-13 2.076774475e-14)
5(3.474597264e-13 2.39363721e-13 1.049756445e-13 2.479926733e-14 -3.314075871e-14)
5(9.06770674e-14 6.320274338e-14 2.297399925e-14 -3.763401238e-14 -8.719464572e-14)
5(-3.885812886e-15 -1.43895331e-14 -4.097778077e-14 -1.046228639e-13 -1.53358694e-13)
5(-7.015809623e-14 -7.512472645e-14 -1.063982863e-13 -1.833915924e-13 -2.351015949e-13)
5(-1.121299193e-13 -1.232224724e-13 -1.805243448e-13 -2.873172283e-13 -3.492633654e-13)
5(-1.606710267e-13 -1.853732495e-13 -2.925881114e-13 -4.359873832e-13 -4.979283062e-13)
)


60
(
5(4.318571517e-16 -1.173733173e-14 -2.27357229e-14 -1.001571105e-13 -1.762423493e-13)
5(-3.073053913e-15 -8.457746919e-15 -1.950445423e-14 -6.090316127e-14 -9.372794679e-14)
5(-6.815225887e-15 -9.076118482e-15 -2.274920172e-14 -5.732462306e-14 -7.750694604e-14)
5(-1.099518242e-14 -1.331616306e-14 -3.335989377e-14 -8.036713225e-14 -1.05925157e-13)
5(-1.645835536e-14 -2.215901912e-14 -5.326758563e-14 -1.293743038e-13 -1.752952694e-13)
5(-2.397897386e-14 -3.592992168e-14 -8.31198114e-14 -2.094028515e-13 -2.94494741e-13)
5(-3.480054386e-14 -5.391886957e-14 -1.21393068e-13 -3.028584803e-13 -4.288115918e-13)
5(-5.028770659e-14 -7.643940324e-14 -1.694035024e-13 -4.095251893e-13 -5.742577534e-13)
5(-7.218044334e-14 -1.056898839e-13 -2.299587851e-13 -5.385847381e-13 -7.462135034e-13)
5(-1.003404039e-13 -1.442101783e-13 -3.073707093e-13 -6.960927287e-13 -9.537414148e-13)
5(-1.367038178e-13 -1.948303439e-13 -4.039583034e-13 -8.920379298e-13 -1.215825354e-12)
5(-1.81628853e-13 -2.585179705e-13 -5.207003063e-13 -1.121074663e-12 -1.521549225e-12)
5(-2.396425081e-13 -3.377174173e-13 -6.55989032e-13 -1.369731138e-12 -1.847411649e-12)
5(-3.102702483e-13 -4.312437354e-13 -8.082977727e-13 -1.628139412e-12 -2.17479943e-12)
5(-3.950959457e-13 -5.403769975e-13 -9.744545152e-13 -1.893905116e-12 -2.506442811e-12)
5(-4.920656784e-13 -6.633838403e-13 -1.151687107e-12 -2.150732291e-12 -2.81374584e-12)
5(-6.141877787e-13 -8.07076149e-13 -1.334893119e-12 -2.384858738e-12 -3.0799517e-12)
5(-7.53515096e-13 -9.64248579e-13 -1.518707245e-12 -2.596451138e-12 -3.309542103e-12)
5(-9.086054466e-13 -1.134883275e-12 -1.700442041e-12 -2.764246869e-12 -3.466984625e-12)
5(-1.086240781e-12 -1.319827297e-12 -1.874966713e-12 -2.882839798e-12 -3.546147643e-12)
5(-1.275506597e-12 -1.514580339e-12 -2.041780672e-12 -2.949184299e-12 -3.544215502e-12)
5(-1.508206904e-12 -1.734177111e-12 -2.201470301e-12 -2.997034341e-12 -3.525288074e-12)
5(-1.77965165e-12 -1.976044725e-12 -2.359942244e-12 -3.00657443e-12 -3.437197116e-12)
5(-2.092820057e-12 -2.252138885e-12 -2.536754191e-12 -3.006696206e-12 -3.319735636e-12)
5(-2.488691675e-12 -2.596738969e-12 -2.761320545e-12 -3.01795465e-12 -3.181875908e-12)
5(-3.033598684e-12 -3.062937686e-12 -3.083640925e-12 -3.086732909e-12 -3.054951929e-12)
5(-3.765015725e-12 -3.696308138e-12 -3.532469394e-12 -3.216482679e-12 -2.942395536e-12)
5(-4.739804722e-12 -4.555509372e-12 -4.209884951e-12 -3.474621466e-12 -2.833138338e-12)
5(-6.273686223e-12 -5.86901613e-12 -5.17969241e-12 -3.888364938e-12 -2.793075947e-12)
5(-8.332731083e-12 -7.708028953e-12 -6.581672483e-12 -4.511097659e-12 -2.826899002e-12)
5(-1.141060204e-11 -1.036199487e-11 -8.484468165e-12 -5.124806309e-12 -2.436847505e-12)
5(-1.568195309e-11 -1.398867145e-11 -1.09444505e-11 -5.835136893e-12 -1.863880808e-12)
5(-2.135228912e-11 -1.881476395e-11 -1.397583074e-11 -6.071557221e-12 -1.83717759e-13)
5(-2.871086425e-11 -2.493842921e-11 -1.715016833e-11 -5.543666181e-12 2.41738708e-12)
5(-3.788910024e-11 -3.224769863e-11 -2.00471093e-11 -3.051253946e-12 7.865648748e-12)
5(-4.819568826e-11 -4.006021245e-11 -2.173596397e-11 2.227942648e-12 1.660589254e-11)
5(-5.823039797e-11 -4.715395111e-11 -2.083431322e-11 1.155879265e-11 2.942567267e-11)
5(-6.891481798e-11 -5.281602916e-11 -1.53173979e-11 2.67738547e-11 4.832591444e-11)
5(-7.450865864e-11 -5.268734739e-11 -2.909157943e-12 4.933703994e-11 7.460796774e-11)
5(-7.338802969e-11 -4.53644245e-11 1.797436384e-11 8.054422605e-11 1.088569395e-10)
5(-6.161005616e-11 -2.756691539e-11 4.862032704e-11 1.1998199e-10 1.50267821e-10)
5(-3.54800095e-11 3.627667508e-12 8.905297523e-11 1.624991431e-10 1.905877563e-10)
5(5.933873195e-12 4.667838413e-11 1.355200492e-10 2.008336895e-10 2.187250055e-10)
5(5.979589422e-11 9.745503301e-11 1.812506608e-10 2.267346361e-10 2.263018117e-10)
5(1.217241067e-10 1.505282896e-10 2.159532607e-10 2.319930283e-10 2.110821661e-10)
5(1.779362577e-10 1.949743981e-10 2.305318391e-10 2.137189676e-10 1.775659126e-10)
5(2.15093151e-10 2.201284479e-10 2.20209904e-10 1.744830016e-10 1.325588059e-10)
5(2.276945045e-10 2.181836668e-10 1.852415907e-10 1.252601587e-10 8.735385571e-11)
5(2.109664497e-10 1.888986721e-10 1.354192739e-10 7.758071249e-11 4.977878994e-11)
5(1.678775137e-10 1.400598001e-10 8.467057631e-11 4.101336908e-11 2.370305085e-11)
5(1.132820614e-10 8.76885144e-11 4.391070973e-11 1.816877578e-11 9.684685049e-12)
5(6.101301913e-11 4.42889403e-11 1.851524901e-11 6.644538495e-12 3.270917773e-12)
5(2.526918404e-11 1.745665766e-11 6.320248492e-12 2.155043097e-12 1.066381349e-12)
5(7.662173574e-12 5.196151964e-12 1.857953943e-12 7.199107571e-13 3.751406521e-13)
5(1.880898076e-12 1.317405152e-12 6.034054769e-13 3.114703171e-13 1.499794821e-13)
5(4.758780659e-13 3.791218712e-13 2.590493034e-13 1.220035988e-13 2.761380233e-15)
5(1.504941419e-13 1.262023174e-13 8.348416489e-14 -3.515841609e-14 -1.382573307e-13)
5(-1.499632247e-14 -2.588189528e-14 -7.369384293e-14 -2.020172317e-13 -2.955329597e-13)
5(-1.2371897e-13 -1.576692399e-13 -2.380466203e-13 -3.910038161e-13 -5.00491581e-13)
5(-2.832879672e-13 -3.32252981e-13 -4.786647269e-13 -6.382252541e-13 -7.0201057e-13)
)


60
(
5(-1.478044244e-15 -2.477300945e-14 -5.569896282e-14 -2.206576025e-13 -3.732919955e-13)
5(-8.397810029e-15 -2.115261927e-14 -5.367026466e-14 -1.670407748e-13 -2.542458298e-13)
5(-1.687313242e-14 -2.499298586e-14 -6.575133283e-14 -1.756049609e-13 -2.456928394e-13)
5(-2.727957894e-14 -3.730814731e-14 -9.470950045e-14 -2.375108925e-13 -3.244579833e-13)
5(-4.082529125e-14 -5.96924355e-14 -1.437399105e-13 -3.579489938e-13 -4.968476865e-13)
5(-5.931864639e-14 -9.262584651e-14 -2.13935873e-13 -5.365847266e-13 -7.595872339e-13)
5(-8.548753834e-14 -1.355132906e-13 -3.035288284e-13 -7.443079705e-13 -1.053868823e-12)
5(-1.224003425e-13 -1.893933765e-13 -4.135325557e-13 -9.768749769e-13 -1.367858015e-12)
5(-1.716645777e-13 -2.572240939e-13 -5.491448548e-13 -1.25423531e-12 -1.735439375e-12)
5(-2.346498822e-13 -3.445291819e-13 -7.174597951e-13 -1.588675599e-12 -2.177250388e-12)
5(-3.148380082e-13 -4.560604706e-13 -9.220617846e-13 -1.986938078e-12 -2.705767668e-12)
5(-4.139758091e-13 -5.944884018e-13 -1.162560829e-12 -2.428717455e-12 -3.284831688e-12)
5(-5.348971821e-13 -7.605970874e-13 -1.435421015e-12 -2.902162155e-12 -3.896223286e-12)
5(-6.859264841e-13 -9.560388298e-13 -1.735551946e-12 -3.391580745e-12 -4.513426756e-12)
5(-8.630859195e-13 -1.178886994e-12 -2.056982688e-12 -3.859401166e-12 -5.073942438e-12)
5(-1.066438964e-12 -1.429225674e-12 -2.393340406e-12 -4.307918039e-12 -5.594833334e-12)
5(-1.29514543e-12 -1.703820369e-12 -2.732216005e-12 -4.702933964e-12 -6.026830559e-12)
5(-1.573170847e-12 -2.011507203e-12 -3.062285354e-12 -5.022603431e-12 -6.342360993e-12)
5(-1.849301166e-12 -2.32161498e-12 -3.379352149e-12 -5.273019261e-12 -6.552180355e-12)
5(-2.193905794e-12 -2.665706022e-12 -3.66348847e-12 -5.411642021e-12 -6.602896429e-12)
5(-2.551642366e-12 -3.006715937e-12 -3.90740887e-12 -5.461949378e-12 -6.537911586e-12)
5(-2.86351452e-12 -3.323795601e-12 -4.121893907e-12 -5.469058989e-12 -6.444684685e-12)
5(-3.243750232e-12 -3.676033925e-12 -4.301383619e-12 -5.368361567e-12 -6.206635787e-12)
5(-3.798657328e-12 -4.120285791e-12 -4.467776675e-12 -5.245487044e-12 -5.957265914e-12)
5(-4.300623807e-12 -4.53879714e-12 -4.667516149e-12 -5.088674933e-12 -5.574617491e-12)
5(-4.920935774e-12 -5.07148317e-12 -4.964082034e-12 -5.039111006e-12 -5.321455733e-12)
5(-5.701656001e-12 -5.783122134e-12 -5.43873727e-12 -5.112324664e-12 -5.153515777e-12)
5(-6.818108078e-12 -6.791817448e-12 -6.178676584e-12 -5.337450251e-12 -5.012094204e-12)
5(-8.393832391e-12 -8.246008247e-12 -7.333018306e-12 -5.904238913e-12 -5.152394747e-12)
5(-1.071457517e-11 -1.041745979e-11 -9.084884126e-12 -6.754367465e-12 -5.345424624e-12)
5(-1.410687208e-11 -1.361169877e-11 -1.165997332e-11 -8.133057984e-12 -5.913897845e-12)
5(-1.895761878e-11 -1.813530283e-11 -1.522066602e-11 -9.820225964e-12 -6.312051121e-12)
5(-2.568683045e-11 -2.438850323e-11 -1.997215988e-11 -1.175970049e-11 -6.396088777e-12)
5(-3.496112294e-11 -3.272509358e-11 -2.560464365e-11 -1.320855692e-11 -5.332580605e-12)
5(-4.686991995e-11 -4.321592133e-11 -3.195356254e-11 -1.388394907e-11 -2.941428228e-12)
5(-6.17069996e-11 -5.568509456e-11 -3.820014075e-11 -1.157795794e-11 4.227043706e-12)
5(-7.831180277e-11 -6.930292518e-11 -4.288034312e-11 -5.470719739e-12 1.534085746e-11)
5(-9.539267244e-11 -8.188126549e-11 -4.358716117e-11 6.688657696e-12 3.319352596e-11)
5(-1.1096509e-10 -9.144321667e-11 -3.765331655e-11 2.860578415e-11 6.182484368e-11)
5(-1.211226806e-10 -9.401357976e-11 -2.165500529e-11 6.246012343e-11 1.027656183e-10)
5(-1.208162594e-10 -8.416514531e-11 7.81691285e-12 1.097973783e-10 1.581033107e-10)
5(-1.064508964e-10 -5.932804793e-11 5.242344196e-11 1.665852209e-10 2.178886944e-10)
5(-7.019625281e-11 -1.535160448e-11 1.111734186e-10 2.271908783e-10 2.731921946e-10)
5(-1.265899914e-11 4.597667571e-11 1.787027976e-10 2.799955994e-10 3.084997826e-10)
5(6.467860961e-11 1.212640446e-10 2.438153889e-10 3.134182424e-10 3.177942463e-10)
5(1.509651971e-10 1.992598116e-10 2.925068156e-10 3.185678596e-10 2.997596466e-10)
5(2.315330917e-10 2.653972905e-10 3.118588354e-10 2.901735945e-10 2.553368172e-10)
5(2.919220536e-10 3.040215044e-10 2.965711049e-10 2.363991648e-10 1.945977198e-10)
5(3.168495702e-10 3.035135711e-10 2.482983159e-10 1.686280119e-10 1.2915577e-10)
5(2.995916626e-10 2.646507305e-10 1.806390829e-10 1.03363337e-10 7.322589758e-11)
5(2.452297483e-10 1.984532891e-10 1.111194698e-10 5.404556392e-11 3.562319737e-11)
5(1.683987005e-10 1.246732399e-10 5.621241182e-11 2.362175329e-11 1.420378602e-11)
5(9.00015433e-11 6.251118885e-11 2.309242008e-11 8.483718736e-12 4.869493109e-12)
5(3.690772641e-11 2.435083286e-11 7.57881343e-12 2.703147016e-12 1.625309791e-12)
5(1.148617086e-11 7.345286283e-12 2.210898692e-12 1.004141038e-12 6.517954694e-13)
5(2.485332173e-12 1.714844857e-12 8.055200098e-13 4.928189942e-13 2.891374762e-13)
5(5.703443922e-13 5.077753702e-13 3.982028447e-13 1.918075012e-13 2.621517142e-14)
5(2.168472871e-13 2.028553453e-13 1.195188303e-13 -9.486816625e-14 -2.437616838e-13)
5(-1.817048057e-13 -3.872240332e-14 -1.367466979e-13 -4.01906071e-13 -4.21724199e-13)
5(-3.624505149e-13 -2.80332855e-13 -6.460314759e-13 -1.033419248e-12 -9.665288478e-13)
)


60
(
5(-5.666940313e-15 -4.577322632e-14 -1.117706549e-13 -4.046369781e-13 -6.64673904e-13)
5(-1.816174788e-14 -4.350451064e-14 -1.147010876e-13 -3.487575469e-13 -5.261957905e-13)
5(-3.439796195e-14 -5.384889966e-14 -1.423869928e-13 -3.834379162e-13 -5.430126463e-13)
5(-5.476751195e-14 -7.971266166e-14 -2.005269456e-13 -5.056991415e-13 -7.00852647e-13)
5(-8.147558031e-14 -1.237778814e-13 -2.933563825e-13 -7.255042916e-13 -1.014602626e-12)
5(-1.17840604e-13 -1.86133081e-13 -4.216187389e-13 -1.034760286e-12 -1.463831846e-12)
5(-1.675546743e-13 -2.663135331e-13 -5.825993451e-13 -1.393984209e-12 -1.96968597e-12)
5(-2.360250832e-13 -3.663163387e-13 -7.791064538e-13 -1.79255988e-12 -2.503356571e-12)
5(-3.260530323e-13 -4.906232409e-13 -1.017536909e-12 -2.261044521e-12 -3.11981538e-12)
5(-4.400135147e-13 -6.479346654e-13 -1.307381941e-12 -2.809917802e-12 -3.836789504e-12)
5(-5.835047583e-13 -8.454874649e-13 -1.652155969e-12 -3.452860054e-12 -4.6837998e-12)
5(-7.566068548e-13 -1.085222743e-12 -2.051747915e-12 -4.14940887e-12 -5.583678543e-12)
5(-9.72500146e-13 -1.371337511e-12 -2.498453199e-12 -4.886261699e-12 -6.520236653e-12)
5(-1.22004264e-12 -1.696969051e-12 -2.985075933e-12 -5.615205919e-12 -7.408314936e-12)
5(-1.528652525e-12 -2.075067645e-12 -3.50035929e-12 -6.331454235e-12 -8.257493428e-12)
5(-1.881280941e-12 -2.496830333e-12 -4.033931981e-12 -6.990846156e-12 -8.999338638e-12)
5(-2.265440481e-12 -2.949317724e-12 -4.5652079e-12 -7.561304844e-12 -9.598329363e-12)
5(-2.714043026e-12 -3.441723007e-12 -5.072900832e-12 -8.007524345e-12 -1.001076346e-11)
5(-3.198476651e-12 -3.956222845e-12 -5.543777716e-12 -8.318622592e-12 -1.023377219e-11)
5(-3.723601459e-12 -4.484031242e-12 -5.954099547e-12 -8.480638217e-12 -1.026558653e-11)
5(-4.272230189e-12 -5.013601209e-12 -6.300242889e-12 -8.478557164e-12 -1.007697442e-11)
5(-4.858916554e-12 -5.547637332e-12 -6.564102569e-12 -8.36923914e-12 -9.809332728e-12)
5(-5.460824953e-12 -6.062586944e-12 -6.750663013e-12 -8.091285344e-12 -9.304662249e-12)
5(-6.060875932e-12 -6.550432555e-12 -6.869344694e-12 -7.783837606e-12 -8.824919931e-12)
5(-6.686910849e-12 -7.046786704e-12 -6.96834114e-12 -7.368552406e-12 -8.158330514e-12)
5(-7.471271779e-12 -7.65984986e-12 -7.113580858e-12 -7.043281905e-12 -7.653451999e-12)
5(-8.223624784e-12 -8.376472046e-12 -7.462330031e-12 -6.803649145e-12 -7.152948434e-12)
5(-9.164025843e-12 -9.271322648e-12 -8.046035755e-12 -6.806201989e-12 -6.832653978e-12)
5(-1.050375645e-11 -1.059122956e-11 -9.098692232e-12 -7.267961822e-12 -6.94083517e-12)
5(-1.26577694e-11 -1.27094595e-11 -1.085306228e-11 -8.250524432e-12 -7.462936595e-12)
5(-1.581219109e-11 -1.589988326e-11 -1.361158459e-11 -9.928992822e-12 -8.50624163e-12)
5(-2.046047783e-11 -2.061116657e-11 -1.78462286e-11 -1.275353462e-11 -1.042666244e-11)
5(-2.745281814e-11 -2.752952917e-11 -2.371058879e-11 -1.58029318e-11 -1.158147396e-11)
5(-3.740729985e-11 -3.718207556e-11 -3.13357027e-11 -1.95881992e-11 -1.317593946e-11)
5(-5.050744667e-11 -4.968851336e-11 -4.073588707e-11 -2.32891215e-11 -1.358271145e-11)
5(-6.726580451e-11 -6.536846581e-11 -5.1293174e-11 -2.552297689e-11 -1.13984128e-11)
5(-8.769055952e-11 -8.406496064e-11 -6.194789978e-11 -2.479343152e-11 -5.434949492e-12)
5(-1.116409574e-10 -1.04535801e-10 -7.066967954e-11 -1.863795429e-11 7.55138638e-12)
5(-1.36492152e-10 -1.238383184e-10 -7.381761278e-11 -3.121259343e-12 3.140412721e-11)
5(-1.587060718e-10 -1.380739677e-10 -6.773278161e-11 2.607369599e-11 7.171088158e-11)
5(-1.737056476e-10 -1.424202798e-10 -4.763586029e-11 7.223476543e-11 1.30529969e-10)
5(-1.745539285e-10 -1.308274859e-10 -8.825266535e-12 1.346554339e-10 2.021001279e-10)
5(-1.544880818e-10 -9.699785233e-11 5.170399284e-11 2.09853326e-10 2.792214008e-10)
5(-1.088328645e-10 -3.881104251e-11 1.31510429e-10 2.871931847e-10 3.449383248e-10)
5(-3.32954612e-11 4.59023929e-11 2.220190117e-10 3.525154894e-10 3.881392085e-10)
5(6.552707996e-11 1.47633045e-10 3.087696441e-10 3.931280341e-10 3.999431812e-10)
5(1.815968582e-10 2.567781836e-10 3.733700683e-10 3.959737608e-10 3.779499548e-10)
5(2.956611461e-10 3.521171993e-10 4.012232454e-10 3.584883403e-10 3.230681001e-10)
5(3.861969396e-10 4.094273234e-10 3.82920735e-10 2.897330979e-10 2.452748153e-10)
5(4.346600715e-10 4.157472072e-10 3.214756759e-10 2.061721388e-10 1.642732606e-10)
5(4.261442359e-10 3.694426317e-10 2.344242678e-10 1.258732071e-10 9.295256067e-11)
5(3.628180924e-10 2.847924247e-10 1.441203197e-10 6.409524332e-11 4.378655316e-11)
5(2.558554205e-10 1.854434833e-10 7.485636611e-11 2.708687983e-11 1.705228554e-11)
5(1.456641946e-10 9.844151875e-11 3.13072912e-11 9.275970615e-12 5.572177549e-12)
5(6.25603708e-11 3.960008656e-11 1.002168963e-11 3.043430324e-12 1.915538019e-12)
5(2.228378685e-11 1.33827747e-11 2.914490348e-12 1.268203215e-12 8.877447004e-13)
5(4.914268998e-12 3.150065118e-12 1.120482977e-12 6.685257365e-13 4.160778481e-13)
5(8.506992986e-13 7.810509499e-13 5.835354722e-13 2.352813386e-13 6.355461947e-15)
5(7.178274801e-14 2.519007831e-13 1.87808464e-13 -2.143316311e-13 -3.700484012e-13)
5(-3.857208014e-13 -4.673889426e-13 -4.718719444e-13 -7.871038687e-13 -1.189415152e-12)
)


60
(
5(-1.32284811e-14 -7.678740051e-14 -1.968437738e-13 -6.577114931e-13 -1.053399682e-12)
5(-3.398367921e-14 -7.84568798e-14 -2.094666451e-13 -6.159495902e-13 -9.206148937e-13)
5(-6.211650465e-14 -9.985554016e-14 -2.597731781e-13 -6.899474307e-13 -9.801428678e-13)
5(-9.67294312e-14 -1.457345926e-13 -3.577977389e-13 -8.995694257e-13 -1.258593992e-12)
5(-1.413331821e-13 -2.193468512e-13 -5.086786535e-13 -1.242642615e-12 -1.744803719e-12)
5(-2.021299716e-13 -3.213595972e-13 -7.123763181e-13 -1.705647821e-12 -2.406928407e-12)
5(-2.836911023e-13 -4.509059377e-13 -9.643275049e-13 -2.246425464e-12 -3.161932211e-12)
5(-3.950948735e-13 -6.116973387e-13 -1.267828487e-12 -2.836477976e-12 -3.944067811e-12)
5(-5.387207326e-13 -8.092590976e-13 -1.63232204e-12 -3.524113405e-12 -4.840347769e-12)
5(-7.207106475e-13 -1.057492287e-12 -2.06926006e-12 -4.321430394e-12 -5.87509483e-12)
5(-9.414835783e-13 -1.361581316e-12 -2.583541216e-12 -5.231255731e-12 -7.054114532e-12)
5(-1.219408918e-12 -1.733415541e-12 -3.171743536e-12 -6.207159591e-12 -8.296562539e-12)
5(-1.544160596e-12 -2.16467067e-12 -3.82493778e-12 -7.227856978e-12 -9.570833336e-12)
5(-1.93999498e-12 -2.664869029e-12 -4.53160414e-12 -8.23077316e-12 -1.076895479e-11)
5(-2.390880404e-12 -3.223279898e-12 -5.274357853e-12 -9.210136189e-12 -1.190907316e-11)
5(-2.921360289e-12 -3.850377836e-12 -6.034400991e-12 -1.008168361e-11 -1.285611106e-11)
5(-3.523290546e-12 -4.535637013e-12 -6.788384901e-12 -1.085607254e-11 -1.366558656e-11)
5(-4.182167426e-12 -5.260666749e-12 -7.510829446e-12 -1.143137071e-11 -1.416116905e-11)
5(-4.928854111e-12 -6.034798734e-12 -8.178247955e-12 -1.183512229e-11 -1.443323162e-11)
5(-5.68133626e-12 -6.803262989e-12 -8.758673818e-12 -1.199663043e-11 -1.437682583e-11)
5(-6.477899912e-12 -7.566701406e-12 -9.223029587e-12 -1.193404312e-11 -1.404929325e-11)
5(-7.379356096e-12 -8.351565405e-12 -9.562782667e-12 -1.170148259e-11 -1.356783418e-11)
5(-8.156740715e-12 -9.041805097e-12 -9.758535068e-12 -1.122247025e-11 -1.281771639e-11)
5(-8.931008342e-12 -9.683277362e-12 -9.835152132e-12 -1.06079929e-11 -1.194016998e-11)
5(-9.748558106e-12 -1.032121874e-11 -9.84112131e-12 -9.928817516e-12 -1.102365012e-11)
5(-1.04774851e-11 -1.092376839e-11 -9.813925836e-12 -9.144080491e-12 -9.981016089e-12)
5(-1.115932612e-11 -1.150534319e-11 -9.84394444e-12 -8.486683342e-12 -9.084342714e-12)
5(-1.202615347e-11 -1.226958446e-11 -1.008271894e-11 -8.109914594e-12 -8.511290632e-12)
5(-1.324317811e-11 -1.343355483e-11 -1.077242932e-11 -8.144781612e-12 -8.307030383e-12)
5(-1.485058922e-11 -1.519253437e-11 -1.219317702e-11 -8.771659029e-12 -8.624898669e-12)
5(-1.724491878e-11 -1.789212971e-11 -1.472242777e-11 -1.053760968e-11 -1.009800893e-11)
5(-2.128001021e-11 -2.226741007e-11 -1.877319417e-11 -1.342433122e-11 -1.247202738e-11)
5(-2.758938294e-11 -2.898912589e-11 -2.494172881e-11 -1.760384357e-11 -1.559932185e-11)
5(-3.704455456e-11 -3.882036991e-11 -3.369610916e-11 -2.350743121e-11 -2.006164938e-11)
5(-4.987163594e-11 -5.215823408e-11 -4.519915487e-11 -3.02181282e-11 -2.426071029e-11)
5(-6.736533843e-11 -6.97553354e-11 -5.933115973e-11 -3.703646178e-11 -2.723125627e-11)
5(-9.050301221e-11 -9.214194848e-11 -7.545581631e-11 -4.235431507e-11 -2.710229035e-11)
5(-1.183932871e-10 -1.180915291e-10 -9.150639552e-11 -4.398488237e-11 -2.20705499e-11)
5(-1.500724731e-10 -1.461126181e-10 -1.051207807e-10 -3.813767149e-11 -7.238521058e-12)