/*--------------------------------*- C++ -*----------------------------------*\
| =========                 |                                                 |
| \\      /  F ield         | OpenFOAM: The Open Source CFD Toolbox           |
|  \\    /   O peration     | Version:  2.3.1                                 |
|   \\  /    A nd           | Web:      www.OpenFOAM.org                      |
|    \\/     M anipulation  |                                                 |
\*---------------------------------------------------------------------------*/
FoamFile
{
    version     2.0;
    format      ascii;
    class       dictionary;
    location    "constant";
    object      DPSI27;
}
// * * * * * * * * * * * * * * * * * * * * * * * * * * * * * * * * * * * * * //

DPSI27_table
60
(

60
(
5(-1.666508902e-09 -3.32105318e-09 -3.916521935e-09 -6.078152039e-09 -8.779935703e-09)
5(-2.860554879e-09 -7.402462776e-09 -5.475812966e-09 -8.04439186e-09 -9.766196473e-09)
5(9.045369679e-09 -7.360098865e-09 -7.316724198e-09 -1.107539738e-08 -1.530306693e-08)
5(3.183705141e-08 -8.660718036e-09 -8.393797061e-09 -1.587508356e-08 -1.256766033e-08)
5(5.222378408e-08 -1.174398043e-08 -1.189934327e-08 -1.839774544e-08 -2.025442369e-08)
5(6.100915619e-08 -1.585991932e-08 -2.052675264e-08 -2.446854424e-08 -3.010229675e-08)
5(-1.251881753e-08 -2.072856094e-08 -2.564742155e-08 -3.344963693e-08 -3.622972092e-08)
5(-1.874777622e-08 -2.607039312e-08 -2.972743604e-08 -4.116478672e-08 -5.159053909e-08)
5(9.436997679e-08 -3.211211578e-08 -3.633661722e-08 -5.096700035e-08 -6.109827238e-08)
5(1.428798129e-07 -3.395338575e-08 -4.281350821e-08 -6.351640173e-08 -7.445950032e-08)
5(1.61954525e-07 -3.940393563e-08 -5.461472519e-08 -7.748929587e-08 -9.163265167e-08)
5(5.688673775e-08 -6.026014855e-08 -7.166143963e-08 -9.625971797e-08 -1.120783011e-07)
5(-5.265027623e-08 -7.362908092e-08 -8.976133531e-08 -1.150039136e-07 -1.346083799e-07)
5(-6.252317099e-08 -8.927659731e-08 -1.085434771e-07 -1.408726546e-07 -1.612204214e-07)
5(-7.860688067e-08 -1.093890194e-07 -1.322248228e-07 -1.660417512e-07 -1.901865116e-07)
5(-7.781638371e-08 -1.117454259e-07 -1.507418947e-07 -1.911019288e-07 -2.204229696e-07)
5(-9.658431182e-08 -1.408868933e-07 -1.775668755e-07 -2.287237012e-07 -2.569328841e-07)
5(-1.315792913e-07 -1.768400286e-07 -2.231103017e-07 -2.698098268e-07 -2.975432702e-07)
5(-1.691796527e-07 -2.20464492e-07 -2.652636416e-07 -3.171647919e-07 -3.384278272e-07)
5(-2.016224998e-07 -2.659558523e-07 -3.109045413e-07 -3.653558519e-07 -3.951297753e-07)
5(-2.430790633e-07 -3.185793835e-07 -3.704992804e-07 -4.286078306e-07 -4.654789094e-07)
5(-2.908331094e-07 -3.789891604e-07 -4.321383677e-07 -5.157278947e-07 -5.501233525e-07)
5(-3.439097951e-07 -4.462378372e-07 -5.099693843e-07 -5.891405723e-07 -6.264541083e-07)
5(-4.123017522e-07 -5.210154309e-07 -5.994400354e-07 -6.850534398e-07 -7.27287873e-07)
5(-4.865959928e-07 -6.067481134e-07 -6.97764225e-07 -7.875180369e-07 -8.342494114e-07)
5(-5.771419777e-07 -7.04413061e-07 -8.049927182e-07 -9.005517583e-07 -9.638533982e-07)
5(-6.826285925e-07 -8.346694548e-07 -9.477636667e-07 -1.035705203e-06 -1.10741557e-06)
5(-8.069683504e-07 -9.883402165e-07 -1.091570096e-06 -1.19028643e-06 -1.270481402e-06)
5(-9.386166745e-07 -1.143925161e-06 -1.271175702e-06 -1.374170668e-06 -1.449848779e-06)
5(-1.097308627e-06 -1.31513051e-06 -1.469263819e-06 -1.593287993e-06 -1.660726678e-06)
5(-1.271412609e-06 -1.508989467e-06 -1.672064328e-06 -1.796104037e-06 -1.87874743e-06)
5(-1.475529249e-06 -1.7408335e-06 -1.928877524e-06 -2.076852269e-06 -2.202687881e-06)
5(-1.709031714e-06 -1.985201362e-06 -2.185660098e-06 -2.345627518e-06 -2.39112872e-06)
5(-1.961794563e-06 -2.249000918e-06 -2.451665486e-06 -2.65271995e-06 -2.784977606e-06)
5(-2.24238038e-06 -2.560272091e-06 -2.780164372e-06 -2.972584041e-06 -3.128232327e-06)
5(-2.560096773e-06 -2.857132771e-06 -3.045127963e-06 -3.300596367e-06 -3.470419001e-06)
5(-2.906775155e-06 -3.274242101e-06 -3.547980955e-06 -3.728609782e-06 -3.765058265e-06)
5(-3.29288096e-06 -3.627914104e-06 -3.950559785e-06 -4.079820314e-06 -4.498646815e-06)
5(-3.69679994e-06 -4.055587676e-06 -4.330310927e-06 -4.5268178e-06 -4.531714778e-06)
5(-4.092239268e-06 -4.48826281e-06 -4.689394913e-06 -4.901869032e-06 -7.209457664e-06)
5(-4.572423717e-06 -5.016850091e-06 -5.268170956e-06 -5.430150942e-06 -7.556216891e-06)
5(-5.108265953e-06 -5.536281571e-06 -5.805838468e-06 -6.736183968e-06 -7.956060937e-06)
5(-5.651897176e-06 -6.149634882e-06 -6.406068138e-06 -9.051192227e-06 -8.202097888e-06)
5(-6.188777232e-06 -6.597005886e-06 -6.455977042e-06 -9.396332352e-06 -8.273735778e-06)
5(-6.731947309e-06 -7.201478433e-06 -7.110282845e-06 -9.651588877e-06 -8.480120487e-06)
5(-7.396306497e-06 -7.679419219e-06 -7.875091034e-06 -9.787127972e-06 -8.52754169e-06)
5(-8.020218816e-06 -8.383405399e-06 -1.046958173e-05 -9.823670624e-06 -8.470437345e-06)
5(-8.705224991e-06 -9.530246859e-06 -1.14557095e-05 -9.795623502e-06 -8.324705623e-06)
5(-9.214965573e-06 -9.805905266e-06 -1.156136602e-05 -9.657318152e-06 -8.112357555e-06)
5(-9.737626586e-06 -1.269163008e-05 -1.144738357e-05 -9.4313858e-06 -7.851171397e-06)
5(-1.040435945e-05 -1.26499725e-05 -1.120360431e-05 -9.111865565e-06 -7.537401271e-06)
5(-1.272483127e-05 -1.237657937e-05 -1.084190555e-05 -8.73619469e-06 -7.198419802e-06)
5(-1.337430333e-05 -1.195610596e-05 -1.038677065e-05 -8.301746553e-06 -6.822637627e-06)
5(-1.303004986e-05 -1.140210981e-05 -9.83778803e-06 -7.828973891e-06 -6.4339279e-06)
5(-1.229924354e-05 -1.074860599e-05 -9.217328433e-06 -7.329375257e-06 -6.042760672e-06)
5(-1.122316953e-05 -9.971679678e-06 -8.526097948e-06 -6.831230234e-06 -5.667585778e-06)
5(-9.754245486e-06 -9.072528067e-06 -7.778754594e-06 -6.322016702e-06 -5.322406577e-06)
5(-8.257995956e-06 -7.907485937e-06 -6.947944779e-06 -5.811301931e-06 -5.086197221e-06)
5(-6.781238734e-06 -6.566056984e-06 -5.817491484e-06 -6.00441061e-06 -4.834116843e-06)
5(-4.999340892e-06 -4.769031661e-06 -3.643063672e-06 -3.229628327e-06 -3.301226827e-06)
)


60
(
5(-1.602614672e-09 -2.976760426e-09 -4.035313618e-09 -6.382120834e-09 -9.444168777e-09)
5(-2.539954149e-09 -5.763920527e-09 -5.374037311e-09 -8.145508597e-09 -1.068793039e-08)
5(3.6550357e-09 -6.155029102e-09 -7.059906757e-09 -1.081811905e-08 -1.560696675e-08)
5(1.678048075e-08 -7.4704479e-09 -8.51513499e-09 -1.487062599e-08 -1.498022449e-08)
5(2.659264058e-08 -9.959889372e-09 -1.159935449e-08 -1.778850598e-08 -2.166357714e-08)
5(2.89840379e-08 -1.32439454e-08 -1.798196736e-08 -2.319471275e-08 -3.00975387e-08)
5(-1.0487779e-08 -1.716336775e-08 -2.257413484e-08 -3.065158495e-08 -3.629387335e-08)
5(-1.496057089e-08 -2.160673022e-08 -2.680225154e-08 -3.758576522e-08 -4.858247556e-08)
5(4.238906019e-08 -2.67391747e-08 -3.297738154e-08 -4.607348347e-08 -5.722028832e-08)
5(6.577841973e-08 -3.004826742e-08 -3.934649751e-08 -5.64628983e-08 -6.842571184e-08)
5(7.335625849e-08 -3.567086648e-08 -4.90381919e-08 -6.790149343e-08 -8.184043401e-08)
5(1.667634181e-08 -4.960614141e-08 -6.188526657e-08 -8.213916842e-08 -9.714283571e-08)
5(-4.257674742e-08 -6.008374951e-08 -7.564593512e-08 -9.653463697e-08 -1.134506004e-07)
5(-5.076900198e-08 -7.221848305e-08 -9.011320248e-08 -1.150148698e-07 -1.321015714e-07)
5(-6.283977239e-08 -8.715348276e-08 -1.076756034e-07 -1.333021892e-07 -1.521272141e-07)
5(-6.668662005e-08 -9.354986419e-08 -1.229166855e-07 -1.52007257e-07 -1.729748438e-07)
5(-8.117400966e-08 -1.142205392e-07 -1.430436799e-07 -1.775769461e-07 -1.974190494e-07)
5(-1.04597087e-07 -1.390311983e-07 -1.732918242e-07 -2.054654264e-07 -2.245429502e-07)
5(-1.301007121e-07 -1.685588282e-07 -2.026368533e-07 -2.373371771e-07 -2.527217171e-07)
5(-1.538277506e-07 -1.997824613e-07 -2.346048923e-07 -2.704575648e-07 -2.898896749e-07)
5(-1.829445391e-07 -2.357584974e-07 -2.749007482e-07 -3.126537217e-07 -3.35651277e-07)
5(-2.168728193e-07 -2.769651692e-07 -3.174531576e-07 -3.685539564e-07 -3.90598815e-07)
5(-2.545122721e-07 -3.23109749e-07 -3.700256122e-07 -4.189365467e-07 -4.422259776e-07)
5(-3.015671314e-07 -3.744510625e-07 -4.301343316e-07 -4.830301336e-07 -5.091836026e-07)
5(-3.529720775e-07 -4.335023487e-07 -4.971624964e-07 -5.52497971e-07 -5.813389244e-07)
5(-4.150557839e-07 -5.008186225e-07 -5.705112346e-07 -6.299743126e-07 -6.675083456e-07)
5(-4.866978845e-07 -5.87306449e-07 -6.650587357e-07 -7.211209964e-07 -7.645593867e-07)
5(-5.704536046e-07 -6.880505819e-07 -7.629477765e-07 -8.25871202e-07 -8.747787765e-07)
5(-6.606504912e-07 -7.923566872e-07 -8.820935986e-07 -9.488760429e-07 -9.966659775e-07)
5(-7.674985914e-07 -9.08102757e-07 -1.014664834e-06 -1.094011372e-06 -1.139452002e-06)
5(-8.849325536e-07 -1.039212593e-06 -1.152701559e-06 -1.234199084e-06 -1.288910825e-06)
5(-1.021007913e-06 -1.192986531e-06 -1.322980306e-06 -1.419001188e-06 -1.498863797e-06)
5(-1.176213097e-06 -1.356894503e-06 -1.497220688e-06 -1.602744018e-06 -1.642070527e-06)
5(-1.345003405e-06 -1.535739482e-06 -1.681383742e-06 -1.810507166e-06 -1.89889719e-06)
5(-1.531472423e-06 -1.742424078e-06 -1.901379913e-06 -2.03045203e-06 -2.13289492e-06)
5(-1.738345428e-06 -1.946732986e-06 -2.094798501e-06 -2.260511135e-06 -2.374761648e-06)
5(-1.969420731e-06 -2.217488058e-06 -2.416113912e-06 -2.549711458e-06 -2.59797628e-06)
5(-2.220429072e-06 -2.46057377e-06 -2.691261093e-06 -2.804781729e-06 -3.052802065e-06)
5(-2.487091088e-06 -2.750531797e-06 -2.96086602e-06 -3.115332581e-06 -3.153288906e-06)
5(-2.752981147e-06 -3.044367233e-06 -3.227571735e-06 -3.39722423e-06 -4.619647124e-06)
5(-3.064392062e-06 -3.397715494e-06 -3.61944259e-06 -3.765481551e-06 -4.902825058e-06)
5(-3.4188248e-06 -3.749689279e-06 -3.991356996e-06 -4.539415168e-06 -5.224767387e-06)
5(-3.772275423e-06 -4.159880237e-06 -4.404784308e-06 -5.843514044e-06 -5.475368715e-06)
5(-4.131265064e-06 -4.498076268e-06 -4.542242054e-06 -6.150929567e-06 -5.638162648e-06)
5(-4.500123586e-06 -4.913731939e-06 -4.998004747e-06 -6.423643961e-06 -5.873773046e-06)
5(-4.94176834e-06 -5.27727528e-06 -5.521984042e-06 -6.638988673e-06 -6.028113484e-06)
5(-5.369640915e-06 -5.761043739e-06 -6.994167635e-06 -6.805271057e-06 -6.123461042e-06)
5(-5.833692572e-06 -6.479634309e-06 -7.653149956e-06 -6.932787719e-06 -6.165758972e-06)
5(-6.211513209e-06 -6.754837882e-06 -7.861805725e-06 -6.994557407e-06 -6.157693944e-06)
5(-6.610951877e-06 -8.384783041e-06 -7.954234171e-06 -6.997699508e-06 -6.108040382e-06)
5(-7.088363225e-06 -8.522546225e-06 -7.968106831e-06 -6.935127488e-06 -6.016390931e-06)
5(-8.42767894e-06 -8.536889866e-06 -7.90623092e-06 -6.818493249e-06 -5.884372505e-06)
5(-8.91782055e-06 -8.459555137e-06 -7.768818457e-06 -6.649231718e-06 -5.719297106e-06)
5(-8.903634757e-06 -8.298554735e-06 -7.558053792e-06 -6.438124945e-06 -5.518887889e-06)
5(-8.69415521e-06 -8.047336137e-06 -7.282679574e-06 -6.184129803e-06 -5.305001256e-06)
5(-8.283991692e-06 -7.711736829e-06 -6.945848026e-06 -5.9058413e-06 -5.078699198e-06)
5(-7.6564938e-06 -7.289373292e-06 -6.549892471e-06 -5.601279548e-06 -4.852664486e-06)
5(-6.984401059e-06 -6.699440505e-06 -6.087563821e-06 -5.277676868e-06 -4.666808834e-06)
5(-6.282370968e-06 -5.996482651e-06 -5.45655652e-06 -5.284118961e-06 -4.457092014e-06)
5(-5.250473024e-06 -4.923080446e-06 -4.232506154e-06 -3.734107252e-06 -3.586978252e-06)
)


60
(
5(-1.530542929e-09 -2.536779193e-09 -4.260990847e-09 -6.907648032e-09 -1.054552394e-08)
5(-2.102989307e-09 -3.454977409e-09 -5.242506331e-09 -8.27822487e-09 -1.198882311e-08)
5(-2.773461328e-09 -4.560083973e-09 -6.658651369e-09 -1.031311669e-08 -1.450004748e-08)
5(-3.606439247e-09 -5.906855845e-09 -8.619461046e-09 -1.308865844e-08 -1.821796949e-08)
5(-4.697180388e-09 -7.627450169e-09 -1.114300281e-08 -1.66690464e-08 -2.305170152e-08)
5(-6.098009765e-09 -9.823750278e-09 -1.42926635e-08 -2.103164341e-08 -2.880202871e-08)
5(-7.861391779e-09 -1.252688742e-08 -1.81460729e-08 -2.613327e-08 -3.513883977e-08)
5(-1.005437703e-08 -1.579677903e-08 -2.263268285e-08 -3.190888156e-08 -4.20160914e-08)
5(-1.272166128e-08 -1.968986402e-08 -2.784661916e-08 -3.839232558e-08 -4.941071327e-08)
5(-1.592582652e-08 -2.424387629e-08 -3.378605811e-08 -4.549039387e-08 -5.718218654e-08)
5(-1.976057658e-08 -2.94745982e-08 -4.041211357e-08 -5.309825485e-08 -6.510890248e-08)
5(-2.418182433e-08 -3.541030212e-08 -4.76726915e-08 -6.112924753e-08 -7.30728739e-08)
5(-2.932411226e-08 -4.201538765e-08 -5.559699275e-08 -6.954777821e-08 -8.115247782e-08)
5(-3.519395407e-08 -4.937826577e-08 -6.414622662e-08 -7.827858358e-08 -8.925847461e-08)
5(-4.193802549e-08 -5.747135629e-08 -7.339111529e-08 -8.746111532e-08 -9.77309584e-08)
5(-4.9505258e-08 -6.638943695e-08 -8.331458037e-08 -9.720806252e-08 -1.065407272e-07)
5(-5.798485591e-08 -7.625939982e-08 -9.402417706e-08 -1.07616173e-07 -1.159765425e-07)
5(-6.755194611e-08 -8.707128902e-08 -1.056802133e-07 -1.189229296e-07 -1.265601818e-07)
5(-7.826487372e-08 -9.911369471e-08 -1.18516301e-07 -1.314690672e-07 -1.383295229e-07)
5(-9.022483852e-08 -1.124427583e-07 -1.328261937e-07 -1.454546192e-07 -1.518197692e-07)
5(-1.037764337e-07 -1.273676063e-07 -1.488873683e-07 -1.614995805e-07 -1.676909238e-07)
5(-1.192891745e-07 -1.442456045e-07 -1.670274848e-07 -1.796462995e-07 -1.863117434e-07)
5(-1.368723465e-07 -1.633089076e-07 -1.87813434e-07 -2.009011036e-07 -2.074805072e-07)
5(-1.5624045e-07 -1.848696297e-07 -2.112665233e-07 -2.255926551e-07 -2.328309847e-07)
5(-1.78839127e-07 -2.097285092e-07 -2.386643524e-07 -2.539035409e-07 -2.625002426e-07)
5(-2.041714473e-07 -2.380368321e-07 -2.694690592e-07 -2.862975131e-07 -2.961832599e-07)
5(-2.329971017e-07 -2.703261538e-07 -3.050306049e-07 -3.235743841e-07 -3.353810803e-07)
5(-2.657971911e-07 -3.065469905e-07 -3.455166371e-07 -3.664018713e-07 -3.816948883e-07)
5(-3.030396592e-07 -3.476691946e-07 -3.91202574e-07 -4.153386426e-07 -4.319919715e-07)
5(-3.448904468e-07 -3.94413541e-07 -4.430621027e-07 -4.70906255e-07 -4.920692974e-07)
5(-3.913218223e-07 -4.467471426e-07 -5.01019611e-07 -5.334554964e-07 -5.580153293e-07)
5(-4.436043444e-07 -5.051437066e-07 -5.663657247e-07 -6.037361559e-07 -6.339967707e-07)
5(-5.018925348e-07 -5.704242365e-07 -6.394078758e-07 -6.830050607e-07 -7.181483533e-07)
5(-5.657053612e-07 -6.432607201e-07 -7.208880723e-07 -7.708190298e-07 -8.13545015e-07)
5(-6.367532062e-07 -7.230303587e-07 -8.104534369e-07 -8.693175929e-07 -9.186822363e-07)
5(-7.1257904e-07 -8.116535872e-07 -9.094785284e-07 -9.790103728e-07 -1.036411471e-06)
5(-7.965646753e-07 -9.082337042e-07 -1.018515217e-06 -1.101337366e-06 -1.165741606e-06)
5(-8.877079394e-07 -1.013923244e-06 -1.138959396e-06 -1.234689983e-06 -1.305604233e-06)
5(-9.846448744e-07 -1.131733998e-06 -1.272228237e-06 -1.380587111e-06 -1.461665817e-06)
5(-1.09017843e-06 -1.256893979e-06 -1.419461425e-06 -1.541640257e-06 -1.634728959e-06)
5(-1.204835818e-06 -1.399392007e-06 -1.583012502e-06 -1.718328041e-06 -1.833891117e-06)
5(-1.329164161e-06 -1.548653152e-06 -1.755719164e-06 -1.913332468e-06 -2.052904444e-06)
5(-1.459360939e-06 -1.714747315e-06 -1.944345406e-06 -2.130118354e-06 -2.286285461e-06)
5(-1.599597446e-06 -1.900484955e-06 -2.146067998e-06 -2.371720372e-06 -2.527888791e-06)
5(-1.755076661e-06 -2.093484966e-06 -2.365937264e-06 -2.634685797e-06 -2.776440868e-06)
5(-1.923679586e-06 -2.301142837e-06 -2.604563917e-06 -2.909058886e-06 -3.02814709e-06)
5(-2.107483615e-06 -2.519146078e-06 -2.870735377e-06 -3.186543101e-06 -3.271587862e-06)
5(-2.304765432e-06 -2.758663985e-06 -3.153729143e-06 -3.460423937e-06 -3.502663499e-06)
5(-2.51186306e-06 -3.014729956e-06 -3.448214301e-06 -3.722599802e-06 -3.710088311e-06)
5(-2.749985095e-06 -3.296122561e-06 -3.740124013e-06 -3.962413046e-06 -3.887166765e-06)
5(-3.002132424e-06 -3.5960223e-06 -4.012596718e-06 -4.169682088e-06 -4.032189216e-06)
5(-3.283680938e-06 -3.896554517e-06 -4.25820783e-06 -4.337873059e-06 -4.138724211e-06)
5(-3.592355068e-06 -4.174474919e-06 -4.460713445e-06 -4.461604828e-06 -4.210693914e-06)
5(-3.915139366e-06 -4.421052618e-06 -4.616716678e-06 -4.540746117e-06 -4.236325486e-06)
5(-4.240785744e-06 -4.611402069e-06 -4.722210922e-06 -4.56981662e-06 -4.229833135e-06)
5(-4.530775684e-06 -4.757620552e-06 -4.777920565e-06 -4.552897792e-06 -4.1892924e-06)
5(-4.783881736e-06 -4.851791297e-06 -4.7809315e-06 -4.496170005e-06 -4.113638591e-06)
5(-4.964954169e-06 -4.889885167e-06 -4.736901016e-06 -4.39643813e-06 -4.007354608e-06)
5(-5.058034646e-06 -4.87135162e-06 -4.652782501e-06 -4.254099882e-06 -3.876390717e-06)
5(-4.865172431e-06 -4.529214831e-06 -4.490590284e-06 -3.947106144e-06 -3.689480709e-06)
)


60
(
5(-1.558755195e-09 -2.564750054e-09 -4.550114978e-09 -7.525640349e-09 -1.145332912e-08)
5(-2.098672738e-09 -3.501529926e-09 -5.589476136e-09 -8.981549939e-09 -1.328373226e-08)
5(-2.766180882e-09 -4.618364807e-09 -7.06380137e-09 -1.110090659e-08 -1.604425995e-08)
5(-3.570297641e-09 -5.934673175e-09 -9.06263903e-09 -1.389566574e-08 -1.97296246e-08)
5(-4.613590168e-09 -7.602164436e-09 -1.160682326e-08 -1.734541717e-08 -2.432848311e-08)
5(-5.986042459e-09 -9.719924038e-09 -1.467339293e-08 -2.142203161e-08 -2.949601628e-08)
5(-7.680106882e-09 -1.228151028e-08 -1.830482489e-08 -2.605865456e-08 -3.503773862e-08)
5(-9.74031199e-09 -1.531243376e-08 -2.247180967e-08 -3.118724436e-08 -4.082005812e-08)
5(-1.221482137e-08 -1.881044979e-08 -2.712189043e-08 -3.668365886e-08 -4.679929008e-08)
5(-1.511949324e-08 -2.27849827e-08 -3.225490913e-08 -4.246290111e-08 -5.269987129e-08)
5(-1.853984259e-08 -2.724626289e-08 -3.777493655e-08 -4.839861038e-08 -5.853849344e-08)
5(-2.236335366e-08 -3.213960716e-08 -4.364697223e-08 -5.444415562e-08 -6.415198284e-08)
5(-2.66712557e-08 -3.743436874e-08 -4.978605151e-08 -6.050528547e-08 -6.957813562e-08)
5(-3.14680163e-08 -4.311493569e-08 -5.613931641e-08 -6.65938012e-08 -7.491134782e-08)
5(-3.673370557e-08 -4.91462418e-08 -6.268437659e-08 -7.274014598e-08 -8.017915877e-08)
5(-4.247883338e-08 -5.549164452e-08 -6.947275099e-08 -7.901286225e-08 -8.559915623e-08)
5(-4.876114228e-08 -6.226216145e-08 -7.657206447e-08 -8.543540965e-08 -9.128722153e-08)
5(-5.553418522e-08 -6.944147043e-08 -8.41344047e-08 -9.220655987e-08 -9.758224317e-08)
5(-6.290149962e-08 -7.713324241e-08 -9.207705249e-08 -9.97159291e-08 -1.045590428e-07)
5(-7.089404865e-08 -8.5427604e-08 -1.008645237e-07 -1.079226667e-07 -1.126070674e-07)
5(-7.978711094e-08 -9.444345996e-08 -1.105611809e-07 -1.172118986e-07 -1.218924662e-07)
5(-8.931092801e-08 -1.043522982e-07 -1.213819578e-07 -1.278310362e-07 -1.32652304e-07)
5(-9.992342516e-08 -1.153268165e-07 -1.333723426e-07 -1.398610187e-07 -1.455174784e-07)
5(-1.117304949e-07 -1.278488106e-07 -1.470779675e-07 -1.538642937e-07 -1.610068993e-07)
5(-1.253102654e-07 -1.420776662e-07 -1.628517529e-07 -1.702476928e-07 -1.784418818e-07)
5(-1.397123502e-07 -1.578606319e-07 -1.809471769e-07 -1.889439672e-07 -1.995335679e-07)
5(-1.564821585e-07 -1.759055788e-07 -2.01683823e-07 -2.111436172e-07 -2.238572556e-07)
5(-1.755267461e-07 -1.96074004e-07 -2.252380349e-07 -2.36488664e-07 -2.526645068e-07)
5(-1.968921114e-07 -2.19177824e-07 -2.522694988e-07 -2.664128568e-07 -2.850879603e-07)
5(-2.19647969e-07 -2.456616585e-07 -2.826439978e-07 -3.000975604e-07 -3.226925555e-07)
5(-2.463916458e-07 -2.753156629e-07 -3.173801694e-07 -3.390548423e-07 -3.664546172e-07)
5(-2.763959634e-07 -3.085853927e-07 -3.568114161e-07 -3.835349984e-07 -4.161419979e-07)
5(-3.083716498e-07 -3.464906254e-07 -4.011069877e-07 -4.336905567e-07 -4.739333941e-07)
5(-3.436868358e-07 -3.877466333e-07 -4.510823868e-07 -4.908784315e-07 -5.382831701e-07)
5(-3.827223591e-07 -4.343819069e-07 -5.070062589e-07 -5.554938044e-07 -6.120141714e-07)
5(-4.273912684e-07 -4.862674891e-07 -5.6902016e-07 -6.278224014e-07 -6.936394819e-07)
5(-4.720612965e-07 -5.433148405e-07 -6.385765015e-07 -7.08700518e-07 -7.85647495e-07)
5(-5.226167777e-07 -6.061256983e-07 -7.163588428e-07 -7.996388776e-07 -8.876230192e-07)
5(-5.757165004e-07 -6.758574046e-07 -8.038867818e-07 -9.010670038e-07 -1.0033582e-06)
5(-6.345269179e-07 -7.534299592e-07 -8.999635262e-07 -1.014379668e-06 -1.134073853e-06)
5(-7.00057667e-07 -8.392213735e-07 -1.005703864e-06 -1.141065571e-06 -1.284203739e-06)
5(-7.640180333e-07 -9.308142249e-07 -1.124114285e-06 -1.28232326e-06 -1.448031161e-06)
5(-8.370159782e-07 -1.033147865e-06 -1.253059237e-06 -1.442654652e-06 -1.631579981e-06)
5(-9.119711917e-07 -1.147613276e-06 -1.394802311e-06 -1.622024795e-06 -1.827365897e-06)
5(-9.953832154e-07 -1.274948015e-06 -1.553708425e-06 -1.820321346e-06 -2.032215039e-06)
5(-1.088812656e-06 -1.410359539e-06 -1.728637173e-06 -2.035681846e-06 -2.245021368e-06)
5(-1.190541876e-06 -1.559410743e-06 -1.925104989e-06 -2.259818771e-06 -2.464377106e-06)
5(-1.307957156e-06 -1.725365165e-06 -2.143326081e-06 -2.491867104e-06 -2.682116553e-06)
5(-1.441323468e-06 -1.916214975e-06 -2.377972173e-06 -2.730075357e-06 -2.892333397e-06)
5(-1.592819332e-06 -2.125659312e-06 -2.622187243e-06 -2.959549522e-06 -3.086829234e-06)
5(-1.771310957e-06 -2.363877514e-06 -2.867939659e-06 -3.175224153e-06 -3.255201994e-06)
5(-1.978912178e-06 -2.620191921e-06 -3.104540848e-06 -3.367642179e-06 -3.397931051e-06)
5(-2.225174512e-06 -2.880798947e-06 -3.324394032e-06 -3.5315006e-06 -3.508909013e-06)
5(-2.503364098e-06 -3.13201829e-06 -3.517976272e-06 -3.659247416e-06 -3.589758713e-06)
5(-2.803839167e-06 -3.368709274e-06 -3.675054107e-06 -3.746639241e-06 -3.631763485e-06)
5(-3.104602064e-06 -3.573015122e-06 -3.79072019e-06 -3.793937253e-06 -3.641557823e-06)
5(-3.387602513e-06 -3.734571027e-06 -3.866252406e-06 -3.800676718e-06 -3.616738512e-06)
5(-3.622841593e-06 -3.849023629e-06 -3.895891817e-06 -3.769160519e-06 -3.559834486e-06)
5(-3.766079139e-06 -3.887982401e-06 -3.878861076e-06 -3.705488714e-06 -3.478287047e-06)
5(-3.684159094e-06 -3.679835084e-06 -3.695458062e-06 -3.46923935e-06 -3.324684207e-06)
)


60
(
5(-1.611059224e-09 -2.677700336e-09 -4.84188492e-09 -8.095872503e-09 -1.214805312e-08)
5(-2.178258469e-09 -3.65828415e-09 -5.976875461e-09 -9.645905473e-09 -1.427367239e-08)
5(-2.839271159e-09 -4.789895043e-09 -7.530786581e-09 -1.179650678e-08 -1.709313441e-08)
5(-3.658877251e-09 -6.113593342e-09 -9.553672353e-09 -1.454902893e-08 -2.08003071e-08)
5(-4.704663751e-09 -7.752351263e-09 -1.205328876e-08 -1.786094002e-08 -2.507082702e-08)
5(-6.055728399e-09 -9.794285719e-09 -1.50136987e-08 -2.166208738e-08 -2.96554551e-08)
5(-7.726563867e-09 -1.221735477e-08 -1.841510663e-08 -2.584256201e-08 -3.44800558e-08)
5(-9.688586092e-09 -1.505737935e-08 -2.223809604e-08 -3.035294592e-08 -3.935867277e-08)
5(-1.204551179e-08 -1.827897701e-08 -2.640707039e-08 -3.507000974e-08 -4.425545221e-08)
5(-1.472831069e-08 -2.184385664e-08 -3.089543554e-08 -3.988192371e-08 -4.899918008e-08)
5(-1.779529636e-08 -2.572477905e-08 -3.558877359e-08 -4.47127742e-08 -5.350344173e-08)
5(-2.118419151e-08 -2.987037526e-08 -4.042459475e-08 -4.947546906e-08 -5.773653832e-08)
5(-2.492301953e-08 -3.422928505e-08 -4.529321199e-08 -5.407401074e-08 -6.162991105e-08)
5(-2.900587248e-08 -3.876148472e-08 -5.01987919e-08 -5.854338632e-08 -6.548741991e-08)
5(-3.328644661e-08 -4.345480501e-08 -5.509735841e-08 -6.292964227e-08 -6.904082977e-08)
5(-3.780796465e-08 -4.822934491e-08 -5.999547395e-08 -6.721104621e-08 -7.272446571e-08)
5(-4.261255763e-08 -5.308668619e-08 -6.492911785e-08 -7.13766223e-08 -7.634629044e-08)
5(-4.768855873e-08 -5.802504258e-08 -6.992211889e-08 -7.573925483e-08 -8.017705194e-08)
5(-5.296926952e-08 -6.312399641e-08 -7.509591785e-08 -8.021453672e-08 -8.464951183e-08)
5(-5.856900325e-08 -6.844078492e-08 -8.057140011e-08 -8.511301472e-08 -8.94615294e-08)
5(-6.455135126e-08 -7.398429434e-08 -8.633460046e-08 -9.042381617e-08 -9.512729108e-08)
5(-7.044435581e-08 -7.983047341e-08 -9.274080855e-08 -9.645736473e-08 -1.015261214e-07)
5(-7.721733318e-08 -8.625482752e-08 -9.976355097e-08 -1.031904949e-07 -1.094611684e-07)
5(-8.468958941e-08 -9.324787636e-08 -1.077816668e-07 -1.1109751e-07 -1.187607937e-07)
5(-9.242322317e-08 -1.009073089e-07 -1.16692585e-07 -1.203815306e-07 -1.296336162e-07)
5(-1.010806703e-07 -1.094572337e-07 -1.268513918e-07 -1.312023888e-07 -1.423672062e-07)
5(-1.107676012e-07 -1.191852724e-07 -1.3830144e-07 -1.437978157e-07 -1.57695725e-07)
5(-1.215535488e-07 -1.301624191e-07 -1.518073844e-07 -1.586347065e-07 -1.751404872e-07)
5(-1.335487897e-07 -1.424914214e-07 -1.671732404e-07 -1.762598253e-07 -1.973596552e-07)
5(-1.464859379e-07 -1.567889895e-07 -1.84717271e-07 -1.967294116e-07 -2.213537012e-07)
5(-1.617452271e-07 -1.728864847e-07 -2.050106623e-07 -2.207346014e-07 -2.508712102e-07)
5(-1.776687509e-07 -1.911487742e-07 -2.289027573e-07 -2.484938352e-07 -2.840468159e-07)
5(-1.953283585e-07 -2.124774703e-07 -2.551866895e-07 -2.803621274e-07 -3.231730791e-07)
5(-2.153933217e-07 -2.356181249e-07 -2.853072986e-07 -3.176782353e-07 -3.685175901e-07)
5(-2.365269492e-07 -2.616766712e-07 -3.192394856e-07 -3.598796267e-07 -4.206051364e-07)
5(-2.606727191e-07 -2.906556165e-07 -3.581791357e-07 -4.075384448e-07 -4.793203863e-07)
5(-2.847187349e-07 -3.239653263e-07 -4.026274201e-07 -4.624687194e-07 -5.456850897e-07)
5(-3.112357642e-07 -3.611505672e-07 -4.520152441e-07 -5.246524373e-07 -6.220640904e-07)
5(-3.393199296e-07 -4.023199011e-07 -5.07555448e-07 -5.953342055e-07 -7.078590354e-07)
5(-3.704047363e-07 -4.473996201e-07 -5.698248046e-07 -6.754964176e-07 -8.094507816e-07)
5(-4.007595935e-07 -4.965675629e-07 -6.399094531e-07 -7.665384052e-07 -9.207530878e-07)
5(-4.346337469e-07 -5.506969104e-07 -7.19104393e-07 -8.691096712e-07 -1.051436885e-06)
5(-4.679287516e-07 -6.111391637e-07 -8.059574368e-07 -9.864722102e-07 -1.196084827e-06)
5(-5.032913523e-07 -6.804039576e-07 -9.047309912e-07 -1.12166313e-06 -1.355782677e-06)
5(-5.391872604e-07 -7.5521733e-07 -1.015424459e-06 -1.273936761e-06 -1.525242687e-06)
5(-5.832785226e-07 -8.389075798e-07 -1.142761907e-06 -1.443059838e-06 -1.707908645e-06)
5(-6.313373126e-07 -9.338323337e-07 -1.285853558e-06 -1.627031076e-06 -1.903454777e-06)
5(-6.945639675e-07 -1.038812213e-06 -1.451326112e-06 -1.821189579e-06 -2.103893112e-06)
5(-7.713041308e-07 -1.161532277e-06 -1.635511982e-06 -2.026858685e-06 -2.308177387e-06)
5(-8.552082435e-07 -1.308196928e-06 -1.833399961e-06 -2.240229869e-06 -2.508255228e-06)
5(-9.707331305e-07 -1.485713453e-06 -2.047217879e-06 -2.454076765e-06 -2.693764088e-06)
5(-1.109993878e-06 -1.682834179e-06 -2.270117596e-06 -2.657139789e-06 -2.858888101e-06)
5(-1.27996548e-06 -1.908280826e-06 -2.49321614e-06 -2.847486679e-06 -3.001434835e-06)
5(-1.480706254e-06 -2.145357198e-06 -2.712696927e-06 -3.009646282e-06 -3.113803824e-06)
5(-1.716882131e-06 -2.39039273e-06 -2.91322487e-06 -3.143899017e-06 -3.192340764e-06)
5(-1.972934692e-06 -2.629730541e-06 -3.086596364e-06 -3.241890376e-06 -3.232658723e-06)
5(-2.243723167e-06 -2.842059968e-06 -3.216175056e-06 -3.29937072e-06 -3.246620079e-06)
5(-2.495756966e-06 -3.019458022e-06 -3.30185748e-06 -3.321580486e-06 -3.228559478e-06)
5(-2.697822761e-06 -3.11169885e-06 -3.315195405e-06 -3.304189298e-06 -3.182496245e-06)
5(-2.61473738e-06 -2.972367912e-06 -3.069896457e-06 -3.111560588e-06 -3.020134163e-06)
)


60
(
5(-1.676186371e-09 -2.814713068e-09 -5.133725829e-09 -8.610070382e-09 -1.268407722e-08)
5(-2.279761382e-09 -3.827359728e-09 -6.327014108e-09 -1.024491765e-08 -1.496061259e-08)
5(-2.965339482e-09 -5.000172558e-09 -7.952669301e-09 -1.240737856e-08 -1.785463664e-08)
5(-3.791912445e-09 -6.343264455e-09 -1.00087411e-08 -1.50853835e-08 -2.137425457e-08)
5(-4.883273114e-09 -7.971093326e-09 -1.247081007e-08 -1.822061218e-08 -2.532683784e-08)
5(-6.220437939e-09 -9.955477584e-09 -1.528968565e-08 -2.173925307e-08 -2.943905453e-08)
5(-7.877796235e-09 -1.228879079e-08 -1.846511317e-08 -2.554063982e-08 -3.368023578e-08)
5(-9.801391941e-09 -1.49762951e-08 -2.198191728e-08 -2.955069064e-08 -3.788041005e-08)
5(-1.204626921e-08 -1.799072794e-08 -2.575555385e-08 -3.365575452e-08 -4.201685096e-08)
5(-1.460171163e-08 -2.126655382e-08 -2.972826032e-08 -3.777348512e-08 -4.597018001e-08)
5(-1.742450113e-08 -2.471111896e-08 -3.375979586e-08 -4.178467298e-08 -4.957493063e-08)
5(-2.047902534e-08 -2.83355231e-08 -3.781996088e-08 -4.562928358e-08 -5.290145978e-08)
5(-2.383175464e-08 -3.204968522e-08 -4.180907953e-08 -4.927055793e-08 -5.595486049e-08)
5(-2.739779521e-08 -3.582620195e-08 -4.575222324e-08 -5.26993192e-08 -5.873777283e-08)
5(-3.106623841e-08 -3.959936015e-08 -4.953893483e-08 -5.591662214e-08 -6.140830897e-08)
5(-3.485533709e-08 -4.33532549e-08 -5.325207404e-08 -5.8902324e-08 -6.389820234e-08)
5(-3.869172842e-08 -4.702311701e-08 -5.677073881e-08 -6.176901917e-08 -6.632020467e-08)
5(-4.27169846e-08 -5.063280107e-08 -6.01947942e-08 -6.461628488e-08 -6.887085365e-08)
5(-4.680684297e-08 -5.422081939e-08 -6.363106487e-08 -6.723418243e-08 -7.153306245e-08)
5(-5.088149664e-08 -5.779763662e-08 -6.697229574e-08 -6.995695838e-08 -7.438869726e-08)
5(-5.517068215e-08 -6.141846463e-08 -7.037320119e-08 -7.277425333e-08 -7.740987963e-08)
5(-5.935558424e-08 -6.492548408e-08 -7.397110358e-08 -7.581049591e-08 -8.114231407e-08)
5(-6.397642116e-08 -6.8658655e-08 -7.793341261e-08 -7.928482136e-08 -8.526342459e-08)
5(-6.899979289e-08 -7.251871781e-08 -8.212911535e-08 -8.327562587e-08 -8.995832287e-08)
5(-7.341923578e-08 -7.650007237e-08 -8.664427727e-08 -8.791811952e-08 -9.607687932e-08)
5(-7.920209314e-08 -8.086156416e-08 -9.172845751e-08 -9.341906024e-08 -1.037238325e-07)
5(-8.517843252e-08 -8.594347943e-08 -9.771200729e-08 -9.984162763e-08 -1.121315446e-07)
5(-9.214425453e-08 -9.175104162e-08 -1.050264184e-07 -1.075153147e-07 -1.224147183e-07)
5(-9.798836416e-08 -9.839934675e-08 -1.129045438e-07 -1.167382834e-07 -1.355359417e-07)
5(-1.057876185e-07 -1.056211281e-07 -1.22076832e-07 -1.283467099e-07 -1.505305884e-07)
5(-1.131752481e-07 -1.137599134e-07 -1.329770604e-07 -1.415325001e-07 -1.700766744e-07)
5(-1.228864463e-07 -1.236951549e-07 -1.461477193e-07 -1.573127374e-07 -1.919815626e-07)
5(-1.326777532e-07 -1.346309922e-07 -1.609942987e-07 -1.761968517e-07 -2.170426652e-07)