/*--------------------------------*- C++ -*----------------------------------*\
| =========                 |                                                 |
| \\      /  F ield         | OpenFOAM: The Open Source CFD Toolbox           |
|  \\    /   O peration     | Version:  2.3.1                                 |
|   \\  /    A nd           | Web:      www.OpenFOAM.org                      |
|    \\/     M anipulation  |                                                 |
\*---------------------------------------------------------------------------*/
FoamFile
{
    version     2.0;
    format      ascii;
    class       dictionary;
    location    "constant";
    object      DPSI33;
}
// * * * * * * * * * * * * * * * * * * * * * * * * * * * * * * * * * * * * * //

DPSI33_table
60
(

60
(
5(-1.410700463e-12 -1.088680068e-12 -1.163465395e-12 -8.93830213e-13 -7.847040381e-13)
5(-1.622046422e-12 -1.873497822e-12 -1.220526981e-12 -1.083632382e-12 -8.290866349e-13)
5(1.794445842e-11 -2.013924979e-12 -1.495644546e-12 -1.417352743e-12 -1.174271759e-12)
5(5.435879469e-11 -2.359980806e-12 -1.702575924e-12 -1.889549006e-12 -1.126856578e-12)
5(7.941690499e-11 -3.004665013e-12 -2.215201792e-12 -2.14651707e-12 -1.618937955e-12)
5(8.182455291e-11 -3.850484279e-12 -3.345111401e-12 -2.740287732e-12 -2.242769287e-12)
5(-4.83827013e-12 -4.84128265e-12 -4.101797655e-12 -3.59100452e-12 -2.674723566e-12)
5(-6.548335822e-12 -5.959424587e-12 -4.745944707e-12 -4.367708539e-12 -3.723984625e-12)
5(1.176678545e-10 -7.263162943e-12 -5.807376253e-12 -5.387893936e-12 -4.47751819e-12)
5(1.994708325e-10 -8.238963299e-12 -6.85624644e-12 -6.725308674e-12 -5.574553398e-12)
5(2.296495241e-10 -9.780679065e-12 -8.615827046e-12 -8.295775116e-12 -6.999542455e-12)
5(7.496727143e-11 -1.324489595e-11 -1.106812399e-11 -1.034865343e-11 -8.816100307e-12)
5(-1.730015091e-11 -1.61141675e-11 -1.381179824e-11 -1.264978811e-11 -1.096062636e-11)
5(-2.059863051e-11 -1.953060535e-11 -1.688123766e-11 -1.573687555e-11 -1.362231517e-11)
5(-2.540757408e-11 -2.387519068e-11 -2.075983391e-11 -1.910464155e-11 -1.678855005e-11)
5(-2.032858698e-11 -2.643443541e-11 -2.448184862e-11 -2.300497822e-11 -2.055537157e-11)
5(-2.685316086e-11 -3.257889948e-11 -2.943723656e-11 -2.818588474e-11 -2.521856632e-11)
5(-4.008922476e-11 -4.009807975e-11 -3.678587251e-11 -3.435555549e-11 -3.090659933e-11)
5(-5.299924327e-11 -4.932900379e-11 -4.465287537e-11 -4.202501252e-11 -3.774989367e-11)
5(-6.295173714e-11 -5.954763455e-11 -5.383318127e-11 -5.099401584e-11 -4.683830431e-11)
5(-7.545512792e-11 -7.207878231e-11 -6.602188821e-11 -6.310665112e-11 -5.901747519e-11)
5(-9.024972159e-11 -8.730862913e-11 -8.01912861e-11 -8.008993951e-11 -7.518401259e-11)
5(-1.072500194e-10 -1.058690427e-10 -9.957877128e-11 -9.97747286e-11 -9.558796659e-11)
5(-1.292123341e-10 -1.288636677e-10 -1.252897159e-10 -1.284523767e-10 -1.252554142e-10)
5(-1.552454584e-10 -1.552991829e-10 -1.592952634e-10 -1.674237536e-10 -1.67153232e-10)
5(-1.90309642e-10 -1.879317822e-10 -2.05032285e-10 -2.229809935e-10 -2.301095e-10)
5(-2.37887329e-10 -2.514308584e-10 -2.770522011e-10 -3.061746438e-10 -3.237444948e-10)
5(-3.034344188e-10 -3.517738903e-10 -3.772034278e-10 -4.307464427e-10 -4.638957088e-10)
5(-3.895761657e-10 -4.747927691e-10 -5.325813787e-10 -6.214448309e-10 -6.747708578e-10)
5(-5.169542976e-10 -6.514511708e-10 -7.61685505e-10 -9.134426254e-10 -9.944379627e-10)
5(-6.967845086e-10 -9.088478687e-10 -1.087258322e-09 -1.318166026e-09 -1.452971717e-09)
5(-9.617351222e-10 -1.298427303e-09 -1.589583472e-09 -1.950067921e-09 -2.166154162e-09)
5(-1.345726813e-09 -1.832957262e-09 -2.274265373e-09 -2.802957396e-09 -3.033840687e-09)
5(-1.875013139e-09 -2.572955995e-09 -3.19954671e-09 -3.991848685e-09 -4.371643458e-09)
5(-2.609523094e-09 -3.634546404e-09 -4.522283416e-09 -5.539237759e-09 -5.995298911e-09)
5(-3.622795483e-09 -4.92940554e-09 -6.031768966e-09 -7.462934969e-09 -7.909783479e-09)
5(-4.966812024e-09 -6.883355247e-09 -8.526622319e-09 -9.960642629e-09 -1.006161555e-08)
5(-6.705919361e-09 -8.985577283e-09 -1.112628661e-08 -1.250532282e-08 -1.272287386e-08)
5(-8.791960645e-09 -1.164032912e-08 -1.385572099e-08 -1.529559855e-08 -1.428540177e-08)
5(-1.107779828e-08 -1.447677605e-08 -1.648756774e-08 -1.755577422e-08 -1.602718831e-08)
5(-1.382601122e-08 -1.763743138e-08 -1.952138074e-08 -1.919017153e-08 -1.584934557e-08)
5(-1.673364962e-08 -2.0295839e-08 -2.146413758e-08 -1.956061714e-08 -1.439564004e-08)
5(-1.922282201e-08 -2.236859788e-08 -2.222586883e-08 -1.868616469e-08 -1.188781654e-08)
5(-2.086689668e-08 -2.24667319e-08 -2.014684903e-08 -1.55757075e-08 -8.820003077e-09)
5(-2.125224814e-08 -2.136698822e-08 -1.775330099e-08 -1.166547926e-08 -5.820187192e-09)
5(-2.044326636e-08 -1.838389875e-08 -1.413604456e-08 -7.746877593e-09 -3.326784881e-09)
5(-1.791641358e-08 -1.448058077e-08 -9.658003337e-09 -4.49783141e-09 -1.61793921e-09)
5(-1.369910649e-08 -1.021007057e-08 -5.704816085e-09 -2.247384099e-09 -6.644729946e-10)
5(-9.802648714e-09 -6.065502826e-09 -2.855225409e-09 -9.455787293e-10 -2.323582009e-10)
5(-5.852204714e-09 -3.04026559e-09 -1.19999951e-09 -3.282908559e-10 -7.141737718e-11)
5(-2.916048899e-09 -1.24606991e-09 -4.04630789e-10 -9.796823184e-11 -1.930436939e-11)
5(-1.145062832e-09 -4.072216509e-10 -1.123731103e-10 -2.521296519e-11 -4.704174772e-12)
5(-3.662527547e-10 -1.046224348e-10 -2.615357999e-11 -5.646108888e-12 -1.009668821e-12)
5(-7.868390603e-11 -1.965836887e-11 -4.72419472e-12 -1.073018341e-12 -1.936034856e-13)
5(-1.177139618e-11 -2.99969569e-12 -6.928143253e-13 -1.650819111e-13 -2.960979773e-14)
5(-1.052120974e-12 -2.786748653e-13 -7.757356343e-14 -1.865878416e-14 -3.593721209e-15)
5(-6.286466213e-14 -2.102785294e-14 -4.539211703e-15 -1.385301494e-15 -2.486598352e-16)
5(-1.860922236e-15 -6.513468947e-16 -1.496229636e-16 -9.884489654e-17 -7.98262761e-18)
5(-8.247691248e-18 7.640454912e-17 -1.331547827e-16 7.84924477e-17 -5.64827128e-20)
5(-1.85425725e-22 -4.83546783e-22 -3.792560381e-13 -1.348827103e-21 -3.963122674e-21)
)


60
(
5(-1.725072991e-12 -1.27583649e-12 -1.441527172e-12 -1.098661803e-12 -9.250713973e-13)
5(-2.053253459e-12 -2.018345663e-12 -1.509028358e-12 -1.274423255e-12 -9.603697112e-13)
5(8.668402207e-12 -2.345125161e-12 -1.786022222e-12 -1.591992468e-12 -1.285151568e-12)
5(3.030233743e-11 -2.844059415e-12 -2.125432188e-12 -2.06714034e-12 -1.329207649e-12)
5(4.207984332e-11 -3.609704239e-12 -2.764959667e-12 -2.478403316e-12 -1.84833258e-12)
5(4.02321493e-11 -4.614028535e-12 -3.90710246e-12 -3.191773758e-12 -2.548079147e-12)
5(-6.217348813e-12 -5.833714078e-12 -4.892207538e-12 -4.150441253e-12 -3.171553603e-12)
5(-8.091804074e-12 -7.266224457e-12 -5.906250826e-12 -5.158929203e-12 -4.277757847e-12)
5(5.532461159e-11 -8.982952474e-12 -7.332616144e-12 -6.440763081e-12 -5.284148056e-12)
5(9.621502342e-11 -1.079118875e-11 -8.960636493e-12 -8.098536261e-12 -6.628309226e-12)
5(1.096753242e-10 -1.322335669e-11 -1.124135765e-11 -1.009534697e-11 -8.369935354e-12)
5(2.738362046e-11 -1.698307263e-11 -1.421604989e-11 -1.260720105e-11 -1.05618031e-11)
5(-2.282905538e-11 -2.079399916e-11 -1.766868794e-11 -1.550309112e-11 -1.312944598e-11)
5(-2.764645628e-11 -2.533806518e-11 -2.165462998e-11 -1.916903252e-11 -1.625094047e-11)
5(-3.390223247e-11 -3.088527026e-11 -2.651533141e-11 -2.33161811e-11 -1.999191751e-11)
5(-3.592982515e-11 -3.615458798e-11 -3.182625657e-11 -2.819199797e-11 -2.440479908e-11)
5(-4.432356543e-11 -4.39118751e-11 -3.833823623e-11 -3.419000949e-11 -2.970991288e-11)
5(-5.712637452e-11 -5.309060527e-11 -4.670562388e-11 -4.123908621e-11 -3.616480904e-11)
5(-7.076120617e-11 -6.385003233e-11 -5.602397678e-11 -4.974570194e-11 -4.383784312e-11)
5(-8.383411801e-11 -7.600317288e-11 -6.68658597e-11 -5.963179703e-11 -5.340320862e-11)
5(-9.950642257e-11 -9.01911572e-11 -8.013450033e-11 -7.198898971e-11 -6.530932653e-11)
5(-1.17060504e-10 -1.067256144e-10 -9.536363689e-11 -8.79001725e-11 -8.076774831e-11)
5(-1.371013849e-10 -1.259438553e-10 -1.142060614e-10 -1.060819839e-10 -9.937441123e-11)
5(-1.611509117e-10 -1.4840274e-10 -1.374033728e-10 -1.301483841e-10 -1.245527791e-10)
5(-1.881483186e-10 -1.736892754e-10 -1.662650015e-10 -1.612192118e-10 -1.582028435e-10)
5(-2.207325887e-10 -2.031707123e-10 -2.02926816e-10 -2.030792874e-10 -2.058828112e-10)
5(-2.606933405e-10 -2.494035782e-10 -2.549221219e-10 -2.615423309e-10 -2.738851218e-10)
5(-3.1108636e-10 -3.149133816e-10 -3.230858152e-10 -3.454184262e-10 -3.728792126e-10)
5(-3.708772858e-10 -3.932228053e-10 -4.233445496e-10 -4.691384289e-10 -5.184694845e-10)
5(-4.535527213e-10 -4.999229089e-10 -5.666763505e-10 -6.543914453e-10 -7.370357996e-10)
5(-5.607609032e-10 -6.499656871e-10 -7.662198369e-10 -9.112735615e-10 -1.046185426e-09)
5(-7.12234357e-10 -8.721582499e-10 -1.069877801e-09 -1.307487066e-09 -1.52350394e-09)
5(-9.26470988e-10 -1.177338168e-09 -1.487347452e-09 -1.850639357e-09 -2.121062773e-09)
5(-1.219653791e-09 -1.600970292e-09 -2.058531528e-09 -2.60897908e-09 -3.035833283e-09)
5(-1.62299576e-09 -2.211790937e-09 -2.875954692e-09 -3.620883191e-09 -4.173861719e-09)
5(-2.18601956e-09 -2.983940876e-09 -3.852798064e-09 -4.917133643e-09 -5.582500724e-09)
5(-2.953172824e-09 -4.149494662e-09 -5.422949786e-09 -6.6248796e-09 -7.235550911e-09)
5(-3.951369297e-09 -5.474013453e-09 -7.156528509e-09 -8.490079272e-09 -9.285493779e-09)
5(-5.213683048e-09 -7.203194853e-09 -9.087239121e-09 -1.062292917e-08 -1.086624292e-08)
5(-6.661144078e-09 -9.142039715e-09 -1.111209367e-08 -1.260621104e-08 -1.266273848e-08)
5(-8.460043303e-09 -1.140380768e-08 -1.348031518e-08 -1.432925905e-08 -1.338630207e-08)
5(-1.050207199e-08 -1.351431342e-08 -1.532324151e-08 -1.537620701e-08 -1.325636242e-08)
5(-1.243057317e-08 -1.538965453e-08 -1.650504546e-08 -1.560134144e-08 -1.220447035e-08)
5(-1.397631922e-08 -1.622163549e-08 -1.6016497e-08 -1.424724302e-08 -1.033316159e-08)
5(-1.489378798e-08 -1.620462619e-08 -1.500277683e-08 -1.197274371e-08 -7.998625419e-09)
5(-1.503963343e-08 -1.486299991e-08 -1.288292861e-08 -9.157526882e-09 -5.542529674e-09)
5(-1.396763469e-08 -1.261241869e-08 -9.845666112e-09 -6.274745012e-09 -3.397870681e-09)
5(-1.164498782e-08 -9.700789721e-09 -6.6882293e-09 -3.803774372e-09 -1.80423555e-09)
5(-9.014552811e-09 -6.517464062e-09 -3.964139279e-09 -2.009614625e-09 -8.194519849e-10)
5(-6.056339667e-09 -3.824775032e-09 -2.017064451e-09 -8.905056263e-10 -3.13655716e-10)
5(-3.493169825e-09 -1.888993726e-09 -8.561110448e-10 -3.335017151e-10 -9.991306987e-11)
5(-1.667211326e-09 -7.577149523e-10 -2.90731709e-10 -1.000893546e-10 -2.779824925e-11)
5(-6.259847994e-10 -2.379690747e-10 -7.789858313e-11 -2.46361078e-11 -6.510121697e-12)
5(-1.690509972e-10 -5.528391568e-11 -1.52975039e-11 -4.670794863e-12 -1.259653187e-12)
5(-3.240086549e-11 -9.036614912e-12 -2.303621877e-12 -7.444851998e-13 -2.113451706e-13)
5(-3.564338294e-12 -9.876995333e-13 -2.318854157e-13 -8.710528894e-14 -2.469315024e-14)
5(-2.316849057e-13 -5.273344586e-14 -1.604825802e-14 -5.990909038e-15 -1.779927219e-15)
5(-4.529116948e-15 5.680197493e-16 -5.044547635e-16 1.096611457e-15 -7.101673496e-17)
5(-2.879918382e-17 4.188621304e-13 -1.458962634e-16 2.453981402e-13 -3.589524416e-19)
5(-6.475968748e-21 -1.0734425e-21 -4.096075994e-13 -3.287803937e-21 -7.207341114e-21)
)


60
(
5(-2.367405396e-12 -1.730715562e-12 -2.017132669e-12 -1.54344133e-12 -1.212792874e-12)
5(-2.964740729e-12 -2.470443332e-12 -2.168174241e-12 -1.741788489e-12 -1.256379907e-12)
5(-3.61353404e-12 -3.238021335e-12 -2.542070518e-12 -2.093415282e-12 -1.459325433e-12)
5(-4.464355629e-12 -4.098667743e-12 -3.201515871e-12 -2.637864321e-12 -1.853372509e-12)
5(-5.697295811e-12 -5.203590915e-12 -4.175088467e-12 -3.42204908e-12 -2.483228732e-12)
5(-7.3919685e-12 -6.649376035e-12 -5.461358838e-12 -4.46565828e-12 -3.383896847e-12)
5(-9.431057736e-12 -8.451872494e-12 -7.029321806e-12 -5.793361195e-12 -4.49888054e-12)
5(-1.184850998e-11 -1.069023281e-11 -8.92732516e-12 -7.431709192e-12 -5.842877089e-12)
5(-1.482503278e-11 -1.346448854e-11 -1.125657773e-11 -9.458743789e-12 -7.524463782e-12)
5(-1.860957693e-11 -1.691551083e-11 -1.419259199e-11 -1.200444205e-11 -9.630385362e-12)
5(-2.322568444e-11 -2.116476919e-11 -1.784165863e-11 -1.516572571e-11 -1.229142538e-11)
5(-2.896556923e-11 -2.631127135e-11 -2.234818331e-11 -1.901039455e-11 -1.551815506e-11)
5(-3.589233446e-11 -3.250592894e-11 -2.778070005e-11 -2.358386919e-11 -1.939892291e-11)
5(-4.399993699e-11 -3.988437536e-11 -3.418828238e-11 -2.902137628e-11 -2.405426834e-11)
5(-5.369316406e-11 -4.858336444e-11 -4.173542858e-11 -3.544513633e-11 -2.947089062e-11)
5(-6.519401741e-11 -5.871917418e-11 -5.059909198e-11 -4.30070341e-11 -3.596558935e-11)
5(-7.873286303e-11 -7.062074644e-11 -6.103307051e-11 -5.184913804e-11 -4.36232445e-11)
5(-9.408043155e-11 -8.444883315e-11 -7.321764445e-11 -6.223070532e-11 -5.268348466e-11)
5(-1.123934256e-10 -1.001463431e-10 -8.714787435e-11 -7.431821941e-11 -6.34995866e-11)
5(-1.325134043e-10 -1.181528523e-10 -1.032248344e-10 -8.822341942e-11 -7.599474422e-11)
5(-1.557231327e-10 -1.386395565e-10 -1.213581551e-10 -1.040344484e-10 -9.053933194e-11)
5(-1.827292335e-10 -1.612623091e-10 -1.418435496e-10 -1.222032299e-10 -1.082210451e-10)
5(-2.122090839e-10 -1.86550108e-10 -1.651185858e-10 -1.425920011e-10 -1.279291735e-10)
5(-2.430139717e-10 -2.144480851e-10 -1.911323752e-10 -1.655068292e-10 -1.513940405e-10)
5(-2.779990918e-10 -2.446684998e-10 -2.192672013e-10 -1.916386296e-10 -1.78038328e-10)
5(-3.153344675e-10 -2.763132495e-10 -2.502454785e-10 -2.210917393e-10 -2.10470932e-10)
5(-3.543914732e-10 -3.091439342e-10 -2.84098072e-10 -2.547031408e-10 -2.503872179e-10)
5(-3.941555279e-10 -3.426272394e-10 -3.206522905e-10 -2.936103476e-10 -3.004514033e-10)
5(-4.333207607e-10 -3.759302438e-10 -3.606509628e-10 -3.40362895e-10 -3.651255544e-10)
5(-4.705139645e-10 -4.080803147e-10 -4.059584385e-10 -3.986269302e-10 -4.521446514e-10)
5(-5.02595507e-10 -4.387640852e-10 -4.593621621e-10 -4.758330347e-10 -5.76328906e-10)
5(-5.30052038e-10 -4.693802407e-10 -5.277341567e-10 -5.839523838e-10 -7.519849002e-10)
5(-5.508154949e-10 -5.045796769e-10 -6.199078921e-10 -7.408552964e-10 -1.00332443e-09)
5(-5.666627379e-10 -5.52859164e-10 -7.527496208e-10 -9.673266113e-10 -1.364398228e-09)
5(-5.823728491e-10 -6.276859063e-10 -9.489103382e-10 -1.305786376e-09 -1.882700182e-09)
5(-6.049231173e-10 -7.558902602e-10 -1.243914004e-09 -1.798700881e-09 -2.587911305e-09)
5(-6.594916989e-10 -9.671275769e-10 -1.686023775e-09 -2.496150105e-09 -3.543546814e-09)
5(-7.851709983e-10 -1.316626736e-09 -2.323861076e-09 -3.448092196e-09 -4.760258607e-09)
5(-1.013974053e-09 -1.865095363e-09 -3.216915966e-09 -4.685822201e-09 -6.242389803e-09)
5(-1.401751727e-09 -2.653482698e-09 -4.396602724e-09 -6.200930048e-09 -7.916486213e-09)
5(-2.023041076e-09 -3.75376858e-09 -5.860567719e-09 -7.913551535e-09 -9.624189631e-09)
5(-2.926700151e-09 -5.114489536e-09 -7.494464789e-09 -9.647289249e-09 -1.111692798e-08)
5(-4.116295953e-09 -6.691038399e-09 -9.13673835e-09 -1.113795688e-08 -1.198360611e-08)
5(-5.534048419e-09 -8.312984449e-09 -1.051257376e-08 -1.202963896e-08 -1.197514973e-08)
5(-7.078876747e-09 -9.663457572e-09 -1.131208053e-08 -1.202957778e-08 -1.095431543e-08)
5(-8.468083764e-09 -1.045705732e-08 -1.1247407e-08 -1.098683943e-08 -9.027891309e-09)
5(-9.378291288e-09 -1.045298997e-08 -1.021972966e-08 -9.045242093e-09 -6.625056259e-09)
5(-9.587290363e-09 -9.509492545e-09 -8.368983534e-09 -6.583329329e-09 -4.239343428e-09)
5(-8.879521807e-09 -7.751830018e-09 -6.018086396e-09 -4.172724654e-09 -2.346706804e-09)
5(-7.383589285e-09 -5.572621854e-09 -3.680662106e-09 -2.242870643e-09 -1.093139924e-09)
5(-5.374510488e-09 -3.420710605e-09 -1.912396643e-09 -1.01934037e-09 -4.23400971e-10)
5(-3.338518503e-09 -1.707159978e-09 -8.072735299e-10 -3.681850529e-10 -1.325544442e-10)
5(-1.64802095e-09 -6.81025145e-10 -2.639467457e-10 -1.067425996e-10 -3.463800908e-11)
5(-6.257753472e-10 -2.030562782e-10 -6.265481277e-11 -2.373071791e-11 -7.22939782e-12)
5(-1.766531575e-10 -4.152277287e-11 -1.0139579e-11 -3.803033735e-12 -1.174142173e-12)
5(-2.858814724e-11 -5.170121478e-12 -1.128963169e-12 -4.272384689e-13 -1.521512085e-13)
5(-1.934962946e-12 -4.341726145e-13 -6.570029247e-14 -3.151969119e-14 -1.049986113e-14)
5(-1.294280911e-13 -2.393996435e-14 -2.147443964e-15 -9.835781369e-15 -3.878700586e-16)
5(-1.504640829e-15 -2.190438039e-12 2.116245981e-14 -1.97133223e-12 -3.476394738e-18)
5(-3.578308799e-17 -4.430938047e-15 1.853303336e-13 -1.057712869e-16 -1.216013619e-20)
)


60
(
5(-3.064824169e-12 -2.352515344e-12 -2.642563397e-12 -2.063572034e-12 -1.530197256e-12)
5(-4.064216939e-12 -3.467291966e-12 -3.020508716e-12 -2.409206286e-12 -1.667091489e-12)
5(-5.13218788e-12 -4.614125447e-12 -3.660476398e-12 -2.960634984e-12 -2.001552315e-12)
5(-6.402839841e-12 -5.88004368e-12 -4.668925636e-12 -3.782320064e-12 -2.585510172e-12)
5(-8.182216034e-12 -7.48914055e-12 -6.113527169e-12 -4.939213791e-12 -3.525510311e-12)
5(-1.05803786e-11 -9.609278223e-12 -7.993192916e-12 -6.489215856e-12 -4.850810534e-12)
5(-1.351306899e-11 -1.224897172e-11 -1.033510077e-11 -8.474654058e-12 -6.537487875e-12)
5(-1.705021222e-11 -1.556568497e-11 -1.3216882e-11 -1.09611776e-11 -8.577668245e-12)
5(-2.144169545e-11 -1.966385067e-11 -1.674886796e-11 -1.406285935e-11 -1.114252456e-11)
5(-2.69071441e-11 -2.474541995e-11 -2.117978266e-11 -1.792284953e-11 -1.434916685e-11)
5(-3.365522771e-11 -3.099551915e-11 -2.669599679e-11 -2.269041528e-11 -1.840957645e-11)
5(-4.196117453e-11 -3.857789255e-11 -3.345333292e-11 -2.846122399e-11 -2.327338833e-11)
5(-5.190197127e-11 -4.773796597e-11 -4.153822922e-11 -3.539572236e-11 -2.917453378e-11)
5(-6.399644877e-11 -5.854900518e-11 -5.115788267e-11 -4.35956159e-11 -3.607998149e-11)
5(-7.779389656e-11 -7.127293454e-11 -6.244586623e-11 -5.32812834e-11 -4.436126711e-11)
5(-9.394834969e-11 -8.604900063e-11 -7.570983397e-11 -6.467887949e-11 -5.416308914e-11)
5(-1.135140399e-10 -1.033334556e-10 -9.112664675e-11 -7.806873775e-11 -6.578043342e-11)
5(-1.357341187e-10 -1.233265281e-10 -1.089927555e-10 -9.366683263e-11 -7.92548896e-11)
5(-1.613012099e-10 -1.462421876e-10 -1.29679093e-10 -1.115553294e-10 -9.519164227e-11)
5(-1.905853203e-10 -1.725117829e-10 -1.533460906e-10 -1.322109781e-10 -1.138613865e-10)
5(-2.235401109e-10 -2.021746369e-10 -1.802178803e-10 -1.558251302e-10 -1.353780415e-10)
5(-2.60647061e-10 -2.35393725e-10 -2.105729047e-10 -1.823353799e-10 -1.602303741e-10)
5(-3.021406223e-10 -2.723401235e-10 -2.4445339e-10 -2.121162548e-10 -1.876681415e-10)
5(-3.480446501e-10 -3.13013987e-10 -2.815601927e-10 -2.447509881e-10 -2.19590547e-10)
5(-3.9782655e-10 -3.56864982e-10 -3.216446306e-10 -2.800418158e-10 -2.531832031e-10)
5(-4.50239866e-10 -4.028771241e-10 -3.642457864e-10 -3.172240931e-10 -2.911755539e-10)
5(-5.049315835e-10 -4.479444412e-10 -4.078527857e-10 -3.562360101e-10 -3.317493149e-10)
5(-5.606502705e-10 -4.93070392e-10 -4.51056763e-10 -3.951547263e-10 -3.755862031e-10)
5(-6.154373881e-10 -5.342122437e-10 -4.913240156e-10 -4.336214032e-10 -4.237881355e-10)
5(-6.620691655e-10 -5.680413153e-10 -5.271176412e-10 -4.700954529e-10 -4.766537347e-10)
5(-7.002376238e-10 -5.904258689e-10 -5.570054441e-10 -5.052279885e-10 -5.453242266e-10)
5(-7.218336214e-10 -5.949154075e-10 -5.776028716e-10 -5.439725844e-10 -6.34034247e-10)
5(-7.204490498e-10 -5.820572963e-10 -5.915972211e-10 -5.910262003e-10 -7.533347151e-10)
5(-6.908360665e-10 -5.515273409e-10 -6.05867502e-10 -6.655631222e-10 -9.304714082e-10)
5(-6.343528783e-10 -5.028971734e-10 -6.291175191e-10 -7.868072635e-10 -1.204816087e-09)
5(-5.502750774e-10 -4.511390638e-10 -6.910062866e-10 -9.922643275e-10 -1.60854476e-09)
5(-4.350476414e-10 -4.223598838e-10 -8.308272005e-10 -1.335233202e-09 -2.216344388e-09)
5(-3.336896525e-10 -4.564417046e-10 -1.10244222e-09 -1.884955391e-09 -3.084039422e-09)
5(-2.634018245e-10 -6.155552516e-10 -1.579991078e-09 -2.705059344e-09 -4.255832572e-09)
5(-3.063261276e-10 -9.78849518e-10 -2.321142173e-09 -3.847898039e-09 -5.735971075e-09)
5(-5.368547425e-10 -1.625771096e-09 -3.391530018e-09 -5.324292617e-09 -7.464348601e-09)
5(-1.021082084e-09 -2.610959875e-09 -4.799972952e-09 -7.052639119e-09 -9.287857281e-09)
5(-1.864089009e-09 -3.969977458e-09 -6.460994448e-09 -8.860045927e-09 -1.086961693e-08)
5(-3.115013236e-09 -5.615501745e-09 -8.193034484e-09 -1.04608309e-08 -1.191181253e-08)
5(-4.695364241e-09 -7.381200963e-09 -9.687899252e-09 -1.148006988e-08 -1.205387179e-08)
5(-6.480322004e-09 -8.982236486e-09 -1.065287973e-08 -1.16069075e-08 -1.118575389e-08)
5(-8.246757072e-09 -1.004539525e-08 -1.075430088e-08 -1.073742406e-08 -9.366845009e-09)
5(-9.597523727e-09 -1.032577821e-08 -9.826906248e-09 -8.898871156e-09 -6.97779113e-09)
5(-1.016161312e-08 -9.605491412e-09 -8.042899861e-09 -6.507685161e-09 -4.531392856e-09)
5(-9.756286257e-09 -7.994084014e-09 -5.768668397e-09 -4.164110416e-09 -2.513827951e-09)
5(-8.371050668e-09 -5.816577545e-09 -3.537825711e-09 -2.240438686e-09 -1.174889633e-09)
5(-6.331691047e-09 -3.561320659e-09 -1.79704668e-09 -9.995287949e-10 -4.561964338e-10)
5(-4.090461332e-09 -1.833484225e-09 -7.290512817e-10 -3.460970292e-10 -1.326274638e-10)
5(-2.153406987e-09 -7.462134134e-10 -2.215515469e-10 -9.146029475e-11 -3.32113797e-11)
5(-8.50151083e-10 -2.140691736e-10 -4.772178244e-11 -1.668789683e-11 -5.750879944e-12)
5(-2.75369277e-10 -4.198997673e-11 -6.429592637e-12 -2.092894224e-12 -6.015516224e-13)
5(-5.178168505e-11 -4.702205907e-12 -4.297501536e-13 -1.688144069e-13 -5.359688281e-14)
5(-4.794550464e-12 -3.113725189e-13 -1.846563696e-14 -1.225529478e-14 -1.918147273e-15)
5(-3.12473332e-13 -1.778107667e-12 7.534914158e-16 -1.057613261e-12 -1.572098594e-17)
5(-3.75297679e-13 -1.298084383e-15 -1.517961641e-12 1.83546207e-19 -1.570939538e-20)
)


60
(
5(-3.7859163e-12 -3.020692451e-12 -3.281402763e-12 -2.602022456e-12 -1.860527397e-12)
5(-5.235796863e-12 -4.525947549e-12 -3.915910578e-12 -3.108446958e-12 -2.108633011e-12)
5(-6.705202378e-12 -6.062787875e-12 -4.860431471e-12 -3.874420604e-12 -2.593181277e-12)
5(-8.446920973e-12 -7.753248293e-12 -6.247248045e-12 -4.994677698e-12 -3.446882918e-12)
5(-1.080675033e-11 -9.879485206e-12 -8.159443451e-12 -6.566052286e-12 -4.744249881e-12)
5(-1.391980038e-11 -1.266973461e-11 -1.067113314e-11 -8.687928234e-12 -6.544984685e-12)
5(-1.778591573e-11 -1.618797316e-11 -1.383516334e-11 -1.138989483e-11 -8.90321035e-12)
5(-2.248143082e-11 -2.06113022e-11 -1.774354993e-11 -1.480222998e-11 -1.173848995e-11)
5(-2.831872022e-11 -2.611728049e-11 -2.258457912e-11 -1.908361404e-11 -1.53244306e-11)
5(-3.550250834e-11 -3.290508937e-11 -2.864531452e-11 -2.440405773e-11 -1.98220121e-11)
5(-4.453711616e-11 -4.124224181e-11 -3.6162707e-11 -3.095198451e-11 -2.544169525e-11)
5(-5.523540021e-11 -5.132334999e-11 -4.528042366e-11 -3.887710515e-11 -3.223480826e-11)
5(-6.837265224e-11 -6.339852405e-11 -5.619491903e-11 -4.839163936e-11 -4.041612935e-11)
5(-8.38132287e-11 -7.763068728e-11 -6.912169376e-11 -5.967119035e-11 -4.997614437e-11)
5(-1.023522081e-10 -9.444128837e-11 -8.438110005e-11 -7.295631281e-11 -6.163935571e-11)
5(-1.237307149e-10 -1.141588786e-10 -1.022498877e-10 -8.850213147e-11 -7.512061536e-11)
5(-1.48422564e-10 -1.369549214e-10 -1.230009314e-10 -1.067556944e-10 -9.145380084e-11)
5(-1.776566072e-10 -1.633235004e-10 -1.470263458e-10 -1.279678099e-10 -1.102378341e-10)
5(-2.100868188e-10 -1.93637146e-10 -1.748673424e-10 -1.526450448e-10 -1.326718579e-10)
5(-2.487708046e-10 -2.281579693e-10 -2.067794171e-10 -1.810695922e-10 -1.584296647e-10)
5(-2.919421225e-10 -2.673014539e-10 -2.432046655e-10 -2.136233087e-10 -1.882377657e-10)
5(-3.383489939e-10 -3.115054136e-10 -2.841812824e-10 -2.503238792e-10 -2.22274434e-10)
5(-3.926540162e-10 -3.606685036e-10 -3.300460783e-10 -2.913670073e-10 -2.606289491e-10)
5(-4.541309513e-10 -4.146385541e-10 -3.80239759e-10 -3.36634319e-10 -3.030510178e-10)
5(-5.181860602e-10 -4.72672122e-10 -4.350281766e-10 -3.853490107e-10 -3.505868086e-10)
5(-5.882100911e-10 -5.34499076e-10 -4.932815452e-10 -4.36277951e-10 -3.987650469e-10)
5(-6.626007029e-10 -5.988846969e-10 -5.524319529e-10 -4.878916075e-10 -4.485675552e-10)
5(-7.377944756e-10 -6.624510616e-10 -6.103010172e-10 -5.377607389e-10 -4.994598754e-10)
5(-8.097833602e-10 -7.20522803e-10 -6.631962208e-10 -5.822573196e-10 -5.471634487e-10)
5(-8.77484264e-10 -7.690320082e-10 -7.072086165e-10 -6.181650362e-10 -5.909446078e-10)
5(-9.346846884e-10 -8.029989148e-10 -7.35999293e-10 -6.413328145e-10 -6.319171712e-10)
5(-9.70518108e-10 -8.133671344e-10 -7.442071895e-10 -6.473249454e-10 -6.677060794e-10)
5(-9.779839424e-10 -7.930843634e-10 -7.27611497e-10 -6.37050121e-10 -7.048408891e-10)
5(-9.445839928e-10 -7.319873374e-10 -6.814257047e-10 -6.185239809e-10 -7.793497824e-10)
5(-8.710311217e-10 -6.276181152e-10 -6.103865056e-10 -6.007910093e-10 -8.661496316e-10)
5(-7.444945201e-10 -4.865021384e-10 -5.313510716e-10 -6.133017851e-10 -1.054576789e-09)
5(-5.604755226e-10 -3.255565397e-10 -4.720185738e-10 -7.076039271e-10 -1.375350767e-09)
5(-3.329211305e-10 -1.677538333e-10 -4.838171814e-10 -9.387492572e-10 -1.91317519e-09)
5(-9.690565302e-11 -6.711882485e-11 -6.282120283e-10 -1.395733956e-09 -2.744286292e-09)
5(8.710451781e-11 -1.01070617e-10 -1.00151418e-09 -2.162393083e-09 -3.938305118e-09)
5(1.668994173e-10 -3.676977135e-10 -1.699915809e-09 -3.305805123e-09 -5.45957146e-09)
5(1.655182313e-11 -9.734885067e-10 -2.800511018e-09 -4.844396059e-09 -7.321797376e-09)
5(-4.520383463e-10 -2.00196791e-09 -4.313806538e-09 -6.700411682e-09 -9.254831491e-09)
5(-1.362407605e-09 -3.48070526e-09 -6.14480121e-09 -8.670059138e-09 -1.096870949e-08)
5(-2.765724272e-09 -5.359019489e-09 -8.078469553e-09 -1.0409033e-08 -1.206977654e-08)
5(-4.60456734e-09 -7.437477322e-09 -9.826743618e-09 -1.152229703e-08 -1.229405795e-08)
5(-6.647033742e-09 -9.366468419e-09 -1.097858838e-08 -1.167648504e-08 -1.139609917e-08)
5(-8.811503679e-09 -1.07788743e-08 -1.113624251e-08 -1.079173645e-08 -9.535719104e-09)
5(-1.051263287e-08 -1.131566737e-08 -1.026332083e-08 -8.924120272e-09 -7.053626091e-09)
5(-1.135029039e-08 -1.075889452e-08 -8.438768362e-09 -6.484750735e-09 -4.533638553e-09)
5(-1.119741728e-08 -9.115022232e-09 -6.031142064e-09 -4.059401451e-09 -2.480629447e-09)
5(-9.894434519e-09 -6.892468389e-09 -3.669254474e-09 -2.140767411e-09 -1.138006948e-09)
5(-7.716490853e-09 -4.329263505e-09 -1.873187065e-09 -8.965388252e-10 -4.086704671e-10)
5(-5.327469294e-09 -2.287618254e-09 -7.356946802e-10 -3.000542227e-10 -1.162457841e-10)
5(-2.946743872e-09 -9.619397601e-10 -2.104361791e-10 -7.032172976e-11 -2.262741931e-11)
5(-1.449741544e-09 -2.982925063e-10 -3.641688371e-11 -1.063576031e-11 -3.063682288e-12)
5(-5.140879003e-10 -7.239077317e-11 -5.252110424e-12 -9.481493452e-13 -2.148157078e-13)
5(-1.430048865e-10 -7.700923755e-12 -3.204181728e-13 -3.776720665e-14 -1.040546977e-14)
5(-3.125405244e-11 1.468819627e-12 -2.978939011e-14 1.943934496e-12 -6.649137081e-17)
5(-4.215111884e-11 -9.796264434e-13 -5.648469609e-12 9.995547052e-17 -6.622983842e-17)
)


60
(
5(-4.520850071e-12 -3.706665355e-12 -3.9250562e-12 -3.145788909e-12 -2.206276807e-12)
5(-6.429346654e-12 -5.599867934e-12 -4.808358469e-12 -3.818298261e-12 -2.568904011e-12)
5(-8.343803539e-12 -7.545825667e-12 -6.070638189e-12 -4.806979078e-12 -3.232843168e-12)
5(-1.055968379e-11 -9.665833532e-12 -7.854532598e-12 -6.239212715e-12 -4.327195143e-12)
5(-1.353502514e-11 -1.233123227e-11 -1.028649896e-11 -8.246973693e-12 -6.034723548e-12)
5(-1.739067251e-11 -1.582806149e-11 -1.343382364e-11 -1.094167987e-11 -8.378488288e-12)
5(-2.222135791e-11 -2.024109023e-11 -1.743432432e-11 -1.441689475e-11 -1.139752992e-11)
5(-2.81668344e-11 -2.579322575e-11 -2.242832782e-11 -1.882990856e-11 -1.515955849e-11)
5(-3.541070938e-11 -3.277344639e-11 -2.864757043e-11 -2.435654744e-11 -1.984521178e-11)
5(-4.460673163e-11 -4.133485619e-11 -3.639916632e-11 -3.124460117e-11 -2.587268589e-11)
5(-5.566671661e-11 -5.179333839e-11 -4.597583336e-11 -3.967284e-11 -3.313226427e-11)
5(-6.915502073e-11 -6.435423011e-11 -5.756087103e-11 -4.990513907e-11 -4.206178208e-11)
5(-8.551111393e-11 -7.937529691e-11 -7.14535636e-11 -6.212151297e-11 -5.26445145e-11)
5(-1.046764441e-10 -9.725961025e-11 -8.77927469e-11 -7.660077071e-11 -6.535980595e-11)
5(-1.2762638e-10 -1.183356011e-10 -1.070708231e-10 -9.365512769e-11 -8.038535376e-11)
5(-1.542065665e-10 -1.428594155e-10 -1.295714266e-10 -1.135896848e-10 -9.825844952e-11)
5(-1.84896435e-10 -1.712581273e-10 -1.559764151e-10 -1.369355355e-10 -1.193550484e-10)
5(-2.200312219e-10 -2.040796826e-10 -1.865336476e-10 -1.642120667e-10 -1.444336515e-10)
5(-2.61885442e-10 -2.41959729e-10 -2.218205931e-10 -1.961329353e-10 -1.731955209e-10)
5(-3.076400886e-10 -2.849254749e-10 -2.62126906e-10 -2.328193953e-10 -2.076647019e-10)
5(-3.607262126e-10 -3.337035247e-10 -3.081874208e-10 -2.748646129e-10 -2.460421451e-10)
5(-4.213572401e-10 -3.892260526e-10 -3.605294959e-10 -3.225078474e-10 -2.91108437e-10)
5(-4.862071576e-10 -4.51117305e-10 -4.192256978e-10 -3.758660032e-10 -3.416552235e-10)
5(-5.621211006e-10 -5.192118182e-10 -4.842799509e-10 -4.350474287e-10 -3.973842574e-10)
5(-6.428397253e-10 -5.936819972e-10 -5.553499901e-10 -4.992871781e-10 -4.594276312e-10)
5(-7.295755233e-10 -6.727769112e-10 -6.304804003e-10 -5.67432208e-10 -5.22323863e-10)
5(-8.261770982e-10 -7.57871573e-10 -7.087620138e-10 -6.369612263e-10 -5.90232185e-10)
5(-9.227110796e-10 -8.43381694e-10 -7.877105532e-10 -7.045628335e-10 -6.549186223e-10)
5(-1.01523966e-09 -9.247855937e-10 -8.612008407e-10 -7.657825285e-10 -7.125519007e-10)
5(-1.111090927e-09 -9.980838097e-10 -9.244068634e-10 -8.157472877e-10 -7.63015587e-10)
5(-1.194407487e-09 -1.057192392e-09 -9.696806138e-10 -8.453611662e-10 -7.99730866e-10)
5(-1.255066145e-09 -1.092282671e-09 -9.889862803e-10 -8.474257406e-10 -8.142635494e-10)
5(-1.28711678e-09 -1.090735098e-09 -9.715980403e-10 -8.182729502e-10 -8.055762395e-10)