/*--------------------------------*- C++ -*----------------------------------*\
| =========                 |                                                 |
| \\      /  F ield         | OpenFOAM: The Open Source CFD Toolbox           |
|  \\    /   O peration     | Version:  2.3.1                                 |
|   \\  /    A nd           | Web:      www.OpenFOAM.org                      |
|    \\/     M anipulation  |                                                 |
\*---------------------------------------------------------------------------*/
FoamFile
{
    version     2.0;
    format      ascii;
    class       dictionary;
    location    "constant";
    object      DPSI46;
}
// * * * * * * * * * * * * * * * * * * * * * * * * * * * * * * * * * * * * * //

DPSI46_table
60
(

60
(
5(-3.899031648e-06 -6.237460106e-06 -6.3855685e-06 -5.641504972e-06 -7.064095666e-06)
5(-2.621332946e-06 -6.081981859e-06 -7.302372227e-06 -5.796557027e-06 -6.604765794e-06)
5(-8.933833011e-06 -8.871498256e-06 -6.146146124e-06 -3.497819541e-06 -1.827150778e-06)
5(-1.296539455e-05 -1.205703344e-05 -5.686140597e-06 -6.956852958e-06 -1.143253676e-05)
5(-1.163391135e-05 -1.110590808e-05 -7.185220735e-06 -6.730219769e-06 -7.931818545e-06)
5(-8.107695302e-06 -7.790902694e-06 -7.58876057e-06 -7.821187015e-06 -6.711148239e-06)
5(-7.147149379e-06 -7.805004151e-06 -7.737629063e-06 -9.040062046e-06 -1.051175531e-05)
5(-9.31496028e-06 -9.948091651e-06 -8.59723829e-06 -7.225385808e-06 -7.008247445e-06)
5(-8.869285389e-06 -9.600015635e-06 -9.040789737e-06 -8.635035731e-06 -8.803960985e-06)
5(-9.78861243e-06 -1.064718795e-05 -9.286488679e-06 -8.780810762e-06 -9.915231327e-06)
5(-1.002055039e-05 -1.094803124e-05 -9.750232202e-06 -9.243974353e-06 -1.031801643e-05)
5(-1.042810865e-05 -1.105432448e-05 -1.012729287e-05 -9.71410564e-06 -1.024691075e-05)
5(-1.130419475e-05 -1.159183936e-05 -1.064312466e-05 -1.033307936e-05 -1.059756566e-05)
5(-1.122330654e-05 -1.174414233e-05 -1.074887212e-05 -1.048263747e-05 -1.11826134e-05)
5(-1.186319958e-05 -1.225490868e-05 -1.13519926e-05 -1.094902851e-05 -1.125775181e-05)
5(-1.213633414e-05 -1.262142564e-05 -1.170271729e-05 -1.12380011e-05 -1.163935462e-05)
5(-1.244299511e-05 -1.298018972e-05 -1.208910644e-05 -1.169062101e-05 -1.221949402e-05)
5(-1.279158943e-05 -1.334637093e-05 -1.253447481e-05 -1.206692811e-05 -1.247801207e-05)
5(-1.322876982e-05 -1.373465885e-05 -1.282648227e-05 -1.237963111e-05 -1.287958238e-05)
5(-1.36339634e-05 -1.407279661e-05 -1.320108994e-05 -1.256676012e-05 -1.276950883e-05)
5(-1.382187986e-05 -1.43112246e-05 -1.35626882e-05 -1.29652809e-05 -1.315529571e-05)
5(-1.407619604e-05 -1.466842985e-05 -1.351304148e-05 -1.293113819e-05 -1.371595287e-05)
5(-1.426163896e-05 -1.483294941e-05 -1.398890496e-05 -1.34706015e-05 -1.398443888e-05)
5(-1.493198263e-05 -1.521253103e-05 -1.413405494e-05 -1.367409392e-05 -1.418062371e-05)
5(-1.513076358e-05 -1.55048826e-05 -1.451128637e-05 -1.395798108e-05 -1.439960941e-05)
5(-1.535048987e-05 -1.5927323e-05 -1.496012606e-05 -1.40278747e-05 -1.428728595e-05)
5(-1.543029317e-05 -1.601363562e-05 -1.532035319e-05 -1.440657955e-05 -1.441978942e-05)
5(-1.578000181e-05 -1.640641424e-05 -1.557955359e-05 -1.449553949e-05 -1.453403735e-05)
5(-1.589738595e-05 -1.643001664e-05 -1.565048426e-05 -1.478942316e-05 -1.49248113e-05)
5(-1.627544324e-05 -1.659202539e-05 -1.557287977e-05 -1.49085096e-05 -1.527665823e-05)
5(-1.645418068e-05 -1.682088379e-05 -1.580893666e-05 -1.497236462e-05 -1.522325793e-05)
5(-1.65301962e-05 -1.685377429e-05 -1.575141826e-05 -1.470854307e-05 -1.480848985e-05)
5(-1.6829635e-05 -1.709800836e-05 -1.583301804e-05 -1.520917245e-05 -1.586803235e-05)
5(-1.705020278e-05 -1.733087006e-05 -1.578212814e-05 -1.458257203e-05 -1.496623404e-05)
5(-1.702721417e-05 -1.733257865e-05 -1.587408448e-05 -1.471702609e-05 -1.509267382e-05)
5(-1.744275752e-05 -1.777052457e-05 -1.58192228e-05 -1.438866819e-05 -1.502974188e-05)
5(-1.700004588e-05 -1.723660732e-05 -1.58047112e-05 -1.501043872e-05 -1.568815341e-05)
5(-1.737528696e-05 -1.728503148e-05 -1.579040216e-05 -1.368499599e-05 -1.27288403e-05)
5(-1.720904981e-05 -1.739706299e-05 -1.567947707e-05 -1.474925345e-05 -1.555438029e-05)
5(-1.698754366e-05 -1.749528491e-05 -1.574811597e-05 -1.001212173e-05 -6.300651712e-06)
5(-1.665973447e-05 -1.71180944e-05 -1.567156207e-05 -1.080122973e-05 -7.617612162e-06)
5(-1.675895676e-05 -1.703569688e-05 -1.412598141e-05 -1.125460227e-05 -1.143321926e-05)
5(-1.629026108e-05 -1.670335227e-05 -1.084749533e-05 -1.201608837e-05 -1.953492246e-05)
5(-1.6521081e-05 -1.76928204e-05 -1.10332937e-05 -1.16776713e-05 -2.029773549e-05)
5(-1.613438559e-05 -1.711675167e-05 -1.162496262e-05 -1.255390792e-05 -2.008199056e-05)
5(-1.664608611e-05 -1.65681731e-05 -1.206769379e-05 -1.381469765e-05 -2.003997099e-05)
5(-1.596957379e-05 -1.253373697e-05 -1.302259389e-05 -1.861679451e-05 -2.011182993e-05)
5(-1.388564739e-05 -1.166964097e-05 -1.491474983e-05 -2.04456068e-05 -2.033012378e-05)
5(-1.436805705e-05 -1.19772072e-05 -1.521140225e-05 -2.076939876e-05 -2.050845072e-05)
5(-4.701534528e-06 -1.261219629e-05 -2.090153834e-05 -2.087512534e-05 -2.061683458e-05)
5(-6.755804519e-06 -1.383520482e-05 -2.117209196e-05 -2.095638226e-05 -2.061559519e-05)
5(-1.608711317e-05 -1.858138991e-05 -2.123432687e-05 -2.101219723e-05 -2.060541978e-05)
5(-1.979156481e-05 -2.045331323e-05 -2.126412677e-05 -2.103112954e-05 -2.053783175e-05)
5(-2.031654876e-05 -2.075483037e-05 -2.12678189e-05 -2.102373266e-05 -2.059360164e-05)
5(-2.032167466e-05 -2.077672559e-05 -2.129442381e-05 -2.094193077e-05 -2.042265195e-05)
5(-1.920204853e-05 -2.018152782e-05 -2.113653679e-05 -2.075540093e-05 -2.033487442e-05)
5(-1.683027556e-05 -1.886632614e-05 -2.085091632e-05 -2.032298307e-05 -1.983791149e-05)
5(-1.586689768e-05 -1.776600488e-05 -1.983830188e-05 -1.942245895e-05 -1.882361365e-05)
5(-1.640911754e-05 -1.77439881e-05 -1.469708991e-05 -1.747235623e-05 -2.485921988e-05)
5(-2.012274082e-05 -2.010690508e-05 -2.141677685e-05 -1.840883105e-05 -1.387752783e-05)
)


60
(
5(-5.16803116e-06 -6.518666175e-06 -6.27579639e-06 -5.84498174e-06 -6.640088109e-06)
5(-6.232533399e-06 -6.962731755e-06 -6.438125058e-06 -6.202859481e-06 -6.459932494e-06)
5(-7.117860157e-06 -7.462126547e-06 -6.788178544e-06 -6.613713392e-06 -6.529862982e-06)
5(-7.776681732e-06 -8.034985269e-06 -7.299488047e-06 -7.102253802e-06 -6.984033669e-06)
5(-8.270805799e-06 -8.62629081e-06 -7.88259297e-06 -7.656941964e-06 -7.711635711e-06)
5(-8.655803063e-06 -9.158450145e-06 -8.43685198e-06 -8.202201867e-06 -8.480228071e-06)
5(-9.096526063e-06 -9.638236595e-06 -8.944999826e-06 -8.70786306e-06 -9.043799788e-06)
5(-9.580714644e-06 -1.011630044e-05 -9.416356445e-06 -9.151437423e-06 -9.48774124e-06)
5(-1.005330852e-05 -1.057035921e-05 -9.860022647e-06 -9.579229179e-06 -9.915602424e-06)
5(-1.048876229e-05 -1.100519201e-05 -1.029811612e-05 -9.99486925e-06 -1.033220159e-05)
5(-1.094016321e-05 -1.144965078e-05 -1.072367318e-05 -1.041487337e-05 -1.078688434e-05)
5(-1.132391291e-05 -1.187079124e-05 -1.114146663e-05 -1.081603632e-05 -1.124825611e-05)
5(-1.171888145e-05 -1.228188748e-05 -1.153783886e-05 -1.11914846e-05 -1.166253214e-05)
5(-1.210398843e-05 -1.2677218e-05 -1.193181151e-05 -1.156071118e-05 -1.204231901e-05)
5(-1.247477814e-05 -1.305830525e-05 -1.230500684e-05 -1.191569442e-05 -1.242091532e-05)
5(-1.283650111e-05 -1.34302496e-05 -1.266091367e-05 -1.224988029e-05 -1.278257016e-05)
5(-1.319790416e-05 -1.380057435e-05 -1.301126123e-05 -1.257011107e-05 -1.312238185e-05)
5(-1.354458256e-05 -1.415314217e-05 -1.334197412e-05 -1.28799513e-05 -1.34593356e-05)
5(-1.386363751e-05 -1.44898132e-05 -1.366909121e-05 -1.317718124e-05 -1.377352914e-05)
5(-1.418307267e-05 -1.481511462e-05 -1.397971961e-05 -1.346901092e-05 -1.408478156e-05)
5(-1.448989111e-05 -1.513000607e-05 -1.427130496e-05 -1.373204362e-05 -1.436788083e-05)
5(-1.47938569e-05 -1.543075374e-05 -1.455407087e-05 -1.398922471e-05 -1.46288105e-05)
5(-1.507456131e-05 -1.571860254e-05 -1.482004647e-05 -1.423346143e-05 -1.489665471e-05)
5(-1.533308109e-05 -1.598853473e-05 -1.505930431e-05 -1.445120344e-05 -1.515211652e-05)
5(-1.558595772e-05 -1.624395001e-05 -1.529770353e-05 -1.466504435e-05 -1.537501274e-05)
5(-1.581659071e-05 -1.649353296e-05 -1.55216665e-05 -1.484614274e-05 -1.557305283e-05)
5(-1.602193036e-05 -1.671755217e-05 -1.573615038e-05 -1.502209285e-05 -1.5752672e-05)
5(-1.62381808e-05 -1.692549928e-05 -1.591831293e-05 -1.518033232e-05 -1.591604924e-05)
5(-1.643420571e-05 -1.712112434e-05 -1.608111439e-05 -1.533067817e-05 -1.609970341e-05)
5(-1.659252015e-05 -1.729096513e-05 -1.623842979e-05 -1.545595639e-05 -1.622953221e-05)
5(-1.673894631e-05 -1.744704381e-05 -1.637669684e-05 -1.557766335e-05 -1.637509685e-05)
5(-1.686807184e-05 -1.757765605e-05 -1.650040068e-05 -1.568777876e-05 -1.649102907e-05)
5(-1.698117013e-05 -1.770152955e-05 -1.66062938e-05 -1.577249859e-05 -1.659543817e-05)
5(-1.707178362e-05 -1.78008058e-05 -1.669911012e-05 -1.585162937e-05 -1.668703425e-05)
5(-1.715565101e-05 -1.789097746e-05 -1.677836485e-05 -1.592117612e-05 -1.677492056e-05)
5(-1.720563412e-05 -1.795536e-05 -1.68503729e-05 -1.598262521e-05 -1.684314363e-05)
5(-1.726001121e-05 -1.802059478e-05 -1.690521641e-05 -1.604493594e-05 -1.69457448e-05)
5(-1.729103067e-05 -1.806252686e-05 -1.695711855e-05 -1.611175706e-05 -1.70388887e-05)
5(-1.729579091e-05 -1.809790607e-05 -1.702652282e-05 -1.617150696e-05 -1.709600191e-05)
5(-1.733174353e-05 -1.81334823e-05 -1.707255775e-05 -1.621711228e-05 -1.713781533e-05)
5(-1.73301433e-05 -1.815243391e-05 -1.713855745e-05 -1.625175561e-05 -1.712094839e-05)
5(-1.74002068e-05 -1.820504333e-05 -1.717385035e-05 -1.62627618e-05 -1.711335268e-05)
5(-1.742219873e-05 -1.824602249e-05 -1.722089465e-05 -1.628551202e-05 -1.713382207e-05)
5(-1.743631211e-05 -1.830609144e-05 -1.728686021e-05 -1.633519095e-05 -1.722010413e-05)
5(-1.752588455e-05 -1.83746426e-05 -1.733133035e-05 -1.641834845e-05 -1.73546345e-05)
5(-1.764208779e-05 -1.846690351e-05 -1.739818207e-05 -1.652405832e-05 -1.750946222e-05)
5(-1.776741533e-05 -1.856295158e-05 -1.749299768e-05 -1.665851598e-05 -1.766131774e-05)
5(-1.789963867e-05 -1.867196893e-05 -1.761931516e-05 -1.681647688e-05 -1.78147555e-05)
5(-1.805013951e-05 -1.87838815e-05 -1.775217393e-05 -1.700849721e-05 -1.800931818e-05)
5(-1.825431019e-05 -1.892946755e-05 -1.790509045e-05 -1.722224338e-05 -1.821974593e-05)
5(-1.843259364e-05 -1.90720355e-05 -1.807743056e-05 -1.746282554e-05 -1.846748605e-05)
5(-1.86390542e-05 -1.922424831e-05 -1.826489343e-05 -1.774505393e-05 -1.87587086e-05)
5(-1.882878348e-05 -1.93746881e-05 -1.846137669e-05 -1.80210265e-05 -1.903166194e-05)
5(-1.899300974e-05 -1.952623553e-05 -1.868731987e-05 -1.835155608e-05 -1.938332453e-05)
5(-1.920957469e-05 -1.96927381e-05 -1.891946526e-05 -1.867766325e-05 -1.9688892e-05)
5(-1.941370321e-05 -1.986247747e-05 -1.916268703e-05 -1.900820469e-05 -2.000061405e-05)
5(-1.963757421e-05 -2.005690004e-05 -1.940518585e-05 -1.930116663e-05 -2.026628104e-05)
5(-1.991244233e-05 -2.025107738e-05 -1.96152339e-05 -1.955890312e-05 -2.047384541e-05)
5(-2.029322653e-05 -2.051117076e-05 -1.97878074e-05 -1.970816567e-05 -2.056591459e-05)
5(-2.215228445e-05 -1.780720989e-05 -1.820920463e-05 -2.427224626e-05 -2.541125352e-05)
)


60
(
5(-5.532341837e-06 -6.590389088e-06 -6.311104065e-06 -5.919565231e-06 -6.506112621e-06)
5(-6.484503859e-06 -7.089730712e-06 -6.584148121e-06 -6.349436913e-06 -6.567435244e-06)
5(-7.254175822e-06 -7.627980617e-06 -7.013861741e-06 -6.81676659e-06 -6.849689647e-06)
5(-7.873161847e-06 -8.207188154e-06 -7.548182512e-06 -7.325062405e-06 -7.356380326e-06)
5(-8.364309283e-06 -8.777672849e-06 -8.117465451e-06 -7.866560971e-06 -8.02729162e-06)
5(-8.805085198e-06 -9.307406054e-06 -8.660606029e-06 -8.398934682e-06 -8.698519028e-06)
5(-9.254353837e-06 -9.802954627e-06 -9.167732333e-06 -8.890368662e-06 -9.253605472e-06)
5(-9.73066787e-06 -1.028030058e-05 -9.635669831e-06 -9.342616545e-06 -9.725358458e-06)
5(-1.019409948e-05 -1.073743396e-05 -1.00838189e-05 -9.771788667e-06 -1.015851932e-05)
5(-1.063736063e-05 -1.118212386e-05 -1.052138259e-05 -1.020373941e-05 -1.061741522e-05)
5(-1.106316309e-05 -1.162403091e-05 -1.095076201e-05 -1.061229665e-05 -1.105996804e-05)
5(-1.14643207e-05 -1.204855771e-05 -1.136625867e-05 -1.100730642e-05 -1.149345395e-05)
5(-1.185363108e-05 -1.245606416e-05 -1.176324592e-05 -1.138410021e-05 -1.19025744e-05)
5(-1.223917992e-05 -1.285155466e-05 -1.214525409e-05 -1.17467399e-05 -1.228974331e-05)
5(-1.260805538e-05 -1.323501712e-05 -1.251337002e-05 -1.209149034e-05 -1.266134267e-05)
5(-1.297424248e-05 -1.360740865e-05 -1.286831442e-05 -1.242558012e-05 -1.301594744e-05)
5(-1.33085635e-05 -1.396358661e-05 -1.321498792e-05 -1.274405222e-05 -1.335647156e-05)
5(-1.364216849e-05 -1.43069726e-05 -1.354485463e-05 -1.304812811e-05 -1.367407783e-05)
5(-1.396522008e-05 -1.464310284e-05 -1.385917789e-05 -1.333577207e-05 -1.398626547e-05)
5(-1.427208541e-05 -1.496007569e-05 -1.416251703e-05 -1.361504036e-05 -1.427985975e-05)
5(-1.458109637e-05 -1.527186114e-05 -1.444777967e-05 -1.387979999e-05 -1.456744718e-05)
5(-1.485893042e-05 -1.555602941e-05 -1.471453991e-05 -1.412655592e-05 -1.483163082e-05)
5(-1.513226798e-05 -1.583831425e-05 -1.497376864e-05 -1.435622421e-05 -1.507691549e-05)
5(-1.538593693e-05 -1.610149266e-05 -1.521326287e-05 -1.457249427e-05 -1.531659667e-05)
5(-1.562873031e-05 -1.635257528e-05 -1.543977199e-05 -1.477369668e-05 -1.553809039e-05)
5(-1.584666506e-05 -1.657997831e-05 -1.565243791e-05 -1.495801682e-05 -1.572973671e-05)
5(-1.604567018e-05 -1.679110576e-05 -1.585087167e-05 -1.513617313e-05 -1.592450841e-05)
5(-1.625594089e-05 -1.69987484e-05 -1.603091477e-05 -1.528896099e-05 -1.608479998e-05)
5(-1.641143421e-05 -1.717107614e-05 -1.619323639e-05 -1.543770439e-05 -1.625895036e-05)
5(-1.656937628e-05 -1.733858419e-05 -1.634667351e-05 -1.556357458e-05 -1.639112549e-05)
5(-1.671197588e-05 -1.748411681e-05 -1.647415805e-05 -1.568545386e-05 -1.65386267e-05)
5(-1.68276661e-05 -1.760987541e-05 -1.659399572e-05 -1.579635522e-05 -1.666644422e-05)
5(-1.692039664e-05 -1.772542472e-05 -1.67066236e-05 -1.589069723e-05 -1.677861409e-05)
5(-1.701975669e-05 -1.782353297e-05 -1.679630121e-05 -1.597771968e-05 -1.687866194e-05)
5(-1.709102231e-05 -1.790230452e-05 -1.688200757e-05 -1.606692228e-05 -1.698049237e-05)
5(-1.717652604e-05 -1.799147192e-05 -1.695637798e-05 -1.614349361e-05 -1.708643897e-05)
5(-1.722041406e-05 -1.805190103e-05 -1.70272036e-05 -1.622301883e-05 -1.718999783e-05)
5(-1.724731682e-05 -1.809740596e-05 -1.709539987e-05 -1.631147912e-05 -1.730349978e-05)
5(-1.728290887e-05 -1.814505045e-05 -1.716517959e-05 -1.639910293e-05 -1.740607011e-05)
5(-1.730356854e-05 -1.818542881e-05 -1.724026494e-05 -1.648931567e-05 -1.750329933e-05)
5(-1.734898616e-05 -1.824053612e-05 -1.731353765e-05 -1.658176422e-05 -1.761267324e-05)
5(-1.73877214e-05 -1.828956933e-05 -1.739607228e-05 -1.668943604e-05 -1.772778757e-05)
5(-1.743441636e-05 -1.83504042e-05 -1.749163276e-05 -1.682185282e-05 -1.788365188e-05)
5(-1.750265631e-05 -1.842473857e-05 -1.760496394e-05 -1.69784524e-05 -1.805786388e-05)
5(-1.757543008e-05 -1.851213361e-05 -1.775615334e-05 -1.717198682e-05 -1.82522889e-05)
5(-1.769122404e-05 -1.863770436e-05 -1.792608002e-05 -1.736905811e-05 -1.844809244e-05)
5(-1.784259059e-05 -1.879503333e-05 -1.812088033e-05 -1.758314625e-05 -1.865422911e-05)
5(-1.802390333e-05 -1.898933257e-05 -1.834300615e-05 -1.780356434e-05 -1.886163438e-05)
5(-1.824779156e-05 -1.921862791e-05 -1.857677173e-05 -1.802443068e-05 -1.90747366e-05)
5(-1.85683873e-05 -1.948642401e-05 -1.878919681e-05 -1.823516128e-05 -1.928840863e-05)
5(-1.893601654e-05 -1.976714685e-05 -1.899114311e-05 -1.844162473e-05 -1.949100407e-05)
5(-1.93235703e-05 -2.00424276e-05 -1.917276846e-05 -1.86433712e-05 -1.96926508e-05)
5(-1.966859805e-05 -2.028676345e-05 -1.933602781e-05 -1.883555638e-05 -1.989497757e-05)
5(-1.996218075e-05 -2.048137338e-05 -1.947406702e-05 -1.901565664e-05 -2.007440828e-05)
5(-2.016588423e-05 -2.062462377e-05 -1.961123764e-05 -1.920233814e-05 -2.025747513e-05)
5(-2.032979166e-05 -2.073734569e-05 -1.973260052e-05 -1.937282254e-05 -2.041866952e-05)
5(-2.050127003e-05 -2.08355639e-05 -1.984895404e-05 -1.953976965e-05 -2.054407982e-05)
5(-2.071925632e-05 -2.097093984e-05 -1.997303329e-05 -1.96803074e-05 -2.063121673e-05)
5(-2.124169279e-05 -2.133542631e-05 -2.024671354e-05 -1.988708567e-05 -2.069644234e-05)
5(-2.260717019e-05 -1.833228735e-05 -1.775791705e-05 -2.432196821e-05 -2.706454159e-05)
)


60
(
5(-5.718583332e-06 -6.608837977e-06 -6.334769928e-06 -5.951788527e-06 -6.431755513e-06)
5(-6.601102075e-06 -7.13890083e-06 -6.668608483e-06 -6.421980287e-06 -6.635055294e-06)
5(-7.325032554e-06 -7.700579749e-06 -7.135109707e-06 -6.915984772e-06 -7.014329713e-06)
5(-7.919403139e-06 -8.282420891e-06 -7.680918834e-06 -7.437955729e-06 -7.558019304e-06)
5(-8.420105484e-06 -8.847628224e-06 -8.244423351e-06 -7.974762928e-06 -8.195615156e-06)
5(-8.876387044e-06 -9.376054643e-06 -8.784218412e-06 -8.50176812e-06 -8.829659096e-06)
5(-9.337991558e-06 -9.876308238e-06 -9.284794046e-06 -8.989367018e-06 -9.379733728e-06)
5(-9.807048171e-06 -1.035568829e-05 -9.754824088e-06 -9.444739336e-06 -9.861957999e-06)
5(-1.026736549e-05 -1.081907139e-05 -1.020771898e-05 -9.879086657e-06 -1.030859203e-05)
5(-1.070990269e-05 -1.126777989e-05 -1.064580128e-05 -1.030494635e-05 -1.07583649e-05)
5(-1.11252242e-05 -1.170301004e-05 -1.10721851e-05 -1.07130963e-05 -1.119924568e-05)
5(-1.153086503e-05 -1.212669244e-05 -1.148198396e-05 -1.110745876e-05 -1.163160149e-05)
5(-1.192127414e-05 -1.253577565e-05 -1.187954718e-05 -1.1484046e-05 -1.203685845e-05)
5(-1.229696152e-05 -1.292819055e-05 -1.226144178e-05 -1.184073979e-05 -1.241271356e-05)
5(-1.265767621e-05 -1.330738922e-05 -1.262732239e-05 -1.218696087e-05 -1.278857164e-05)
5(-1.301354541e-05 -1.367661249e-05 -1.297779265e-05 -1.251452312e-05 -1.314097907e-05)
5(-1.335975287e-05 -1.403410138e-05 -1.331780899e-05 -1.283061473e-05 -1.347609215e-05)
5(-1.367996905e-05 -1.437033392e-05 -1.364098139e-05 -1.313430882e-05 -1.380392896e-05)
5(-1.40036044e-05 -1.470247962e-05 -1.395128106e-05 -1.341819424e-05 -1.410430506e-05)
5(-1.43015657e-05 -1.501222848e-05 -1.4246434e-05 -1.369502933e-05 -1.44018851e-05)
5(-1.45877344e-05 -1.531516231e-05 -1.45334853e-05 -1.395126284e-05 -1.467209655e-05)
5(-1.487779091e-05 -1.560458667e-05 -1.47936169e-05 -1.419102293e-05 -1.493079492e-05)
5(-1.514025485e-05 -1.587716029e-05 -1.504847667e-05 -1.442028612e-05 -1.517306359e-05)
5(-1.537392999e-05 -1.612338035e-05 -1.528663981e-05 -1.463736563e-05 -1.540017017e-05)
5(-1.56011013e-05 -1.63680557e-05 -1.550960009e-05 -1.483752767e-05 -1.562837867e-05)
5(-1.582363914e-05 -1.659424659e-05 -1.571247336e-05 -1.501871367e-05 -1.582433835e-05)
5(-1.602326349e-05 -1.680241374e-05 -1.59036174e-05 -1.51865383e-05 -1.600375691e-05)
5(-1.620799086e-05 -1.699409389e-05 -1.607846903e-05 -1.53463553e-05 -1.618156256e-05)
5(-1.63736712e-05 -1.716815474e-05 -1.62349601e-05 -1.548429301e-05 -1.633596625e-05)
5(-1.652202748e-05 -1.732565146e-05 -1.638234817e-05 -1.56205616e-05 -1.648931446e-05)
5(-1.665392952e-05 -1.746633025e-05 -1.651204071e-05 -1.573621478e-05 -1.661912452e-05)
5(-1.676883313e-05 -1.758454952e-05 -1.662835645e-05 -1.585510805e-05 -1.675387446e-05)
5(-1.686776008e-05 -1.769992448e-05 -1.673187685e-05 -1.594691719e-05 -1.687086071e-05)
5(-1.69535407e-05 -1.779461133e-05 -1.682633233e-05 -1.604295038e-05 -1.698535403e-05)
5(-1.702267519e-05 -1.787406047e-05 -1.691077331e-05 -1.612460218e-05 -1.707676941e-05)
5(-1.708084819e-05 -1.794245424e-05 -1.698666138e-05 -1.621588368e-05 -1.719312645e-05)
5(-1.712681773e-05 -1.799602491e-05 -1.705703814e-05 -1.630560463e-05 -1.73000441e-05)
5(-1.716569828e-05 -1.804960297e-05 -1.712185813e-05 -1.63859499e-05 -1.740613924e-05)
5(-1.719746769e-05 -1.809256626e-05 -1.718519442e-05 -1.648314218e-05 -1.753455054e-05)
5(-1.722428389e-05 -1.81312592e-05 -1.72516199e-05 -1.657953253e-05 -1.765078801e-05)
5(-1.725137586e-05 -1.817158285e-05 -1.732461418e-05 -1.669647777e-05 -1.779698309e-05)
5(-1.728252606e-05 -1.821401808e-05 -1.740405132e-05 -1.683393803e-05 -1.797147827e-05)
5(-1.73235941e-05 -1.82623525e-05 -1.750169489e-05 -1.699902781e-05 -1.816678445e-05)
5(-1.737908421e-05 -1.832470917e-05 -1.762449895e-05 -1.719156104e-05 -1.838074077e-05)
5(-1.745924037e-05 -1.841159671e-05 -1.778053129e-05 -1.740906685e-05 -1.860204226e-05)
5(-1.756404644e-05 -1.852712265e-05 -1.797192645e-05 -1.765440413e-05 -1.884028621e-05)
5(-1.771737069e-05 -1.870056153e-05 -1.82019125e-05 -1.791152343e-05 -1.909253341e-05)
5(-1.790867794e-05 -1.89223711e-05 -1.846418527e-05 -1.817127459e-05 -1.934366896e-05)
5(-1.820821547e-05 -1.922048041e-05 -1.874756914e-05 -1.843847137e-05 -1.961145762e-05)
5(-1.858193858e-05 -1.955952416e-05 -1.903446907e-05 -1.86921591e-05 -1.985157411e-05)
5(-1.906734696e-05 -1.995554678e-05 -1.93153047e-05 -1.893130995e-05 -2.00738838e-05)
5(-1.961991963e-05 -2.038282147e-05 -1.958737157e-05 -1.915214773e-05 -2.026918469e-05)
5(-2.018313996e-05 -2.080224511e-05 -1.982947465e-05 -1.934140379e-05 -2.043384353e-05)
5(-2.068912002e-05 -2.117994526e-05 -2.004425849e-05 -1.950116933e-05 -2.056975474e-05)
5(-2.111835919e-05 -2.149986364e-05 -2.022935904e-05 -1.964346522e-05 -2.069223978e-05)
5(-2.148137246e-05 -2.176448312e-05 -2.038095828e-05 -1.97597455e-05 -2.078626796e-05)
5(-2.176590808e-05 -2.198703688e-05 -2.054036142e-05 -1.986226875e-05 -2.083419008e-05)
5(-2.205030518e-05 -2.221397718e-05 -2.071846041e-05 -1.998952481e-05 -2.090308682e-05)
5(-2.250481649e-05 -2.254296083e-05 -2.105915892e-05 -2.028413779e-05 -2.100402347e-05)
5(-1.761846926e-05 -1.869776161e-05 -2.221659885e-05 -2.320952342e-05 -2.169828537e-05)
)


60
(
5(-5.830738121e-06 -6.607646765e-06 -6.349754679e-06 -5.965317198e-06 -6.380826945e-06)
5(-6.671839684e-06 -7.16026568e-06 -6.721286867e-06 -6.462109381e-06 -6.679836631e-06)
5(-7.367769097e-06 -7.735289764e-06 -7.210025312e-06 -6.973493241e-06 -7.11662826e-06)
5(-7.94770629e-06 -8.319104775e-06 -7.763225073e-06 -7.502415292e-06 -7.677512244e-06)
5(-8.450067413e-06 -8.88136273e-06 -8.323429801e-06 -8.037986766e-06 -8.303211224e-06)
5(-8.916837649e-06 -9.408289467e-06 -8.857013213e-06 -8.561263973e-06 -8.918547944e-06)
5(-9.381149433e-06 -9.91047771e-06 -9.357132456e-06 -9.046990651e-06 -9.461272479e-06)
5(-9.847817886e-06 -1.039146222e-05 -9.829293329e-06 -9.5045142e-06 -9.945177439e-06)
5(-1.030323515e-05 -1.085428713e-05 -1.027964691e-05 -9.940170314e-06 -1.040078365e-05)
5(-1.073596939e-05 -1.130265664e-05 -1.071973481e-05 -1.036404207e-05 -1.084932655e-05)
5(-1.115344878e-05 -1.173784114e-05 -1.114216156e-05 -1.077095344e-05 -1.128932602e-05)
5(-1.155299641e-05 -1.21595529e-05 -1.155384609e-05 -1.116319373e-05 -1.171218871e-05)
5(-1.193661006e-05 -1.256622404e-05 -1.194758031e-05 -1.153517176e-05 -1.211550455e-05)
5(-1.232079119e-05 -1.296051973e-05 -1.232486477e-05 -1.189502386e-05 -1.24986153e-05)
5(-1.26771119e-05 -1.333592252e-05 -1.268757924e-05 -1.223559528e-05 -1.28630277e-05)
5(-1.302645907e-05 -1.369671195e-05 -1.303526095e-05 -1.256522576e-05 -1.321134618e-05)
5(-1.336272655e-05 -1.405099628e-05 -1.337133489e-05 -1.287717395e-05 -1.354850242e-05)
5(-1.36860954e-05 -1.43895463e-05 -1.368868685e-05 -1.317488015e-05 -1.387541293e-05)
5(-1.399770613e-05 -1.47120212e-05 -1.399838902e-05 -1.346119661e-05 -1.417195316e-05)
5(-1.429431193e-05 -1.502247223e-05 -1.429140965e-05 -1.373087218e-05 -1.446009641e-05)
5(-1.457866436e-05 -1.53195215e-05 -1.456961331e-05 -1.398677026e-05 -1.473528527e-05)
5(-1.484920804e-05 -1.559911219e-05 -1.483219422e-05 -1.422600446e-05 -1.498644573e-05)
5(-1.51052076e-05 -1.586580108e-05 -1.507962613e-05 -1.445472649e-05 -1.523584879e-05)
5(-1.534801812e-05 -1.611902847e-05 -1.531217973e-05 -1.46643932e-05 -1.546276263e-05)
5(-1.55727003e-05 -1.635543665e-05 -1.553083037e-05 -1.486278561e-05 -1.56792084e-05)
5(-1.577372053e-05 -1.657396949e-05 -1.573868927e-05 -1.504518171e-05 -1.587287698e-05)
5(-1.597720527e-05 -1.677575419e-05 -1.59196812e-05 -1.521634161e-05 -1.606072571e-05)
5(-1.615717146e-05 -1.696429554e-05 -1.609173432e-05 -1.537291979e-05 -1.623463601e-05)
5(-1.631889843e-05 -1.713619619e-05 -1.624960824e-05 -1.551350474e-05 -1.638968048e-05)
5(-1.646538592e-05 -1.72904363e-05 -1.639164351e-05 -1.564336998e-05 -1.653448267e-05)
5(-1.659616483e-05 -1.742627162e-05 -1.65179833e-05 -1.576387112e-05 -1.667052467e-05)
5(-1.670983212e-05 -1.754594203e-05 -1.662942626e-05 -1.586665329e-05 -1.678539635e-05)
5(-1.68080648e-05 -1.76502688e-05 -1.672893705e-05 -1.597285951e-05 -1.691589793e-05)
5(-1.688519566e-05 -1.773991067e-05 -1.682035122e-05 -1.60633384e-05 -1.702302063e-05)
5(-1.695564412e-05 -1.781854264e-05 -1.690047278e-05 -1.614853273e-05 -1.71257386e-05)
5(-1.701381414e-05 -1.788527684e-05 -1.697142664e-05 -1.623055527e-05 -1.722891326e-05)
5(-1.705795809e-05 -1.793613495e-05 -1.703345323e-05 -1.631292174e-05 -1.733325417e-05)
5(-1.709249224e-05 -1.797685353e-05 -1.708877495e-05 -1.639357537e-05 -1.74359005e-05)
5(-1.712093635e-05 -1.801066072e-05 -1.714087272e-05 -1.647981305e-05 -1.754798186e-05)
5(-1.714345904e-05 -1.80401076e-05 -1.719374331e-05 -1.657274326e-05 -1.76687073e-05)
5(-1.716357533e-05 -1.806787847e-05 -1.724790096e-05 -1.667551009e-05 -1.780487463e-05)
5(-1.718624124e-05 -1.80970416e-05 -1.730966591e-05 -1.680413227e-05 -1.797819062e-05)
5(-1.722251421e-05 -1.813192975e-05 -1.738813361e-05 -1.696426436e-05 -1.817851096e-05)
5(-1.726959213e-05 -1.817961348e-05 -1.749228376e-05 -1.714968719e-05 -1.839295884e-05)
5(-1.734658475e-05 -1.824869116e-05 -1.763026296e-05 -1.737018906e-05 -1.862238291e-05)
5(-1.744686225e-05 -1.835825044e-05 -1.78070181e-05 -1.760814498e-05 -1.886742963e-05)
5(-1.758081374e-05 -1.851941668e-05 -1.803386957e-05 -1.787001014e-05 -1.913020386e-05)
5(-1.776923692e-05 -1.874075331e-05 -1.830036416e-05 -1.815310261e-05 -1.942254696e-05)
5(-1.804535458e-05 -1.904002766e-05 -1.861464337e-05 -1.845111878e-05 -1.971663882e-05)
5(-1.843559011e-05 -1.942034603e-05 -1.895760438e-05 -1.87499301e-05 -2.000170081e-05)
5(-1.893807261e-05 -1.987134769e-05 -1.932489906e-05 -1.905463288e-05 -2.027587147e-05)
5(-1.950649903e-05 -2.037843207e-05 -1.971732515e-05 -1.934870679e-05 -2.052371391e-05)
5(-2.014078117e-05 -2.093137321e-05 -2.010854568e-05 -1.961408825e-05 -2.074151743e-05)
5(-2.079079249e-05 -2.149761101e-05 -2.050081645e-05 -1.985701624e-05 -2.092202202e-05)
5(-2.143680138e-05 -2.205210126e-05 -2.086985351e-05 -2.006360061e-05 -2.105495576e-05)
5(-2.201625572e-05 -2.255802015e-05 -2.120674252e-05 -2.02370306e-05 -2.115714987e-05)
5(-2.256151386e-05 -2.302100925e-05 -2.15187729e-05 -2.039543113e-05 -2.12257492e-05)
5(-2.303197601e-05 -2.33862883e-05 -2.183050014e-05 -2.063293304e-05 -2.133129774e-05)
5(-2.339505326e-05 -2.364361464e-05 -2.225122005e-05 -2.11072729e-05 -2.157953853e-05)
5(-1.978469173e-05 -1.871800566e-05 -2.132205684e-05 -2.28228626e-05 -2.045059657e-05)
)


60
(
5(-5.905333817e-06 -6.599043061e-06 -6.358471275e-06 -5.970909213e-06 -6.345582822e-06)
5(-6.718471447e-06 -7.169014668e-06 -6.757708329e-06 -6.487495348e-06 -6.712114627e-06)
5(-7.392611817e-06 -7.752244007e-06 -7.262025177e-06 -7.011445796e-06 -7.189626704e-06)
5(-7.965420159e-06 -8.337981973e-06 -7.81878644e-06 -7.543519577e-06 -7.759083613e-06)
5(-8.470602606e-06 -8.898759041e-06 -8.375996554e-06 -8.077779484e-06 -8.375567515e-06)
5(-8.941621515e-06 -9.424957594e-06 -8.906164923e-06 -8.598412176e-06 -8.980271505e-06)
5(-9.404463868e-06 -9.924723615e-06 -9.404772519e-06 -9.083939843e-06 -9.517511702e-06)
5(-9.870620103e-06 -1.040758764e-05 -9.875442307e-06 -9.540336469e-06 -1.000374852e-05)
5(-1.031944675e-05 -1.0868845e-05 -1.032671123e-05 -9.97721313e-06 -1.046082097e-05)
5(-1.075290349e-05 -1.131767425e-05 -1.076263556e-05 -1.039917004e-05 -1.091132941e-05)
5(-1.116413973e-05 -1.175043438e-05 -1.118604779e-05 -1.080541216e-05 -1.134660715e-05)
5(-1.156161877e-05 -1.217006794e-05 -1.159292903e-05 -1.119495834e-05 -1.176912556e-05)
5(-1.19456222e-05 -1.257440217e-05 -1.198439331e-05 -1.156664216e-05 -1.216796599e-05)
5(-1.23150627e-05 -1.29628672e-05 -1.236007413e-05 -1.192348093e-05 -1.255039628e-05)
5(-1.26762055e-05 -1.333893949e-05 -1.271995971e-05 -1.226324621e-05 -1.291236121e-05)
5(-1.30206937e-05 -1.369996062e-05 -1.306687599e-05 -1.259053774e-05 -1.32616988e-05)
5(-1.33549759e-05 -1.40482541e-05 -1.339678943e-05 -1.290022201e-05 -1.359394233e-05)
5(-1.367400708e-05 -1.438250902e-05 -1.371658666e-05 -1.319902411e-05 -1.391110487e-05)
5(-1.397853e-05 -1.470235655e-05 -1.4019167e-05 -1.348018856e-05 -1.421304423e-05)
5(-1.427394998e-05 -1.500912864e-05 -1.430884948e-05 -1.374932799e-05 -1.44985596e-05)
5(-1.455364311e-05 -1.53015607e-05 -1.458473314e-05 -1.400433488e-05 -1.477028567e-05)
5(-1.481834067e-05 -1.557904995e-05 -1.484296212e-05 -1.42416618e-05 -1.50270445e-05)
5(-1.507475175e-05 -1.584273441e-05 -1.508827342e-05 -1.446897869e-05 -1.526944923e-05)
5(-1.531121388e-05 -1.609088668e-05 -1.531890102e-05 -1.467932191e-05 -1.549627242e-05)
5(-1.55317764e-05 -1.632304688e-05 -1.553288112e-05 -1.487322385e-05 -1.570749167e-05)
5(-1.574243382e-05 -1.65390557e-05 -1.573257941e-05 -1.505774696e-05 -1.590504464e-05)
5(-1.593595477e-05 -1.674087026e-05 -1.591896741e-05 -1.522627514e-05 -1.608575287e-05)
5(-1.611057981e-05 -1.692508773e-05 -1.608765743e-05 -1.53792695e-05 -1.625494255e-05)
5(-1.626854176e-05 -1.709161421e-05 -1.62407575e-05 -1.552020415e-05 -1.641218682e-05)
5(-1.641668576e-05 -1.724196577e-05 -1.637941374e-05 -1.565228625e-05 -1.655712502e-05)
5(-1.654527543e-05 -1.737732358e-05 -1.650446776e-05 -1.576869239e-05 -1.668763073e-05)
5(-1.665628396e-05 -1.749698774e-05 -1.66161142e-05 -1.587403834e-05 -1.680945406e-05)
5(-1.675413006e-05 -1.760010944e-05 -1.671231946e-05 -1.597082755e-05 -1.692400111e-05)