/*--------------------------------*- C++ -*----------------------------------*\
| =========                 |                                                 |
| \\      /  F ield         | OpenFOAM: The Open Source CFD Toolbox           |
|  \\    /   O peration     | Version:  2.3.1                                 |
|   \\  /    A nd           | Web:      www.OpenFOAM.org                      |
|    \\/     M anipulation  |                                                 |
\*---------------------------------------------------------------------------*/
FoamFile
{
    version     2.0;
    format      ascii;
    class       dictionary;
    location    "constant";
    object      DPSI25;
}
// * * * * * * * * * * * * * * * * * * * * * * * * * * * * * * * * * * * * * //

DPSI25_table
60
(

60
(
5(-3.356586249e-10 -5.747200291e-10 -5.43224825e-10 -7.282037832e-10 -7.890956659e-10)
5(-5.425797508e-10 -1.102640699e-09 -8.09343294e-10 -1.014140897e-09 -9.878538667e-10)
5(6.176781974e-10 -1.152925669e-09 -1.103669924e-09 -1.412525407e-09 -1.693773775e-09)
5(3.377464664e-09 -1.361222875e-09 -1.282161657e-09 -1.995560319e-09 -1.375541046e-09)
5(5.334701877e-09 -1.790784689e-09 -1.739050261e-09 -2.326553982e-09 -2.214133674e-09)
5(5.221712562e-09 -2.375844363e-09 -2.817848642e-09 -3.112252845e-09 -3.324711491e-09)
5(-1.998403607e-09 -3.106064437e-09 -3.570763554e-09 -4.326691572e-09 -4.144852952e-09)
5(-2.862772631e-09 -3.9719633e-09 -4.308884383e-09 -5.53667565e-09 -6.159617684e-09)
5(7.488002866e-09 -5.027782492e-09 -5.490778983e-09 -7.176254341e-09 -7.751564013e-09)
5(1.19746726e-08 -5.864717379e-09 -6.803124211e-09 -9.404819067e-09 -1.009915741e-08)
5(1.312843575e-08 -7.281507233e-09 -9.02330256e-09 -1.21673619e-08 -1.332724686e-08)
5(2.057915171e-09 -1.051839208e-08 -1.224297204e-08 -1.59808739e-08 -1.754973555e-08)
5(-9.262022112e-09 -1.344040629e-08 -1.605738243e-08 -2.04379985e-08 -2.278655773e-08)
5(-1.156492832e-08 -1.710189024e-08 -2.057187701e-08 -2.660217775e-08 -2.944606376e-08)
5(-1.50072041e-08 -2.191592049e-08 -2.645594147e-08 -3.359405263e-08 -3.749490028e-08)
5(-1.737766298e-08 -2.573449115e-08 -3.270928038e-08 -4.177775071e-08 -4.699475745e-08)
5(-2.235004146e-08 -3.325572935e-08 -4.109256612e-08 -5.279117684e-08 -5.86573758e-08)
5(-2.967451604e-08 -4.262751784e-08 -5.286541095e-08 -6.566594441e-08 -7.232416565e-08)
5(-3.834818065e-08 -5.409509534e-08 -6.587747222e-08 -8.108168874e-08 -8.790511864e-08)
5(-4.76813252e-08 -6.716235836e-08 -8.088291284e-08 -9.809979863e-08 -1.069941423e-07)
5(-5.950467346e-08 -8.311838621e-08 -9.972774659e-08 -1.191449634e-07 -1.292833362e-07)
5(-7.35638419e-08 -1.016990291e-07 -1.206919716e-07 -1.45681568e-07 -1.555220665e-07)
5(-8.976952409e-08 -1.230258275e-07 -1.45752991e-07 -1.71250425e-07 -1.814145318e-07)
5(-1.09954657e-07 -1.473249027e-07 -1.743544155e-07 -2.019986716e-07 -2.12369801e-07)
5(-1.330186057e-07 -1.756232401e-07 -2.061505792e-07 -2.350810104e-07 -2.45157999e-07)
5(-1.602463969e-07 -2.081244334e-07 -2.411518901e-07 -2.711312235e-07 -2.822739211e-07)
5(-1.919226615e-07 -2.468409688e-07 -2.839629878e-07 -3.121463853e-07 -3.222181348e-07)
5(-2.289034161e-07 -2.908247208e-07 -3.284431329e-07 -3.574778341e-07 -3.657321196e-07)
5(-2.696849369e-07 -3.383318464e-07 -3.808937855e-07 -4.088191767e-07 -4.122550615e-07)
5(-3.174466286e-07 -3.907791796e-07 -4.38195585e-07 -4.670478136e-07 -4.640410972e-07)
5(-3.709674605e-07 -4.496803485e-07 -4.981294261e-07 -5.233806509e-07 -5.169865664e-07)
5(-4.328244655e-07 -5.178004472e-07 -5.691164417e-07 -5.937879089e-07 -5.866694048e-07)
5(-5.033323676e-07 -5.90920584e-07 -6.419973444e-07 -6.627229778e-07 -6.347869023e-07)
5(-5.812631204e-07 -6.70527775e-07 -7.183760977e-07 -7.387007659e-07 -7.139724172e-07)
5(-6.687462965e-07 -7.617976425e-07 -8.076140871e-07 -8.171895441e-07 -7.819201944e-07)
5(-7.677012191e-07 -8.541643712e-07 -8.880741964e-07 -8.974585054e-07 -8.500516399e-07)
5(-8.774178651e-07 -9.709969224e-07 -1.011003205e-06 -9.93452476e-07 -9.154062239e-07)
5(-9.997636867e-07 -1.080793946e-06 -1.118189628e-06 -1.077258012e-06 -1.033700128e-06)
5(-1.131852555e-06 -1.206802883e-06 -1.222732989e-06 -1.175102491e-06 -1.05744837e-06)
5(-1.268767467e-06 -1.337902638e-06 -1.325484143e-06 -1.260683933e-06 -1.317282349e-06)
5(-1.427450394e-06 -1.487906276e-06 -1.464118203e-06 -1.362138965e-06 -1.36474644e-06)
5(-1.60170014e-06 -1.639079529e-06 -1.594910769e-06 -1.528735213e-06 -1.406151128e-06)
5(-1.783333448e-06 -1.8066954e-06 -1.733842528e-06 -1.78414635e-06 -1.427326031e-06)
5(-1.967695801e-06 -1.944727759e-06 -1.783377215e-06 -1.836433274e-06 -1.431411721e-06)
5(-2.154054423e-06 -2.107333032e-06 -1.920283138e-06 -1.865091673e-06 -1.439925942e-06)
5(-2.361197787e-06 -2.242784633e-06 -2.062569156e-06 -1.872249372e-06 -1.430920657e-06)
5(-2.553507691e-06 -2.405115154e-06 -2.35805537e-06 -1.862685533e-06 -1.410007188e-06)
5(-2.741750743e-06 -2.619536458e-06 -2.45952374e-06 -1.841332906e-06 -1.380137453e-06)
5(-2.888031873e-06 -2.67693789e-06 -2.450549135e-06 -1.805187236e-06 -1.345409403e-06)
5(-3.011460545e-06 -2.986701506e-06 -2.404565321e-06 -1.757797213e-06 -1.309706782e-06)
5(-3.116165538e-06 -2.944365073e-06 -2.336476828e-06 -1.702024898e-06 -1.273116924e-06)
5(-3.382197129e-06 -2.851126206e-06 -2.251361335e-06 -1.644090138e-06 -1.238509927e-06)
5(-3.393809578e-06 -2.728749402e-06 -2.155860069e-06 -1.583878198e-06 -1.204898929e-06)
5(-3.240027921e-06 -2.585920098e-06 -2.052295338e-06 -1.523667873e-06 -1.172985648e-06)
5(-3.00801749e-06 -2.431501438e-06 -1.945224137e-06 -1.46731091e-06 -1.14626651e-06)
5(-2.715315693e-06 -2.264298935e-06 -1.834178242e-06 -1.417011832e-06 -1.126443709e-06)
5(-2.363679783e-06 -2.084735531e-06 -1.721720406e-06 -1.37163068e-06 -1.115979282e-06)
5(-2.022976784e-06 -1.870397991e-06 -1.604237909e-06 -1.333714503e-06 -1.129328831e-06)
5(-1.714760035e-06 -1.642964887e-06 -1.446889584e-06 -1.400503323e-06 -1.155528932e-06)
5(-1.448284117e-06 -1.44525726e-06 -1.282984406e-06 -1.232577989e-06 -1.126920421e-06)
)


60
(
5(-3.148110574e-10 -5.06248238e-10 -5.303414525e-10 -7.150210331e-10 -8.091975446e-10)
5(-4.825019737e-10 -8.811306594e-10 -7.493818506e-10 -9.539036937e-10 -9.991971777e-10)
5(8.338671822e-11 -9.682850565e-10 -1.004023324e-09 -1.28980923e-09 -1.588050278e-09)
5(1.64176249e-09 -1.171778272e-09 -1.213186562e-09 -1.776453934e-09 -1.494905048e-09)
5(2.535308876e-09 -1.532515773e-09 -1.619811118e-09 -2.147452016e-09 -2.221294913e-09)
5(2.199030325e-09 -2.022830805e-09 -2.45232291e-09 -2.862037058e-09 -3.198709433e-09)
5(-1.745545508e-09 -2.643757618e-09 -3.150187046e-09 -3.91254021e-09 -4.061176729e-09)
5(-2.426226745e-09 -3.405957407e-09 -3.9068873e-09 -5.044918908e-09 -5.788894597e-09)
5(2.674540976e-09 -4.359695845e-09 -5.045154455e-09 -6.555653498e-09 -7.350343756e-09)
5(4.630436609e-09 -5.315088295e-09 -6.37469165e-09 -8.569000272e-09 -9.541564887e-09)
5(4.738155805e-09 -6.724738464e-09 -8.379634445e-09 -1.107418641e-08 -1.243637213e-08)
5(-1.583439925e-09 -9.247338859e-09 -1.112882988e-08 -1.438744696e-08 -1.614098889e-08)
5(-8.184695125e-09 -1.182238486e-08 -1.444608048e-08 -1.831286613e-08 -2.065353894e-08)
5(-1.03071086e-08 -1.50500662e-08 -1.842931681e-08 -2.350314933e-08 -2.628194822e-08)
5(-1.330617126e-08 -1.919379051e-08 -2.352534543e-08 -2.949770625e-08 -3.306829279e-08)
5(-1.604306675e-08 -2.321703053e-08 -2.922233772e-08 -3.659933447e-08 -4.10064548e-08)
5(-2.044707087e-08 -2.956219732e-08 -3.652392166e-08 -4.566720166e-08 -5.055778549e-08)
5(-2.64734525e-08 -3.737509243e-08 -4.609882471e-08 -5.625603707e-08 -6.170014795e-08)
5(-3.369146137e-08 -4.684381382e-08 -5.697470594e-08 -6.879893037e-08 -7.445135902e-08)
5(-4.182053976e-08 -5.776454943e-08 -6.956034664e-08 -8.282363967e-08 -8.961461698e-08)
5(-5.18019265e-08 -7.08929622e-08 -8.490032423e-08 -9.970705323e-08 -1.071386292e-07)
5(-6.379005297e-08 -8.619721555e-08 -1.021157099e-07 -1.202778876e-07 -1.27593102e-07)
5(-7.759419295e-08 -1.037970617e-07 -1.223812825e-07 -1.411306111e-07 -1.48329161e-07)
5(-9.446026509e-08 -1.237978135e-07 -1.453734516e-07 -1.6557914e-07 -1.726680338e-07)
5(-1.135837572e-07 -1.469618988e-07 -1.711282904e-07 -1.921436222e-07 -1.986521554e-07)
5(-1.361298523e-07 -1.733901631e-07 -1.994795312e-07 -2.212954846e-07 -2.277711412e-07)
5(-1.620358824e-07 -2.042324939e-07 -2.331007411e-07 -2.539042723e-07 -2.593973004e-07)
5(-1.920091101e-07 -2.390000009e-07 -2.687246095e-07 -2.900127253e-07 -2.93788914e-07)
5(-2.251965407e-07 -2.768531744e-07 -3.096898631e-07 -3.303228758e-07 -3.308401549e-07)
5(-2.63597165e-07 -3.18726449e-07 -3.547199499e-07 -3.756002435e-07 -3.719004061e-07)
5(-3.062325488e-07 -3.65561091e-07 -4.02329346e-07 -4.210290286e-07 -4.144185053e-07)
5(-3.549129538e-07 -4.187024524e-07 -4.57349359e-07 -4.753075099e-07 -4.673339306e-07)
5(-4.100707419e-07 -4.76135094e-07 -5.149842559e-07 -5.304766271e-07 -5.097830802e-07)
5(-4.710112295e-07 -5.390416803e-07 -5.764425122e-07 -5.907629737e-07 -5.706769249e-07)
5(-5.388251009e-07 -6.097990281e-07 -6.461905047e-07 -6.542110429e-07 -6.26585825e-07)
5(-6.143262546e-07 -6.834014883e-07 -7.135922076e-07 -7.205656776e-07 -6.846144038e-07)
5(-6.991482021e-07 -7.720242365e-07 -8.054313619e-07 -7.975019612e-07 -7.429641355e-07)
5(-7.914207029e-07 -8.595309577e-07 -8.914106112e-07 -8.699346202e-07 -8.303209982e-07)
5(-8.924471677e-07 -9.59200811e-07 -9.78524868e-07 -9.518132692e-07 -8.696682885e-07)
5(-9.983936654e-07 -1.063111004e-06 -1.067638949e-06 -1.029759998e-06 -1.034617294e-06)
5(-1.117824932e-06 -1.180995112e-06 -1.179628148e-06 -1.118277971e-06 -1.090170569e-06)
5(-1.251586187e-06 -1.302343974e-06 -1.289033871e-06 -1.243241971e-06 -1.144421316e-06)
5(-1.389683455e-06 -1.436534184e-06 -1.406338656e-06 -1.417295368e-06 -1.188197213e-06)
5(-1.533856271e-06 -1.560265875e-06 -1.479582632e-06 -1.487041433e-06 -1.221929818e-06)
5(-1.683204392e-06 -1.697652946e-06 -1.600654652e-06 -1.545177971e-06 -1.256634381e-06)
5(-1.848567617e-06 -1.825738436e-06 -1.726785555e-06 -1.59057289e-06 -1.280230866e-06)
5(-2.010069673e-06 -1.969225784e-06 -1.934798725e-06 -1.624696615e-06 -1.293326541e-06)
5(-2.172191474e-06 -2.14141038e-06 -2.039612192e-06 -1.647686606e-06 -1.297136237e-06)
5(-2.314432646e-06 -2.23000247e-06 -2.081890209e-06 -1.656841261e-06 -1.293029556e-06)
5(-2.446884941e-06 -2.450848226e-06 -2.097828217e-06 -1.653465395e-06 -1.283685358e-06)
5(-2.568147365e-06 -2.480406412e-06 -2.093254441e-06 -1.638228054e-06 -1.270645918e-06)
5(-2.771516704e-06 -2.47375967e-06 -2.070292225e-06 -1.614307779e-06 -1.254184422e-06)
5(-2.83372806e-06 -2.438864334e-06 -2.030526814e-06 -1.583848748e-06 -1.236069861e-06)
5(-2.797602492e-06 -2.38098523e-06 -1.977876849e-06 -1.54963288e-06 -1.217962028e-06)
5(-2.7056597e-06 -2.302007545e-06 -1.915495531e-06 -1.513229267e-06 -1.201760445e-06)
5(-2.564738172e-06 -2.206469898e-06 -1.846106437e-06 -1.478085541e-06 -1.189837159e-06)
5(-2.378990977e-06 -2.097787233e-06 -1.772005627e-06 -1.445354285e-06 -1.183907747e-06)
5(-2.188001825e-06 -1.965404534e-06 -1.693724723e-06 -1.418260718e-06 -1.19303993e-06)
5(-2.006804337e-06 -1.828534075e-06 -1.60114071e-06 -1.447291584e-06 -1.211974922e-06)
5(-1.85145654e-06 -1.726177619e-06 -1.562247726e-06 -1.428530042e-06 -1.26025397e-06)
)


60
(
5(-2.823202835e-10 -4.045324206e-10 -5.099039581e-10 -6.92872337e-10 -8.398789442e-10)
5(-3.87388924e-10 -5.359415287e-10 -6.497400408e-10 -8.478358267e-10 -9.97225451e-10)
5(-5.012402869e-10 -6.928250722e-10 -8.359904731e-10 -1.073822447e-09 -1.250258741e-09)
5(-6.371028022e-10 -8.893745236e-10 -1.086740076e-09 -1.391193914e-09 -1.627549138e-09)
5(-8.166205633e-10 -1.151898119e-09 -1.420852419e-09 -1.831559733e-09 -2.154245066e-09)
5(-1.055939135e-09 -1.50661758e-09 -1.873927405e-09 -2.427104571e-09 -2.87530263e-09)
5(-1.37455226e-09 -1.975686931e-09 -2.486425998e-09 -3.213402392e-09 -3.808715809e-09)
5(-1.79575598e-09 -2.589768116e-09 -3.277710567e-09 -4.22486904e-09 -4.998643093e-09)
5(-2.341619286e-09 -3.387617446e-09 -4.301622677e-09 -5.52449613e-09 -6.503241755e-09)
5(-3.049989439e-09 -4.415348422e-09 -5.612644457e-09 -7.172513634e-09 -8.391217907e-09)
5(-3.967019535e-09 -5.721671371e-09 -7.269667513e-09 -9.231677161e-09 -1.072335646e-08)
5(-5.126075147e-09 -7.374871685e-09 -9.346950645e-09 -1.177378377e-08 -1.356158308e-08)
5(-6.601951687e-09 -9.439812087e-09 -1.193696479e-08 -1.488248663e-08 -1.700200758e-08)
5(-8.449525991e-09 -1.200826418e-08 -1.511706483e-08 -1.863737521e-08 -2.107960509e-08)
5(-1.078493876e-08 -1.516230211e-08 -1.900297375e-08 -2.314101749e-08 -2.595445745e-08)
5(-1.366957669e-08 -1.901266038e-08 -2.368927765e-08 -2.851533711e-08 -3.164042304e-08)
5(-1.720353309e-08 -2.369351234e-08 -2.929096436e-08 -3.485069653e-08 -3.824804227e-08)
5(-2.152008932e-08 -2.930549827e-08 -3.593254226e-08 -4.22531251e-08 -4.593661561e-08)
5(-2.677145017e-08 -3.598199739e-08 -4.372732103e-08 -5.085197211e-08 -5.47027438e-08)
5(-3.297683472e-08 -4.384752313e-08 -5.281192579e-08 -6.069087792e-08 -6.467265131e-08)
5(-4.041042038e-08 -5.305330548e-08 -6.328910593e-08 -7.193370111e-08 -7.591348359e-08)
5(-4.9324309e-08 -6.373113574e-08 -7.525108198e-08 -8.462253664e-08 -8.869049729e-08)
5(-5.968967579e-08 -7.601166092e-08 -8.893161251e-08 -9.897838986e-08 -1.026492586e-07)
5(-7.140440374e-08 -9.000968661e-08 -1.043117312e-07 -1.150405874e-07 -1.183386383e-07)
5(-8.51848359e-08 -1.059834092e-07 -1.217030237e-07 -1.328814571e-07 -1.356300964e-07)
5(-1.008316861e-07 -1.239441769e-07 -1.409907795e-07 -1.525864299e-07 -1.545666991e-07)
5(-1.186048135e-07 -1.440493452e-07 -1.625011818e-07 -1.743241467e-07 -1.753592093e-07)
5(-1.38603029e-07 -1.664158468e-07 -1.862704162e-07 -1.982335264e-07 -1.983639726e-07)
5(-1.612249195e-07 -1.913285834e-07 -2.124282685e-07 -2.244175792e-07 -2.229269843e-07)
5(-1.865108543e-07 -2.189673908e-07 -2.412621953e-07 -2.531238035e-07 -2.503369853e-07)
5(-2.143944868e-07 -2.494059755e-07 -2.727368537e-07 -2.843693333e-07 -2.798146394e-07)
5(-2.454844931e-07 -2.828560106e-07 -3.07257438e-07 -3.18452214e-07 -3.12216642e-07)
5(-2.799843022e-07 -3.196732573e-07 -3.450869477e-07 -3.55776174e-07 -3.471473267e-07)
5(-3.177495948e-07 -3.601930788e-07 -3.864820952e-07 -3.96179075e-07 -3.854019775e-07)
5(-3.596209699e-07 -4.04331952e-07 -4.31512341e-07 -4.404104212e-07 -4.26830971e-07)
5(-4.050609728e-07 -4.528802509e-07 -4.805852729e-07 -4.88701146e-07 -4.715728377e-07)
5(-4.549738709e-07 -5.056880083e-07 -5.341209846e-07 -5.413869651e-07 -5.199820754e-07)
5(-5.099351915e-07 -5.634302584e-07 -5.926957686e-07 -5.982811807e-07 -5.71765644e-07)
5(-5.691430677e-07 -6.270490217e-07 -6.568114552e-07 -6.598357885e-07 -6.274771016e-07)
5(-6.339926287e-07 -6.954673209e-07 -7.26842118e-07 -7.265130876e-07 -6.873944274e-07)
5(-7.05254221e-07 -7.719993567e-07 -8.035226877e-07 -7.984241402e-07 -7.521610719e-07)
5(-7.823843289e-07 -8.541022373e-07 -8.855464393e-07 -8.761454496e-07 -8.207161769e-07)
5(-8.660346133e-07 -9.443067736e-07 -9.746619918e-07 -9.597114792e-07 -8.907025647e-07)
5(-9.564539116e-07 -1.043415437e-06 -1.069615371e-06 -1.048111903e-06 -9.6080667e-07)
5(-1.056536383e-06 -1.148770543e-06 -1.171057544e-06 -1.139805476e-06 -1.030089604e-06)
5(-1.164581244e-06 -1.261730661e-06 -1.278121292e-06 -1.231298026e-06 -1.096315785e-06)
5(-1.2824906e-06 -1.379942906e-06 -1.390833744e-06 -1.319348926e-06 -1.155555674e-06)
5(-1.408009146e-06 -1.505781649e-06 -1.502466374e-06 -1.401161428e-06 -1.207072624e-06)
5(-1.541835996e-06 -1.634252163e-06 -1.610118109e-06 -1.473154384e-06 -1.248085836e-06)
5(-1.683587893e-06 -1.762913915e-06 -1.707857229e-06 -1.532261658e-06 -1.279255934e-06)
5(-1.828548938e-06 -1.88464967e-06 -1.788776194e-06 -1.575768811e-06 -1.301078118e-06)
5(-1.974798114e-06 -1.992628963e-06 -1.850669545e-06 -1.604108355e-06 -1.314017798e-06)
5(-2.116271838e-06 -2.077715007e-06 -1.890982766e-06 -1.618123185e-06 -1.320717053e-06)
5(-2.239486835e-06 -2.137164902e-06 -1.910660169e-06 -1.621413849e-06 -1.322454813e-06)
5(-2.336687756e-06 -2.167717617e-06 -1.912432078e-06 -1.615217412e-06 -1.321661916e-06)
5(-2.398891417e-06 -2.174153742e-06 -1.899711002e-06 -1.603459647e-06 -1.320891803e-06)
5(-2.426617102e-06 -2.161207401e-06 -1.877064267e-06 -1.588826146e-06 -1.320892357e-06)
5(-2.420173041e-06 -2.134552674e-06 -1.850828246e-06 -1.575356594e-06 -1.325458035e-06)
5(-2.392313779e-06 -2.107554947e-06 -1.835267386e-06 -1.570639252e-06 -1.34089067e-06)
5(-2.373343215e-06 -2.167804438e-06 -1.979586315e-06 -1.699229497e-06 -1.533073345e-06)
)


60
(
5(-2.689391776e-10 -3.77759535e-10 -5.08981621e-10 -7.035009773e-10 -8.738491017e-10)
5(-3.600829005e-10 -4.994457558e-10 -6.377745194e-10 -8.490804722e-10 -1.04061195e-09)
5(-4.658568702e-10 -6.472956452e-10 -8.147241554e-10 -1.068143549e-09 -1.29861888e-09)
5(-5.930069693e-10 -8.303782012e-10 -1.058323256e-09 -1.377215596e-09 -1.667090083e-09)
5(-7.604040852e-10 -1.076449802e-09 -1.388954922e-09 -1.798559868e-09 -2.186295411e-09)
5(-9.909378511e-10 -1.411680768e-09 -1.828542904e-09 -2.362236565e-09 -2.872241096e-09)
5(-1.295197033e-09 -1.853290382e-09 -2.412445648e-09 -3.100579761e-09 -3.75677206e-09)
5(-1.693695573e-09 -2.427323548e-09 -3.168800096e-09 -4.047682087e-09 -4.860639967e-09)
5(-2.212254922e-09 -3.161986043e-09 -4.128425865e-09 -5.238082455e-09 -6.24826771e-09)
5(-2.876852526e-09 -4.097981894e-09 -5.34514875e-09 -6.720068941e-09 -7.929835627e-09)
5(-3.741338794e-09 -5.285051481e-09 -6.865384293e-09 -8.544395648e-09 -1.000733897e-08)
5(-4.81413744e-09 -6.768859249e-09 -8.754907095e-09 -1.077169068e-08 -1.248373005e-08)
5(-6.166257502e-09 -8.609602391e-09 -1.106719982e-08 -1.346162998e-08 -1.544344489e-08)
5(-7.855006245e-09 -1.086829241e-08 -1.386438263e-08 -1.667644541e-08 -1.893349431e-08)
5(-9.934180457e-09 -1.36139412e-08 -1.721324326e-08 -2.049743912e-08 -2.300928556e-08)
5(-1.247084637e-08 -1.690582964e-08 -2.120943467e-08 -2.500786304e-08 -2.778410712e-08)
5(-1.560499289e-08 -2.087198185e-08 -2.594975069e-08 -3.025716222e-08 -3.331604381e-08)
5(-1.934363235e-08 -2.558555484e-08 -3.153670617e-08 -3.633858215e-08 -3.964832667e-08)
5(-2.383579076e-08 -3.114716079e-08 -3.799509417e-08 -4.340392638e-08 -4.689831053e-08)
5(-2.914949447e-08 -3.765361182e-08 -4.55115502e-08 -5.146902161e-08 -5.513795222e-08)
5(-3.5459403e-08 -4.520351086e-08 -5.414644611e-08 -6.065781408e-08 -6.445626e-08)
5(-4.275071071e-08 -5.389782059e-08 -6.398502135e-08 -7.101515238e-08 -7.480831347e-08)
5(-5.123617191e-08 -6.384385517e-08 -7.506379482e-08 -8.260358767e-08 -8.641530047e-08)
5(-6.096178233e-08 -7.523171169e-08 -8.756160103e-08 -9.560310902e-08 -9.953360716e-08)
5(-7.231195544e-08 -8.812185396e-08 -1.016004132e-07 -1.10115869e-07 -1.137564981e-07)
5(-8.476932906e-08 -1.024558055e-07 -1.172542735e-07 -1.260756912e-07 -1.296046358e-07)
5(-9.913729377e-08 -1.184445896e-07 -1.345892981e-07 -1.438596844e-07 -1.470394117e-07)
5(-1.152444927e-07 -1.361389965e-07 -1.537082808e-07 -1.63310126e-07 -1.662321261e-07)
5(-1.333402083e-07 -1.557961118e-07 -1.748009114e-07 -1.848658475e-07 -1.871080572e-07)
5(-1.528057635e-07 -1.77622588e-07 -1.9781763e-07 -2.082805142e-07 -2.099135e-07)
5(-1.749778113e-07 -2.015623858e-07 -2.231519103e-07 -2.340853919e-07 -2.351095907e-07)
5(-1.994427676e-07 -2.277735639e-07 -2.509590722e-07 -2.623270447e-07 -2.62779053e-07)
5(-2.258119502e-07 -2.567047141e-07 -2.81397756e-07 -2.931729269e-07 -2.930097061e-07)
5(-2.547379117e-07 -2.880475501e-07 -3.147335037e-07 -3.270299851e-07 -3.260069813e-07)
5(-2.864326993e-07 -3.226362327e-07 -3.511808119e-07 -3.64145397e-07 -3.624464105e-07)
5(-3.215470882e-07 -3.605310769e-07 -3.910372929e-07 -4.047113556e-07 -4.019991941e-07)
5(-3.587494506e-07 -4.017408866e-07 -4.348524344e-07 -4.491660888e-07 -4.451683984e-07)
5(-4.002807712e-07 -4.468014997e-07 -4.830212192e-07 -4.981446985e-07 -4.923539541e-07)
5(-4.446410575e-07 -4.963202031e-07 -5.362034186e-07 -5.517955592e-07 -5.444219554e-07)
5(-4.933558823e-07 -5.50723577e-07 -5.94171765e-07 -6.106952376e-07 -6.010232142e-07)
5(-5.469746734e-07 -6.107184814e-07 -6.57766801e-07 -6.755076326e-07 -6.63996933e-07)
5(-6.032522652e-07 -6.756159069e-07 -7.28248745e-07 -7.465526891e-07 -7.308680511e-07)
5(-6.660505918e-07 -7.47477757e-07 -8.051392696e-07 -8.248595711e-07 -8.031834189e-07)
5(-7.32660507e-07 -8.274129739e-07 -8.894553928e-07 -9.101976406e-07 -8.790138315e-07)
5(-8.06530098e-07 -9.157892657e-07 -9.828407188e-07 -1.002304196e-06 -9.571174771e-07)
5(-8.880641694e-07 -1.011917255e-06 -1.084664986e-06 -1.099915453e-06 -1.036051336e-06)
5(-9.777470734e-07 -1.118033481e-06 -1.195596931e-06 -1.199524745e-06 -1.114309168e-06)
5(-1.078989829e-06 -1.234565039e-06 -1.314357397e-06 -1.299910155e-06 -1.188422535e-06)
5(-1.192953345e-06 -1.363346174e-06 -1.437058017e-06 -1.397875041e-06 -1.255899549e-06)
5(-1.320496873e-06 -1.500425192e-06 -1.55929236e-06 -1.486960092e-06 -1.314285089e-06)
5(-1.464533362e-06 -1.645773743e-06 -1.675013698e-06 -1.564688882e-06 -1.360568717e-06)
5(-1.622809862e-06 -1.792536759e-06 -1.778200217e-06 -1.627601586e-06 -1.396156017e-06)
5(-1.795863947e-06 -1.930968701e-06 -1.864751889e-06 -1.675271135e-06 -1.422853035e-06)
5(-1.97443248e-06 -2.053106285e-06 -1.93105022e-06 -1.706583982e-06 -1.437980874e-06)
5(-2.149966912e-06 -2.155091264e-06 -1.975691509e-06 -1.723975672e-06 -1.448362991e-06)
5(-2.301453713e-06 -2.230269254e-06 -2.000305305e-06 -1.730147385e-06 -1.454787481e-06)
5(-2.425316852e-06 -2.277812114e-06 -2.009315356e-06 -1.729395047e-06 -1.45936932e-06)
5(-2.509623429e-06 -2.303023199e-06 -2.011445636e-06 -1.727702946e-06 -1.466481903e-06)
5(-2.547774506e-06 -2.311772969e-06 -2.022055613e-06 -1.740092723e-06 -1.488292812e-06)
5(-2.574927723e-06 -2.411063434e-06 -2.193464479e-06 -1.874785593e-06 -1.739760568e-06)
)


60
(
5(-2.623446529e-10 -3.687382596e-10 -5.141474446e-10 -7.211396411e-10 -9.05022492e-10)
5(-3.495540431e-10 -4.867971563e-10 -6.418625727e-10 -8.642845619e-10 -1.080397746e-09)
5(-4.484000821e-10 -6.278336374e-10 -8.169961762e-10 -1.076359229e-09 -1.333163602e-09)
5(-5.723300616e-10 -8.040960426e-10 -1.05503548e-09 -1.375031425e-09 -1.709423171e-09)
5(-7.345958771e-10 -1.038014097e-09 -1.374735848e-09 -1.78064664e-09 -2.215380253e-09)
5(-9.563377689e-10 -1.353646724e-09 -1.79886324e-09 -2.315514644e-09 -2.859763054e-09)
5(-1.252770682e-09 -1.765377028e-09 -2.35167095e-09 -2.998673394e-09 -3.688434338e-09)
5(-1.630111178e-09 -2.302548508e-09 -3.06194154e-09 -3.866946209e-09 -4.696179218e-09)
5(-2.127813094e-09 -2.988459839e-09 -3.956686829e-09 -4.950017177e-09 -5.949098169e-09)
5(-2.753277206e-09 -3.851074645e-09 -5.079881528e-09 -6.282472661e-09 -7.474502757e-09)
5(-3.551711257e-09 -4.928376152e-09 -6.466445268e-09 -7.913515749e-09 -9.318194168e-09)
5(-4.545268524e-09 -6.260347238e-09 -8.163368077e-09 -9.88291462e-09 -1.152682089e-08)
5(-5.788640189e-09 -7.891485195e-09 -1.02072084e-08 -1.222537007e-08 -1.407189998e-08)
5(-7.341353933e-09 -9.874093997e-09 -1.266434992e-08 -1.500669986e-08 -1.712727928e-08)
5(-9.207962498e-09 -1.227737602e-08 -1.559085741e-08 -1.829516652e-08 -2.064462762e-08)
5(-1.146278948e-08 -1.514362874e-08 -1.904866216e-08 -2.212400051e-08 -2.476378067e-08)
5(-1.418753146e-08 -1.853081991e-08 -2.309398321e-08 -2.653674677e-08 -2.948051597e-08)
5(-1.748227875e-08 -2.251057909e-08 -2.778947825e-08 -3.167638435e-08 -3.485155659e-08)
5(-2.132518633e-08 -2.718526358e-08 -3.32543503e-08 -3.755641311e-08 -4.111136114e-08)
5(-2.59439198e-08 -3.262569239e-08 -3.95536415e-08 -4.430778699e-08 -4.803783939e-08)
5(-3.133757899e-08 -3.888971738e-08 -4.67277728e-08 -5.19505194e-08 -5.598808149e-08)
5(-3.726791674e-08 -4.607312123e-08 -5.492316133e-08 -6.059129597e-08 -6.482218724e-08)
5(-4.439476616e-08 -5.428563793e-08 -6.41450251e-08 -7.026545025e-08 -7.485268489e-08)
5(-5.275988899e-08 -6.356116294e-08 -7.454125452e-08 -8.113970346e-08 -8.596876679e-08)
5(-6.191259058e-08 -7.397011258e-08 -8.613575424e-08 -9.326410686e-08 -9.83493371e-08)
5(-7.235930456e-08 -8.56544809e-08 -9.90388911e-08 -1.066914062e-07 -1.118378461e-07)
5(-8.41031186e-08 -9.8761378e-08 -1.132699058e-07 -1.214959697e-07 -1.268736623e-07)
5(-9.736283813e-08 -1.132677145e-07 -1.290936086e-07 -1.378098009e-07 -1.432338351e-07)
5(-1.119750737e-07 -1.29219371e-07 -1.464566602e-07 -1.558307776e-07 -1.617300615e-07)
5(-1.27963359e-07 -1.46855238e-07 -1.654604617e-07 -1.755760333e-07 -1.813895124e-07)
5(-1.460332277e-07 -1.661313459e-07 -1.863147369e-07 -1.972782929e-07 -2.033797874e-07)
5(-1.653831906e-07 -1.872362306e-07 -2.093715883e-07 -2.210876452e-07 -2.273595542e-07)
5(-1.864685759e-07 -2.105567514e-07 -2.342917718e-07 -2.471119973e-07 -2.537962628e-07)
5(-2.09785826e-07 -2.356758275e-07 -2.617064992e-07 -2.759137839e-07 -2.826439581e-07)
5(-2.346382059e-07 -2.631946364e-07 -2.916063549e-07 -3.07374261e-07 -3.149388625e-07)
5(-2.624369325e-07 -2.931366706e-07 -3.245103498e-07 -3.417932625e-07 -3.502711411e-07)
5(-2.915872533e-07 -3.261463287e-07 -3.607562319e-07 -3.798818958e-07 -3.887959473e-07)
5(-3.235245713e-07 -3.623172209e-07 -4.003861505e-07 -4.217842916e-07 -4.314217619e-07)
5(-3.578183517e-07 -4.018235419e-07 -4.441340337e-07 -4.680769964e-07 -4.788400384e-07)
5(-3.951984338e-07 -4.448171731e-07 -4.923157253e-07 -5.19418094e-07 -5.317551457e-07)
5(-4.342226184e-07 -4.916429432e-07 -5.454463196e-07 -5.764481398e-07 -5.887977908e-07)
5(-4.774701073e-07 -5.428297142e-07 -6.043621452e-07 -6.393352529e-07 -6.53690249e-07)
5(-5.22299663e-07 -5.992807397e-07 -6.689528606e-07 -7.094998257e-07 -7.234619859e-07)
5(-5.705151819e-07 -6.624419247e-07 -7.415972496e-07 -7.881740581e-07 -8.001211208e-07)
5(-6.2127785e-07 -7.313142969e-07 -8.226400616e-07 -8.751904836e-07 -8.805017263e-07)
5(-6.7874433e-07 -8.079665875e-07 -9.139278557e-07 -9.706841255e-07 -9.664462714e-07)
5(-7.403487938e-07 -8.942783388e-07 -1.015738184e-06 -1.073770425e-06 -1.056866554e-06)
5(-8.161504066e-07 -9.903882139e-07 -1.130436077e-06 -1.181912879e-06 -1.14664454e-06)
5(-9.014038469e-07 -1.100017289e-06 -1.255329359e-06 -1.294484828e-06 -1.236188334e-06)
5(-9.988317702e-07 -1.225876378e-06 -1.388189874e-06 -1.407955649e-06 -1.319809207e-06)
5(-1.120341451e-06 -1.370629037e-06 -1.52755963e-06 -1.517080129e-06 -1.395488022e-06)
5(-1.259957038e-06 -1.526819699e-06 -1.66733682e-06 -1.616443153e-06 -1.4583917e-06)
5(-1.423352601e-06 -1.699215167e-06 -1.800419351e-06 -1.703866515e-06 -1.509753787e-06)
5(-1.605936935e-06 -1.872667288e-06 -1.92389452e-06 -1.773600051e-06 -1.548373695e-06)
5(-1.809062042e-06 -2.041492398e-06 -2.028735385e-06 -1.827588142e-06 -1.576738102e-06)
5(-2.01140939e-06 -2.198289338e-06 -2.113805261e-06 -1.865924951e-06 -1.5970133e-06)
5(-2.214390034e-06 -2.3278866e-06 -2.174910173e-06 -1.893785485e-06 -1.612303299e-06)
5(-2.391208627e-06 -2.434332321e-06 -2.222210176e-06 -1.91886948e-06 -1.632136177e-06)
5(-2.525371252e-06 -2.499728612e-06 -2.266123942e-06 -1.961176975e-06 -1.670989904e-06)
5(-2.55009915e-06 -2.566920973e-06 -2.38264619e-06 -2.129147221e-06 -1.885615998e-06)
)


60
(
5(-2.593828042e-10 -3.667381579e-10 -5.22576578e-10 -7.413804709e-10 -9.324207858e-10)
5(-3.455125193e-10 -4.810295929e-10 -6.475252064e-10 -8.848626695e-10 -1.110905206e-09)
5(-4.426296841e-10 -6.201272496e-10 -8.229439759e-10 -1.091892611e-09 -1.365725773e-09)
5(-5.621113993e-10 -7.925363141e-10 -1.060237069e-09 -1.379705155e-09 -1.724872175e-09)
5(-7.273309869e-10 -1.018279372e-09 -1.373654399e-09 -1.76460742e-09 -2.207817466e-09)
5(-9.418138982e-10 -1.319085716e-09 -1.777331089e-09 -2.265481777e-09 -2.812568268e-09)
5(-1.232161799e-09 -1.712186379e-09 -2.298278675e-09 -2.903244248e-09 -3.58780754e-09)
5(-1.599345152e-09 -2.221878078e-09 -2.964434481e-09 -3.705606174e-09 -4.516657948e-09)
5(-2.075371958e-09 -2.871376185e-09 -3.799830501e-09 -4.694445903e-09 -5.654474128e-09)
5(-2.676927555e-09 -3.678735242e-09 -4.835977463e-09 -5.904354341e-09 -7.060329901e-09)
5(-3.431517475e-09 -4.664937927e-09 -6.097377055e-09 -7.359818382e-09 -8.685048503e-09)
5(-4.351944521e-09 -5.876448009e-09 -7.623039026e-09 -9.100465432e-09 -1.063870916e-08)
5(-5.519718269e-09 -7.346043002e-09 -9.449460214e-09 -1.115816696e-08 -1.292161113e-08)
5(-6.953403771e-09 -9.124761548e-09 -1.163222514e-08 -1.358339787e-08 -1.55650822e-08)
5(-8.674515116e-09 -1.124720672e-08 -1.419864816e-08 -1.641570714e-08 -1.868128857e-08)
5(-1.073872727e-08 -1.376483516e-08 -1.721798608e-08 -1.967938562e-08 -2.225462891e-08)
5(-1.317293925e-08 -1.671105574e-08 -2.07138889e-08 -2.347448382e-08 -2.6329282e-08)
5(-1.610885688e-08 -2.016402705e-08 -2.47580465e-08 -2.788014852e-08 -3.107764481e-08)
5(-1.959902488e-08 -2.420177334e-08 -2.9438323e-08 -3.285849029e-08 -3.635367275e-08)
5(-2.356336258e-08 -2.885737916e-08 -3.474185285e-08 -3.854659715e-08 -4.248473073e-08)
5(-2.825590414e-08 -3.422213203e-08 -4.0791116e-08 -4.498016832e-08 -4.917310224e-08)
5(-3.363754375e-08 -4.029567808e-08 -4.767196614e-08 -5.225104234e-08 -5.687847994e-08)
5(-3.978438462e-08 -4.724155236e-08 -5.549493883e-08 -6.047191406e-08 -6.552440325e-08)
5(-4.69987804e-08 -5.504512667e-08 -6.422980934e-08 -6.968138386e-08 -7.494405356e-08)
5(-5.464502962e-08 -6.376907084e-08 -7.393616451e-08 -7.995246572e-08 -8.567921086e-08)
5(-6.379312283e-08 -7.353293615e-08 -8.47212073e-08 -9.136086266e-08 -9.752898311e-08)
5(-7.394813954e-08 -8.456935274e-08 -9.673637771e-08 -1.039168355e-07 -1.105994574e-07)
5(-8.537054238e-08 -9.682005775e-08 -1.101468586e-07 -1.177531594e-07 -1.249066145e-07)
5(-9.703993008e-08 -1.10311762e-07 -1.246612119e-07 -1.329749087e-07 -1.407298227e-07)
5(-1.109971812e-07 -1.249765927e-07 -1.405916074e-07 -1.498797364e-07 -1.580171601e-07)
5(-1.255056342e-07 -1.409945948e-07 -1.580893231e-07 -1.681327863e-07 -1.776102591e-07)
5(-1.422019272e-07 -1.586838784e-07 -1.773541423e-07 -1.882072731e-07 -1.981420181e-07)
5(-1.597214661e-07 -1.777991267e-07 -1.982692672e-07 -2.102842435e-07 -2.216042112e-07)