/*--------------------------------*- C++ -*----------------------------------*\
| =========                 |                                                 |
| \\      /  F ield         | OpenFOAM: The Open Source CFD Toolbox           |
|  \\    /   O peration     | Version:  2.3.1                                 |
|   \\  /    A nd           | Web:      www.OpenFOAM.org                      |
|    \\/     M anipulation  |                                                 |
\*---------------------------------------------------------------------------*/
FoamFile
{
    version     2.0;
    format      ascii;
    class       dictionary;
    location    "constant";
    object      drealra;
}
// * * * * * * * * * * * * * * * * * * * * * * * * * * * * * * * * * * * * * //

drealra_table
60
(

60
(
5(1091.760064 1093.222336 1098.060194 1099.830883 1103.768584)
5(1094.547193 1092.629349 1099.649181 1102.957618 1104.490465)
5(1089.710051 1104.971644 1104.488241 1107.545599 1096.042012)
5(1089.879372 1115.134619 1115.328822 1112.967475 1123.623491)
5(1103.777132 1123.413987 1124.193548 1127.070211 1128.439702)
5(1122.104356 1131.85136 1127.239614 1137.10254 1134.960792)
5(1134.110352 1141.015044 1138.36238 1145.23459 1150.663098)
5(1139.862614 1151.208758 1152.025662 1157.483731 1154.734423)
5(1152.329359 1162.062798 1161.979891 1169.22673 1169.567456)
5(1161.98548 1173.138213 1174.83781 1180.098956 1182.123937)
5(1172.652806 1183.784991 1185.847466 1191.77036 1194.086766)
5(1182.99461 1194.484105 1195.883717 1203.306526 1205.11927)
5(1192.617567 1205.305397 1206.777371 1215.394873 1217.502648)
5(1204.022944 1216.061401 1218.110988 1225.899288 1228.795123)
5(1213.463284 1226.137401 1228.712585 1237.501271 1240.292818)
5(1223.863026 1236.46245 1239.714083 1248.425172 1251.658041)
5(1233.715375 1246.261184 1250.098038 1258.899415 1262.848352)
5(1243.210146 1255.707502 1260.058274 1269.110706 1273.285351)
5(1252.253769 1264.747679 1269.52681 1278.400495 1283.001325)
5(1261.209406 1273.521666 1278.609693 1287.498704 1291.880401)
5(1269.243209 1281.074674 1286.500556 1295.491173 1300.261321)
5(1276.805308 1288.518748 1294.476481 1302.778717 1308.142165)
5(1284.29964 1296.155653 1302.286535 1311.132373 1316.6706)
5(1291.482493 1303.599782 1309.819565 1318.668583 1324.334485)
5(1298.571262 1310.583096 1317.202743 1326.176466 1332.006359)
5(1305.354911 1317.299615 1324.51964 1333.508831 1339.208452)
5(1311.99756 1323.748061 1331.061822 1340.411658 1346.216612)
5(1318.307568 1330.11799 1337.822637 1347.028919 1352.912496)
5(1324.743264 1336.407843 1344.060784 1353.25667 1359.446482)
5(1330.80827 1342.559428 1350.174179 1359.116895 1365.564603)
5(1336.819736 1348.488299 1356.340439 1365.257554 1371.645282)
5(1342.537247 1354.050515 1361.919931 1370.587833 1376.676451)
5(1348.036861 1359.577803 1367.602386 1376.10616 1382.959134)
5(1353.476421 1364.983066 1373.196339 1381.3075 1387.521057)
5(1358.755217 1370.04866 1378.298417 1386.402464 1392.704116)
5(1363.828239 1375.240349 1383.807336 1391.392435 1397.649974)
5(1368.745937 1379.65919 1387.809722 1395.739173 1402.453682)
5(1373.480246 1384.490406 1392.445436 1400.456685 1405.294726)
5(1378.143526 1388.873962 1397.119501 1404.613984 1411.245475)
5(1382.800115 1393.222559 1401.743671 1408.962891 1409.881813)
5(1387.035826 1397.101653 1405.361233 1412.69765 1414.500989)
5(1390.996117 1401.007012 1409.120011 1414.702172 1418.805083)
5(1394.907869 1404.506417 1412.520247 1414.366454 1423.162413)
5(1398.719365 1408.346435 1417.4109 1418.405779 1427.568313)
5(1402.354808 1411.631145 1420.282105 1422.401527 1431.372909)
5(1405.536032 1415.024473 1422.742236 1426.299849 1435.198008)
5(1408.642308 1417.674574 1421.487531 1430.060302 1438.946203)
5(1411.40485 1419.178422 1423.365914 1433.62775 1442.577466)
5(1414.369088 1422.375666 1426.697567 1437.086316 1446.080425)
5(1416.988566 1420.098704 1430.088387 1440.421826 1449.438153)
5(1419.017932 1423.22355 1433.373829 1443.677317 1452.670729)
5(1417.558978 1426.413962 1436.547179 1446.816317 1455.786496)
5(1418.916806 1429.513887 1439.616338 1449.850825 1458.786382)
5(1421.718008 1432.487326 1442.610971 1452.760473 1461.711301)
5(1424.703977 1435.373711 1445.51376 1455.603043 1464.506955)
5(1428.115541 1438.208114 1448.340318 1458.270242 1467.161853)
5(1432.056386 1441.035059 1451.107431 1460.847536 1469.57375)
5(1435.763866 1444.321889 1453.897016 1463.279051 1471.672698)
5(1439.137495 1447.931895 1457.344164 1462.770611 1473.584142)
5(1442.792021 1453.074453 1463.014841 1473.703876 1480.473453)
)


60
(
5(1093.99251 1097.900192 1100.676547 1103.811742 1106.731499)
5(1100.237755 1106.470849 1106.462857 1111.097728 1111.912297)
5(1107.663248 1115.48511 1114.138743 1119.830304 1119.476946)
5(1116.254559 1124.932432 1123.629773 1129.801476 1129.444212)
5(1125.755673 1134.826806 1134.281279 1140.625066 1141.048783)
5(1135.830512 1145.053602 1145.32452 1151.768267 1153.128651)
5(1145.938998 1155.505142 1156.233572 1163.07888 1164.927574)
5(1156.048654 1166.093022 1167.209056 1174.460108 1176.570274)
5(1166.288875 1176.792356 1178.277915 1185.91737 1188.304797)
5(1176.773415 1187.64342 1189.56259 1197.556744 1200.26129)
5(1187.305223 1198.5492 1200.961798 1209.244632 1212.385225)
5(1197.937894 1209.407389 1212.393016 1220.865803 1224.48683)
5(1208.482368 1220.169894 1223.688567 1232.335132 1236.355971)
5(1218.889291 1230.746839 1234.768888 1243.600231 1247.968884)
5(1229.110234 1241.065255 1245.574856 1254.514091 1259.242973)
5(1239.099884 1251.094098 1256.063697 1265.036029 1270.086647)
5(1248.751828 1260.72411 1266.135144 1275.088479 1280.415092)
5(1258.025556 1269.89406 1275.685937 1284.549444 1290.119396)
5(1266.842962 1278.486462 1284.609209 1293.30309 1299.062)
5(1275.095681 1286.459254 1292.871902 1301.548325 1307.549605)
5(1282.774161 1294.09394 1300.851723 1309.750926 1316.000418)
5(1290.183157 1301.772733 1308.816722 1317.647768 1324.051128)
5(1297.628926 1309.091979 1316.403235 1325.236215 1331.826051)
5(1304.749524 1316.195457 1323.752163 1332.552661 1339.308868)
5(1311.647338 1323.072501 1330.845243 1339.644443 1346.535476)
5(1318.356014 1329.744547 1337.73797 1346.504192 1353.50476)
5(1324.865059 1336.197578 1344.381979 1353.126919 1360.221203)
5(1331.177322 1342.471763 1350.804997 1359.510221 1366.68459)
5(1337.306021 1348.5476 1357.023784 1365.665569 1372.933714)
5(1343.259465 1354.420639 1363.023108 1371.611791 1378.924716)
5(1349.030408 1360.105709 1368.818142 1377.341185 1384.708101)
5(1354.62562 1365.607727 1374.400477 1382.862604 1390.258741)
5(1360.046557 1370.927663 1379.796967 1388.172401 1395.586744)
5(1365.297317 1376.065634 1384.990571 1393.278515 1400.695824)
5(1370.369657 1381.026212 1389.992542 1398.181124 1405.596198)
5(1375.28421 1385.80249 1394.797126 1402.889135 1410.286814)
5(1380.005682 1390.395785 1399.408711 1407.387384 1414.790368)
5(1384.570312 1394.815544 1403.826875 1411.704131 1419.106828)
5(1388.951425 1399.034953 1408.048088 1415.842433 1423.20729)
5(1393.142445 1403.091922 1412.076555 1419.774906 1427.068581)
5(1397.147383 1406.937859 1415.893357 1423.513938 1430.670814)
5(1400.948916 1410.636442 1419.554813 1427.044242 1434.052006)
5(1404.579318 1414.125377 1423.030303 1430.357902 1437.262771)
5(1408.004832 1417.403575 1426.334763 1433.464268 1440.365192)
5(1411.226817 1420.539077 1429.446566 1436.377911 1443.326638)
5(1414.239039 1423.493343 1432.368022 1439.14737 1446.144401)
5(1417.064045 1426.27893 1435.061316 1441.797283 1448.864685)
5(1419.703938 1428.875638 1437.563603 1444.336993 1451.490065)
5(1422.177978 1431.299942 1439.919895 1446.75858 1454.047155)
5(1424.450002 1433.530946 1442.144921 1449.082221 1456.543767)
5(1426.559976 1435.581509 1444.257322 1451.337049 1458.964305)
5(1428.478727 1437.489523 1446.262744 1453.552391 1461.352386)
5(1430.236659 1439.284786 1448.184736 1455.679764 1463.653881)
5(1431.813297 1440.957719 1450.010543 1457.708538 1465.920324)
5(1433.214606 1442.544888 1451.742449 1459.680654 1468.097411)
5(1434.467245 1443.979678 1453.346175 1461.542589 1470.177077)
5(1435.526067 1445.233841 1454.823093 1463.248797 1472.110376)
5(1436.343508 1446.293876 1456.07526 1464.743787 1473.815017)
5(1436.715946 1446.922533 1456.870347 1465.830582 1475.084266)
5(1432.979886 1444.092488 1451.416086 1462.396007 1473.59295)
)


60
(
5(1095.085972 1099.209664 1102.015411 1105.435074 1108.303334)
5(1102.318859 1108.340598 1108.951606 1113.554905 1114.881807)
5(1110.375116 1117.624285 1117.416682 1122.794753 1123.457085)
5(1119.195328 1127.182811 1127.1625 1132.963566 1133.742387)
5(1128.748873 1137.120221 1137.765623 1143.794342 1145.228474)
5(1138.72128 1147.378281 1148.687839 1154.951101 1157.115733)
5(1148.802492 1157.822103 1159.642322 1166.253535 1168.896478)
5(1158.961609 1168.446475 1170.660771 1177.656303 1180.621137)
5(1169.278079 1179.210062 1181.814509 1189.189953 1192.440602)
5(1179.743766 1190.068605 1193.113115 1200.833133 1204.477694)
5(1190.294493 1200.964093 1204.521473 1212.516168 1216.557389)
5(1200.86972 1211.81396 1215.897243 1224.122798 1228.569928)
5(1211.394475 1222.56981 1227.152759 1235.57077 1240.392768)
5(1221.771783 1233.139646 1238.192142 1246.772881 1251.930127)
5(1231.961052 1243.458923 1248.962859 1257.638895 1263.113884)
5(1241.882221 1253.456879 1259.368606 1268.110991 1273.856181)
5(1251.504013 1263.055507 1269.355102 1278.091531 1284.073282)
5(1260.720836 1272.190965 1278.807404 1287.485642 1293.635545)
5(1269.474721 1280.760116 1287.637932 1296.156921 1302.471112)
5(1277.661488 1288.708455 1295.82985 1304.367377 1310.893044)
5(1285.279637 1296.342306 1303.786384 1312.574233 1319.310573)
5(1292.686658 1304.009614 1311.699156 1320.392106 1327.292733)
5(1300.10339 1311.316838 1319.246621 1327.95674 1335.000139)
5(1307.183479 1318.398371 1326.543035 1335.252032 1342.430402)
5(1314.046879 1325.25823 1333.599748 1342.301738 1349.59505)
5(1320.717834 1331.904668 1340.417936 1349.116554 1356.498998)
5(1327.185372 1338.336848 1347.005184 1355.68737 1363.165464)
5(1333.449497 1344.580749 1353.382678 1362.039901 1369.578374)
5(1339.546195 1350.612207 1359.53449 1368.150822 1375.762288)
5(1345.44316 1356.450004 1365.48323 1374.056691 1381.707032)
5(1351.167769 1362.108142 1371.22247 1379.738077 1387.439151)
5(1356.710822 1367.565637 1376.750125 1385.208588 1392.939398)
5(1362.076601 1372.834069 1382.08725 1390.478341 1398.219687)
5(1367.267915 1377.934282 1387.224588 1395.541803 1403.287298)
5(1372.279075 1382.8416 1392.156077 1400.403598 1408.145469)
5(1377.086549 1387.567967 1396.907353 1405.06645 1412.804616)
5(1381.748078 1392.105895 1401.459509 1409.532766 1417.265696)
5(1386.227435 1396.462595 1405.815723 1413.809602 1421.539463)
5(1390.515178 1400.6348 1409.975853 1417.894191 1425.597781)
5(1394.612233 1404.609761 1413.940245 1421.782034 1429.425722)
5(1398.504126 1408.403199 1417.723076 1425.476743 1433.028826)
5(1402.21292 1412.012507 1421.309852 1428.979064 1436.429882)
5(1405.711708 1415.42299 1424.717775 1432.275793 1439.659336)
5(1409.007531 1418.643208 1427.944222 1435.372915 1442.735009)
5(1412.097452 1421.664586 1430.975736 1438.294931 1445.681071)
5(1414.977781 1424.520242 1433.827826 1441.053915 1448.490374)
5(1417.658645 1427.203963 1436.486296 1443.682551 1451.178842)
5(1420.145498 1429.703521 1438.970724 1446.182999 1453.746455)
5(1422.448164 1432.017386 1441.288825 1448.550478 1456.203393)
5(1424.576491 1434.180553 1443.467674 1450.806744 1458.575663)
5(1426.53714 1436.179356 1445.525761 1452.966761 1460.886822)
5(1428.340518 1438.038587 1447.476915 1455.025517 1463.079548)
5(1429.992413 1439.770287 1449.288906 1456.987683 1465.18406)
5(1431.509685 1441.386813 1450.990157 1458.851368 1467.207729)
5(1432.879043 1442.850437 1452.561583 1460.599047 1469.148419)
5(1434.07753 1444.158446 1453.985861 1462.204748 1470.963977)
5(1435.04851 1445.261762 1455.216608 1463.649177 1472.617569)
5(1435.684474 1446.07292 1456.168693 1464.878499 1474.027646)
5(1435.551838 1446.236406 1456.566103 1465.597502 1474.934625)
5(1430.001983 1441.459296 1449.143257 1459.645905 1471.549662)
)


60
(
5(1095.744538 1099.75567 1102.836862 1106.306134 1109.302163)
5(1103.510863 1109.159992 1110.378901 1114.821933 1116.6293)
5(1111.826804 1118.555115 1119.194268 1124.271577 1125.651914)
5(1120.733722 1128.129309 1129.041076 1134.497898 1136.084148)
5(1130.242079 1138.042807 1139.572677 1145.295228 1147.464795)
5(1140.143353 1148.267295 1150.414903 1156.419031 1159.240958)
5(1150.179981 1158.698034 1161.345167 1167.685175 1170.979767)
5(1160.323999 1169.298842 1172.363467 1179.078435 1182.715926)
5(1170.606027 1180.032902 1183.510745 1190.604275 1194.551759)
5(1181.037092 1190.873913 1194.796468 1202.233063 1206.547965)
5(1191.558891 1201.738006 1206.154544 1213.87774 1218.58011)
5(1202.085432 1212.573154 1217.483192 1225.450298 1230.544722)
5(1212.546628 1223.295535 1228.686108 1236.868767 1242.312707)
5(1222.886949 1233.843318 1239.683863 1248.04498 1253.787321)
5(1233.038114 1244.144882 1250.407282 1258.888775 1264.928561)
5(1242.931967 1254.134988 1260.783069 1269.331312 1275.616509)
5(1252.502569 1263.739682 1270.724406 1279.295003 1285.781944)
5(1261.700646 1272.880572 1280.144107 1288.661368 1295.30858)
5(1270.42654 1281.477297 1288.942307 1297.340814 1304.092515)
5(1278.6088 1289.442876 1297.107214 1305.523321 1312.47827)
5(1286.223778 1297.05365 1305.03093 1313.695303 1320.848897)
5(1293.5782 1304.712969 1312.922376 1321.516643 1328.801796)
5(1300.974624 1312.010136 1320.434852 1329.061377 1336.480255)
5(1308.038638 1319.075664 1327.690865 1336.345611 1343.879615)
5(1314.881456 1325.922341 1334.723134 1343.376902 1351.027478)
5(1321.520068 1332.565267 1341.515239 1350.16779 1357.903667)
5(1327.961633 1338.988658 1348.07986 1356.726789 1364.530686)
5(1334.205203 1345.209462 1354.42077 1363.053627 1370.927494)
5(1340.262085 1351.230377 1360.54653 1369.150521 1377.070603)
5(1346.130796 1357.053999 1366.461044 1375.036915 1383.005447)
5(1351.814968 1362.684795 1372.16699 1380.7035 1388.697516)
5(1357.317812 1368.125871 1377.658778 1386.158853 1394.183052)
5(1362.641009 1373.377983 1382.969998 1391.410187 1399.445619)
5(1367.782011 1378.44592 1388.071615 1396.454886 1404.500967)
5(1372.745582 1383.324358 1392.975823 1401.299508 1409.33169)
5(1377.527177 1388.020516 1397.68387 1405.947716 1413.97741)
5(1382.125565 1392.52528 1402.192659 1410.397053 1418.417542)
5(1386.538396 1396.846088 1406.51645 1414.649939 1422.657369)
5(1390.760259 1400.977477 1410.642117 1418.708127 1426.7003)
5(1394.787739 1404.914941 1414.57277 1422.572211 1430.509144)
5(1398.616528 1408.663315 1418.306868 1426.243518 1434.106926)
5(1402.235699 1412.213824 1421.846558 1429.71314 1437.506659)
5(1405.647093 1415.566798 1425.195261 1432.982498 1440.728203)
5(1408.843679 1418.719429 1428.359107 1436.053582 1443.797012)
5(1411.824112 1421.676047 1431.33422 1438.951737 1446.719981)
5(1414.58728 1424.438259 1434.109912 1441.686211 1449.498974)
5(1417.129438 1427.013886 1436.70815 1444.275746 1452.143198)
5(1419.477237 1429.411182 1439.127355 1446.735223 1454.654577)
5(1421.609918 1431.632673 1441.39996 1449.071435 1457.059982)
5(1423.585661 1433.690013 1443.537351 1451.282755 1459.351992)
5(1425.369053 1435.594119 1445.538622 1453.369497 1461.551711)
5(1426.995295 1437.362167 1447.423959 1455.358432 1463.659821)
5(1428.489195 1439.010706 1449.173698 1457.215989 1465.662537)
5(1429.857581 1440.525247 1450.780986 1458.961116 1467.551609)
5(1431.093516 1441.887836 1452.260228 1460.590767 1469.341153)
5(1432.161837 1443.087625 1453.568202 1462.06812 1471.017821)
5(1433.004879 1444.051296 1454.662295 1463.370292 1472.468281)
5(1433.454273 1444.643999 1455.413198 1464.359948 1473.642604)
5(1433.015072 1444.457019 1455.426509 1464.716845 1474.276298)
5(1426.808404 1436.573622 1446.774793 1458.485129 1468.621581)
)


60
(
5(1096.201075 1100.02176 1103.419157 1106.867354 1110.029396)
5(1104.301102 1109.593561 1111.33198 1115.59844 1117.822695)
5(1112.754671 1119.030731 1120.327737 1125.142038 1127.08707)
5(1121.667511 1128.564621 1130.191041 1135.357954 1137.556112)
5(1131.116638 1138.416839 1140.647282 1146.089368 1148.850001)
5(1140.938617 1148.583677 1151.396705 1157.138519 1160.515247)
5(1150.901706 1158.947336 1162.261881 1168.343414 1172.182787)
5(1160.987084 1169.488202 1173.230215 1179.693073 1183.880847)
5(1171.219418 1180.169984 1184.32845 1191.161727 1195.678694)
5(1181.58854 1190.939672 1195.555276 1202.733687 1207.613835)
5(1192.043087 1201.758835 1206.850026 1214.324051 1219.585347)
5(1202.502957 1212.535289 1218.112924 1225.852713 1231.479451)
5(1212.908337 1223.211581 1229.257965 1237.216282 1243.184124)
5(1223.175488 1233.728824 1240.196256 1248.353176 1254.617493)
5(1233.279744 1244.005805 1250.86921 1259.169747 1265.69681)
5(1243.136099 1253.98379 1261.192345 1269.598479 1276.348079)
5(1252.677184 1263.582042 1271.110235 1279.549032 1286.486594)
5(1261.846708 1272.7378 1280.523033 1288.928921 1296.00135)
5(1270.571996 1281.369991 1289.32085 1297.638737 1304.782417)
5(1278.763712 1289.372109 1297.485646 1305.808739 1313.127517)
5(1286.381943 1296.970011 1305.356321 1313.890855 1321.472535)
5(1293.704636 1304.557556 1313.224335 1321.757369 1329.398149)
5(1301.07067 1311.883565 1320.70941 1329.281873 1337.051788)
5(1308.099106 1318.945928 1327.949985 1336.547992 1344.427048)
5(1314.921139 1325.786037 1334.953111 1343.57164 1351.545294)
5(1321.533951 1332.402894 1341.720968 1350.354525 1358.409229)
5(1327.952708 1338.826114 1348.260992 1356.899655 1365.030892)
5(1334.172845 1345.033488 1354.580372 1363.215247 1371.407084)
5(1340.202761 1351.03793 1360.685624 1369.30903 1377.545419)
5(1346.040974 1356.848242 1366.577555 1375.180382 1383.456368)
5(1351.697242 1362.468894 1372.259685 1380.837367 1389.143955)
5(1357.17193 1367.895839 1377.737194 1386.283325 1394.603932)
5(1362.464299 1373.134881 1383.016745 1391.525974 1399.866503)
5(1367.574908 1378.178964 1388.099966 1396.563099 1404.907023)
5(1372.499551 1383.039806 1392.982324 1401.400551 1409.7384)
5(1377.241593 1387.715575 1397.672112 1406.039489 1414.367177)
5(1381.800502 1392.198828 1402.16276 1410.476504 1418.795545)
5(1386.169459 1396.495193 1406.457293 1414.718831 1423.023918)
5(1390.345098 1400.604527 1410.556948 1418.765747 1427.050692)
5(1394.321461 1404.514801 1414.457798 1422.619203 1430.861021)
5(1398.091338 1408.228609 1418.163506 1426.273699 1434.447864)
5(1401.649318 1411.738835 1421.671643 1429.724905 1437.838559)
5(1404.985001 1415.045519 1424.979862 1432.9767 1441.055319)
5(1408.097798 1418.146035 1428.095875 1436.029478 1444.107153)
5(1410.979321 1421.037674 1431.012043 1438.901959 1447.009486)
5(1413.64192 1423.727253 1433.738028 1441.608165 1449.756077)
5(1416.073611 1426.214211 1436.269461 1444.162248 1452.362869)
5(1418.291504 1428.505605 1438.62364 1446.571403 1454.840031)
5(1420.289859 1430.612129 1440.815925 1448.855393 1457.197905)
5(1422.089846 1432.535998 1442.872866 1451.009543 1459.438495)
5(1423.704969 1434.304686 1444.790713 1453.037794 1461.570485)
5(1425.154845 1435.929667 1446.576747 1454.948302 1463.593993)
5(1426.446932 1437.428466 1448.241773 1456.741447 1465.506404)
5(1427.59312 1438.791005 1449.771623 1458.417835 1467.313277)
5(1428.597611 1440.004463 1451.157768 1459.955143 1468.997084)
5(1429.446321 1441.037148 1452.343487 1461.318521 1470.539615)
5(1430.054631 1441.823331 1453.293305 1462.46265 1471.860252)
5(1430.266891 1442.213787 1453.823525 1463.282694 1472.878914)
5(1429.574184 1441.696117 1453.462069 1463.369226 1473.254728)
5(1422.85405 1433.751435 1443.294036 1455.423327 1465.3103)
)


60
(
5(1096.568995 1100.198967 1103.889494 1107.298368 1110.62959)
5(1104.901321 1109.882037 1112.048291 1116.160075 1118.738672)
5(1113.434895 1119.322835 1121.143252 1125.736422 1128.146037)
5(1122.324391 1128.804704 1130.990036 1135.912315 1138.604084)
5(1131.700191 1138.580926 1141.359372 1146.562442 1149.802706)
5(1141.434601 1148.663446 1152.00978 1157.52028 1161.359681)
5(1151.323687 1158.94634 1162.78641 1168.646169 1172.942942)
5(1161.334579 1169.412406 1173.68713 1179.919431 1184.575143)
5(1171.496651 1180.012873 1184.708121 1191.319891 1196.309031)
5(1181.791827 1190.717456 1195.863822 1202.816645 1208.173735)
5(1192.166927 1201.45361 1207.071102 1214.336039 1220.064433)
5(1202.556006 1212.170256 1218.259964 1225.795762 1231.887732)
5(1212.886442 1222.790417 1229.328667 1237.105514 1243.520445)
5(1223.105478 1233.253128 1240.206933 1248.192219 1254.901519)
5(1233.143578 1243.495679 1250.825309 1258.977065 1265.935075)
5(1242.949198 1253.446245 1261.113473 1269.385849 1276.558512)
5(1252.46004 1263.043074 1270.999499 1279.330229 1286.670298)
5(1261.605529 1272.204923 1280.395428 1288.73912 1296.19057)
5(1270.327785 1280.871512 1289.217442 1297.476807 1304.981985)
5(1278.538815 1288.921757 1297.387173 1305.647286 1313.294221)
5(1286.169935 1296.508716 1305.206356 1313.652903 1321.597868)
5(1293.456389 1303.999202 1313.04816 1321.53552 1329.511453)
5(1300.756158 1311.370827 1320.509401 1329.046696 1337.145453)
5(1307.789157 1318.420382 1327.72795 1336.303236 1344.506994)
5(1314.58883 1325.248012 1334.708543 1343.317649 1351.606538)
5(1321.179906 1331.862894 1341.455173 1350.090984 1358.455927)
5(1327.56972 1338.264996 1347.975087 1356.629532 1365.056885)
5(1333.767682 1344.462549 1354.277223 1362.934256 1371.413975)
5(1339.777671 1350.459781 1360.363493 1369.019033 1377.545324)
5(1345.593555 1356.261857 1366.236782 1374.88723 1383.453596)
5(1351.222554 1361.864961 1371.902238 1380.537145 1389.133668)
5(1356.666598 1367.275615 1377.368531 1385.979016 1394.596416)
5(1361.931861 1372.504024 1382.631566 1391.216767 1399.844916)
5(1367.017187 1377.539754 1387.697046 1396.251744 1404.878238)
5(1371.914221 1382.38612 1392.562276 1401.08456 1409.705323)
5(1376.625747 1387.042584 1397.233528 1405.71426 1414.328607)
5(1381.14759 1391.511356 1401.712546 1410.146705 1418.753815)
5(1385.478745 1395.792761 1405.990689 1414.383363 1422.979496)
5(1389.611769 1399.880858 1410.071855 1418.424322 1426.995486)
5(1393.541302 1403.766763 1413.955386 1422.263155 1430.799088)
5(1397.260118 1407.455649 1417.63498 1425.907262 1434.384224)
5(1400.756866 1410.934024 1421.118037 1429.348567 1437.769531)
5(1404.027256 1414.199859 1424.395696 1432.584231 1440.971453)
5(1407.071715 1417.252261 1427.475019 1435.61865 1444.004275)
5(1409.884975 1420.088453 1430.344358 1438.468081 1446.882548)
5(1412.460953 1422.709207 1433.010648 1441.144718 1449.605719)
5(1414.802018 1425.112197 1435.475566 1443.660395 1452.175913)
5(1416.90756 1427.298773 1437.743553 1446.023852 1454.610583)
5(1418.796299 1429.282135 1439.858992 1448.245807 1456.917683)
5(1420.473698 1431.075163 1441.80404 1450.33226 1459.101222)
5(1421.941767 1432.696355 1443.599598 1452.281742 1461.159532)
5(1423.220596 1434.156423 1445.253405 1454.108167 1463.12476)
5(1424.324676 1435.455956 1446.766671 1455.810052 1464.966816)
5(1425.259548 1436.600201 1448.133361 1457.37432 1466.681559)
5(1426.029928 1437.590807 1449.345175 1458.802581 1468.26545)
5(1426.604504 1438.373561 1450.36644 1460.055081 1469.681712)
5(1426.930098 1438.893206 1451.11774 1461.045949 1470.879123)
5(1426.836242 1438.993156 1451.372915 1461.62122 1471.717529)
5(1425.857986 1438.193978 1450.555472 1461.252205 1471.757362)
5(1418.813448 1429.651153 1440.448153 1452.453773 1463.303373)
)


60
(
5(1096.902094 1100.37219 1104.314413 1107.693768 1111.170969)
5(1105.420304 1110.141473 1112.647427 1116.63031 1119.502033)
5(1114.006642 1119.576369 1121.797425 1126.201134 1128.98668)
5(1122.862962 1128.997287 1131.603459 1136.314698 1139.410228)
5(1132.17353 1138.694542 1141.879749 1146.865577 1150.498494)
5(1141.831304 1148.693173 1152.423434 1157.722482 1161.932136)
5(1151.645337 1158.893638 1163.105703 1168.747104 1173.420408)
5(1161.585437 1169.274779 1173.919271 1179.929645 1184.957724)
5(1171.681399 1179.79665 1184.853413 1191.234159 1196.610608)
5(1181.900961 1190.418658 1195.91941 1202.645203 1208.379575)
5(1192.20578 1201.081335 1207.036501 1214.073244 1220.181912)
5(1202.518923 1211.726681 1218.138466 1225.451779 1231.913073)
5(1212.787688 1222.28187 1229.125111 1236.689884 1243.473114)
5(1222.940938 1232.696962 1239.936677 1247.718334 1254.781687)
5(1232.928588 1242.892421 1250.493045 1258.457156 1265.767302)
5(1242.6921 1252.817418 1260.738149 1268.836298 1276.353319)
5(1252.165268 1262.393282 1270.592432 1278.773312 1286.448799)
5(1261.294351 1271.562366 1279.977551 1288.194745 1295.9718)
5(1270.003878 1280.250939 1288.81783 1296.978351 1304.787298)
5(1278.233819 1288.349032 1297.002347 1305.155491 1313.072786)
5(1285.879663 1295.94211 1304.784338 1313.082615 1321.271731)
5(1293.138621 1303.352853 1312.56217 1320.972255 1329.222867)
5(1300.353553 1310.736738 1320.020512 1328.474059 1336.835615)
5(1307.409838 1317.773563 1327.216064 1335.717416 1344.179663)
5(1314.184038 1324.589387 1334.173613 1342.718312 1351.265981)
5(1320.758782 1331.18881 1340.903557 1349.475899 1358.10382)
5(1327.126448 1337.583128 1347.405413 1356.002854 1364.690893)
5(1333.30357 1343.767656 1353.690973 1362.308572 1371.043173)
5(1339.289051 1349.75353 1359.758113 1368.385238 1377.16746)
5(1345.08176 1355.541867 1365.617325 1374.247627 1383.058163)
5(1350.686421 1361.133604 1371.268286 1379.890839 1388.731666)
5(1356.113834 1366.53665 1376.719939 1385.331203 1394.186914)
5(1361.354623 1371.748908 1381.971214 1390.563344 1399.430357)
5(1366.40568 1376.771676 1387.020433 1395.595883 1404.463563)
5(1371.27226 1381.606116 1391.87892 1400.42718 1409.292538)
5(1375.951202 1386.249282 1396.536477 1405.056442 1413.919725)
5(1380.438547 1390.707284 1401.00359 1409.487942 1418.340377)
5(1384.73073 1394.968118 1405.269423 1413.724508 1422.564958)
5(1388.819473 1399.035587 1409.337622 1417.762159 1426.584696)
5(1392.701766 1402.901758 1413.206572 1421.597914 1430.382579)
5(1396.366628 1406.559925 1416.871182 1425.239642 1433.969382)
5(1399.813054 1410.00725 1420.331072 1428.672082 1437.355178)
5(1403.027525 1413.233598 1423.585422 1431.901344 1440.550036)
5(1406.002122 1416.240474 1426.629127 1434.919529 1443.575682)
5(1408.74115 1419.025332 1429.459553 1437.745316 1446.43079)
5(1411.242944 1421.585627 1432.071704 1440.390517 1449.12636)
5(1413.507658 1423.906373 1434.468463 1442.863537 1451.656493)
5(1415.542342 1426.00209 1436.6635 1445.17282 1454.044557)
5(1417.339978 1427.87962 1438.666771 1447.327414 1456.300758)
5(1418.915185 1429.547487 1440.489904 1449.324158 1458.423494)
5(1420.271999 1431.033922 1442.141819 1451.175923 1460.421089)
5(1421.414172 1432.337273 1443.625742 1452.889433 1462.295338)
5(1422.379932 1433.452898 1444.94382 1454.445228 1464.046964)
5(1423.154205 1434.3964 1446.088015 1455.875808 1465.664213)
5(1423.732816 1435.134273 1447.064622 1457.126135 1467.141866)
5(1424.078926 1435.64495 1447.818263 1458.17197 1468.43499)
5(1424.145907 1435.856128 1448.262754 1458.929326 1469.462939)
5(1423.782044 1435.624656 1448.210953 1459.20941 1470.057195)
5(1422.499529 1434.458116 1446.979755 1458.40985 1469.694992)
5(1415.158483 1426.143934 1436.090833 1447.853992 1458.417746)
)


60
(
5(1097.23009 1100.576508 1104.727364 1108.098952 1111.698621)
5(1105.903463 1110.428481 1113.198135 1117.078425 1120.194731)
5(1114.530227 1119.859097 1122.379381 1126.625811 1129.714131)
5(1123.36374 1129.223307 1132.144448 1136.665102 1140.076514)
5(1132.617912 1138.842817 1142.329886 1147.117765 1151.049614)
5(1142.206209 1148.771128 1152.766834 1157.859085 1162.356926)
5(1151.952542 1158.89253 1163.364119 1168.785243 1173.727978)
5(1161.83398 1169.197023 1174.083863 1179.859554 1185.165599)
5(1171.861763 1179.642546 1184.938601 1191.07236 1196.713883)
5(1182.023169 1190.188159 1195.905522 1202.375485 1208.382108)
5(1192.257719 1200.779963 1206.942675 1213.718958 1220.076331)
5(1202.513466 1211.35547 1217.949665 1225.001178 1231.714401)
5(1212.716296 1221.85237 1228.864561 1236.164052 1243.181345)
5(1222.819234 1232.209891 1239.598837 1247.122173 1254.419911)
5(1232.753477 1242.366353 1250.10328 1257.812424 1265.340947)
5(1242.478323 1252.254368 1260.29638 1268.154091 1275.885069)
5(1251.918485 1261.816763 1270.123186 1278.076686 1285.958487)
5(1261.027425 1270.979544 1279.493926 1287.501035 1295.484482)
5(1269.725631 1279.683765 1288.345557 1296.330327 1304.329659)
5(1277.962942 1287.822811 1296.550959 1304.518015 1312.601578)
5(1285.627092 1295.422302 1304.303928 1312.388176 1320.691698)
5(1292.868421 1302.775795 1311.974537 1320.2589 1328.669262)
5(1300.00878 1310.153425 1319.466466 1327.745544 1336.257459)
5(1307.07439 1317.175849 1326.640543 1334.973273 1343.589013)
5(1313.832385 1323.974636 1333.579276 1341.961608 1350.654112)
5(1320.380588 1330.565228 1340.288853 1348.711714 1357.472922)
5(1326.730161 1336.940316 1346.772654 1355.227773 1364.054348)
5(1332.888774 1343.115158 1353.03839 1361.51989 1370.395419)
5(1338.846659 1349.087927 1359.09411 1367.587976 1376.508984)
5(1344.620228 1354.859147 1364.935426 1373.438407 1382.397924)
5(1350.210051 1360.444655 1370.57462 1379.083544 1388.064122)
5(1355.607198 1365.834251 1376.012384 1384.520653 1393.519623)
5(1360.816916 1371.030506 1381.250648 1389.753432 1398.762209)
5(1365.841926 1376.040648 1386.289557 1394.782182 1403.790667)
5(1370.680299 1380.859014 1391.136393 1399.608912 1408.61748)
5(1375.327069 1385.491915 1395.782367 1404.238052 1413.240206)
5(1379.778553 1389.929688 1400.231652 1408.670976 1417.661008)
5(1384.026878 1394.17049 1404.489387 1412.90715 1421.88768)
5(1388.071278 1398.213049 1408.545881 1416.944681 1425.908097)
5(1391.897753 1402.052493 1412.400738 1420.784111 1429.716008)
5(1395.507515 1405.682299 1416.049518 1424.420457 1433.310602)
5(1398.887644 1409.096017 1419.487608 1427.850879 1436.699)
5(1402.037574 1412.283085 1422.715116 1431.069628 1439.892609)
5(1404.95542 1415.24118 1425.726676 1434.079832 1442.909731)
5(1407.631172 1417.96389 1428.514835 1436.889468 1445.753478)
5(1410.074407 1420.459841 1431.075352 1439.505358 1448.418298)