/*--------------------------------*- C++ -*----------------------------------*\
| =========                 |                                                 |
| \\      /  F ield         | OpenFOAM: The Open Source CFD Toolbox           |
|  \\    /   O peration     | Version:  2.3.1                                 |
|   \\  /    A nd           | Web:      www.OpenFOAM.org                      |
|    \\/     M anipulation  |                                                 |
\*---------------------------------------------------------------------------*/
FoamFile
{
    version     2.0;
    format      ascii;
    class       dictionary;
    location    "constant";
    object      GRPSI20;
}
// * * * * * * * * * * * * * * * * * * * * * * * * * * * * * * * * * * * * * //

GRPSI20_table
60
(

60
(
5(-0.004540587025 -0.00425332825 -0.005115156534 -0.003156815987 -0.004729484161)
5(-0.005921904528 -0.001457617668 -0.003937847052 -0.002596200489 -0.004481396885)
5(-0.003651611015 0.0008771978509 -0.001248453816 -0.001649204257 -0.0009673072191)
5(0 3.919743659e-05 0.0001465451123 -2.884365824e-05 0.0007939144352)
5(0.001461443229 -0.0003584314633 -0.0008985081838 0.0006414199148 -0.0005264103338)
5(0.002194490347 -0.0003221826397 -0.0007381549805 -0.0002526120369 0.0002949850343)
5(-0.0001093108897 -0.0001461194021 0.0005866089449 -0.0001687909219 -0.0002071904749)
5(-0.0005460848572 4.256695835e-05 0.0002075631525 0.0001458501769 -0.0004594319178)
5(0.0001034761306 0.0001181390336 1.769842957e-05 -5.494136054e-05 0.0002523511904)
5(-0.0001455390127 4.333520342e-05 0.0001885418169 -6.363495102e-05 4.561249647e-05)
5(0.0001781372961 -1.546113772e-05 -0.0001967205137 1.616304352e-05 -5.812818034e-05)
5(9.198023124e-05 1.611036082e-05 -0.0002095851929 6.401663626e-05 -2.522251625e-05)
5(0.0001500521705 2.878807775e-05 -2.939715824e-05 -4.085224541e-05 -8.1461956e-06)
5(1.945056643e-05 -5.383590704e-05 -4.946449086e-05 -6.27047933e-05 -6.525835918e-05)
5(-0.0001362455882 -7.760579781e-05 -4.318515398e-05 3.650572463e-05 -1.783903883e-05)
5(2.277520163e-05 -2.867979825e-05 9.0688349e-06 -1.050459346e-05 2.121426839e-05)
5(-1.986698123e-05 -3.470353082e-05 -2.110004352e-05 1.355383527e-05 2.277962607e-05)
5(-3.58509889e-05 -1.542442644e-05 -1.901477363e-05 -1.67852572e-06 -1.013178582e-05)
5(1.569505892e-05 5.085230556e-05 1.085101184e-05 2.229098484e-05 -2.966340121e-05)
5(5.667884862e-06 -1.280161496e-05 -4.137891699e-05 1.041532802e-05 -3.394694436e-05)
5(-4.933828433e-05 -9.175822643e-05 -6.537563085e-05 -0.0001555677189 -7.746480522e-05)
5(2.149612453e-05 -2.629183826e-05 -3.365170031e-05 -7.655118943e-05 -3.251857089e-05)
5(-1.549135887e-05 2.903780515e-05 -4.96610305e-05 2.365314473e-05 3.810863677e-06)
5(-4.754628312e-05 4.914339881e-06 -2.227534611e-05 -1.531738935e-05 -2.745049528e-05)
5(-2.003317468e-05 -6.459344895e-05 1.483138302e-05 1.997418317e-05 -2.503461102e-05)
5(-3.400326612e-05 -9.081064364e-05 -5.515367497e-05 -1.594539343e-06 -4.368280187e-05)
5(-6.024211921e-05 -7.749939499e-05 -8.27091035e-05 -4.304755142e-05 -4.95146106e-05)
5(-3.132474665e-05 -4.374550695e-05 -7.174614488e-05 -8.209644295e-05 -5.469837787e-05)
5(-1.433231041e-05 -2.992377794e-05 -0.000119734233 -0.0001301163304 -6.836786058e-05)
5(-4.353054839e-05 -4.24471996e-05 -7.864443374e-05 -9.95043534e-05 -7.338659449e-05)
5(-5.988893844e-05 -0.0001004448308 -0.0001106449148 -0.0001167043346 -0.0001185340658)
5(-0.0001167634659 -0.0001267177298 -0.0001390444467 -0.0001474413255 -8.35999144e-05)
5(-0.0001267888 -0.0001122220324 -9.777214938e-05 -0.0001228872284 -7.859465444e-05)
5(-0.0001286917971 -0.0001516124822 -0.0001398524087 -0.0001307258445 -0.0001073660513)
5(-0.0001637436878 -0.0001557725871 -0.0001267928788 -0.0001190268101 -5.843317809e-05)
5(-0.0001983447219 -0.0002149064991 -0.0002061398285 -0.0001368419368 -7.27520793e-05)
5(-0.0002267193774 -0.0002365398593 -0.0002577452184 -0.0001231846627 -8.467760126e-05)
5(-0.0002387374009 -0.0002006917642 -0.000152250551 -9.439561456e-05 -4.279047722e-05)
5(-0.0002245018903 -0.0002194032454 -0.0001264389833 -8.16667926e-05 -2.022435412e-05)
5(-0.0002510847216 -0.0002146415568 -0.0001444832164 -5.595536042e-05 -2.342309513e-05)
5(-0.0002891010106 -0.0001956719541 -0.0001333607868 -3.941861072e-05 -6.5899918e-08)
5(-0.000262947328 -0.000154290076 -8.182645073e-05 -2.751927986e-05 -6.625316294e-08)
5(-0.0002114582512 -0.0001091220889 -3.938539542e-05 -1.358419587e-05 5.042962901e-06)
5(-0.0001666269024 -6.614476152e-05 -1.933506849e-05 0 8.932144669e-07)
5(-0.0001286432714 -4.179857461e-05 -1.934731667e-05 0 -5.042962901e-06)
5(-8.628835227e-05 -1.990095546e-05 -6.494407773e-06 5.901218654e-07 -8.932144669e-07)
5(-4.180270597e-05 -9.366382604e-06 -8.803743835e-07 0 0)
5(-2.020618723e-05 -2.601218429e-06 -2.542710984e-07 -5.901218654e-07 0)
5(-1.085879169e-05 -1.641867195e-07 -9.364371223e-08 0 0)
5(-2.211973904e-06 -3.162755146e-08 -1.65868894e-08 0 0)
5(-4.261563273e-07 -6.405311561e-10 0 0 0)
5(-7.779752638e-08 0 0 0 0)
5(-1.029751117e-08 0 0 0 0)
5(-4.297187244e-12 5.152544711e-36 0 0 0)
5(0 1.659215632e-35 0 0 0)
5(0 4.710661336e-35 0 0 2.237662792e-34)
5(0 -3.404726945e-37 4.760790174e-35 1.608313085e-34 3.389118871e-34)
5(0 -4.253068502e-35 6.363829023e-35 2.110885663e-35 -1.923159453e-34)
5(2.360286421e-38 -1.600047803e-35 -4.760790174e-35 -1.338979924e-34 -2.327695752e-34)
5(4.720572841e-38 -1.895453492e-35 -1.272765805e-34 1.164891892e-35 1.493839562e-34)
)


60
(
5(-0.002008956418 0.0002174813946 -0.002996561402 -0.001600772377 -0.003379096304)
5(-0.001478938865 0.0002162631138 -0.002142052119 -0.00111399777 -0.002459601456)
5(-0.000508881843 0.0002296201125 -0.0006578334975 -0.0003022427194 -0.0008519051264)
5(0.0002152211303 0.0002782982794 0.0003014769246 0.0001907082429 0.0002100286626)
5(0.0005867338991 0.0003075308175 0.0006188623237 0.0003533351281 0.0006129627432)
5(0.0005312135446 0.000262069268 0.000424286237 0.000272451816 0.0004510460328)
5(0.0002609619781 0.0001834811476 0.0001520391681 0.0001368116421 0.0001311574295)
5(9.761036693e-05 0.0001235780596 2.445695989e-05 5.140564321e-05 -2.489670214e-05)
5(9.561002292e-05 0.0001114724607 2.063906877e-05 4.774956323e-05 -1.518751713e-05)
5(0.0001268882075 0.0001228180316 7.697605328e-05 7.647441346e-05 5.216082787e-05)
5(0.000143400958 0.0001140780166 0.0001113198909 8.002981115e-05 8.655321347e-05)
5(0.0001447743272 9.866057473e-05 0.0001071437603 6.551840689e-05 6.948596091e-05)
5(0.0001107201151 8.318892724e-05 7.342820257e-05 5.056583295e-05 3.392490679e-05)
5(8.520393009e-05 6.309509121e-05 4.470044e-05 3.191349901e-05 1.051791469e-05)
5(7.544631784e-05 5.385789433e-05 3.411281593e-05 1.270996737e-05 -3.826558196e-06)
5(6.56593369e-05 4.698373381e-05 3.120493464e-05 5.142260453e-06 -1.395578715e-05)
5(5.438328904e-05 3.573450459e-05 1.964347382e-05 -7.116607073e-06 -2.516137885e-05)
5(4.844620883e-05 2.068726769e-05 2.796523985e-06 -2.159387843e-05 -4.084723585e-05)
5(3.668017397e-05 6.147874929e-06 -1.562226588e-05 -3.522334512e-05 -5.735852677e-05)
5(2.300647051e-05 -5.900035137e-06 -3.338219536e-05 -5.74126702e-05 -7.915758114e-05)
5(7.518614406e-06 -2.264228682e-05 -5.52308957e-05 -8.162839242e-05 -0.0001039312914)
5(-1.007115205e-05 -4.373137065e-05 -7.940527802e-05 -0.0001093093985 -0.0001266644178)
5(-2.271419199e-05 -6.590609088e-05 -0.0001007693783 -0.0001440580691 -0.0001549644425)
5(-4.316724921e-05 -9.105999645e-05 -0.0001317773044 -0.00017062885 -0.0001859029977)
5(-6.7245171e-05 -0.0001203864183 -0.0001591450173 -0.0001952973131 -0.0002184819137)
5(-9.161861175e-05 -0.0001565293265 -0.0001934197619 -0.0002310585132 -0.0002553181293)
5(-0.0001264588687 -0.0001937062525 -0.0002437273034 -0.0002764364144 -0.0002959017128)
5(-0.0001653981459 -0.000232927808 -0.0002901527083 -0.0003293925889 -0.000338574403)
5(-0.0002070311269 -0.0002881704772 -0.0003450133452 -0.0003833594851 -0.0003874536011)
5(-0.0002589544412 -0.0003497128351 -0.0004086275768 -0.0004413522114 -0.0004393224268)
5(-0.0003224175226 -0.0004165798664 -0.000478930986 -0.000504281358 -0.0004921743082)
5(-0.0003934317668 -0.0004909205247 -0.0005521094973 -0.0005708495882 -0.000551177045)
5(-0.0004741103121 -0.0005734393682 -0.0006299210147 -0.0006413020388 -0.000607728875)
5(-0.0005681697102 -0.0006653588613 -0.0007164271039 -0.0007100108387 -0.0006589491837)
5(-0.0006694033675 -0.0007616653879 -0.0008020022378 -0.0007723841049 -0.000699812763)
5(-0.0007828299099 -0.0008611082248 -0.0008828836216 -0.0008276581822 -0.0007212332769)
5(-0.0008997670849 -0.0009569374177 -0.00095525051 -0.0008674306972 -0.0007256475029)
5(-0.001012886972 -0.00104217732 -0.00100968226 -0.0008787670312 -0.000715336433)
5(-0.00112604333 -0.001107403024 -0.001036632806 -0.0008642096049 -0.0006838179418)
5(-0.001218945652 -0.001144915538 -0.001030625107 -0.0008188791818 -0.0006221173139)
5(-0.001277778998 -0.001140027919 -0.0009813096851 -0.0007406916224 -0.0005256029984)
5(-0.001293870816 -0.001090649493 -0.0008871186099 -0.0006350656602 -0.0004024855512)
5(-0.001263017989 -0.001001349118 -0.0007576059902 -0.0005036935912 -0.0002775331355)
5(-0.001173743014 -0.0008636388685 -0.0006066508889 -0.0003630241833 -0.0001711278032)
5(-0.00103007348 -0.0006937880838 -0.0004498990522 -0.0002335511051 -9.238828042e-05)
5(-0.0008450942904 -0.0005172298253 -0.0003046043987 -0.0001307115478 -4.273514065e-05)
5(-0.0006412930899 -0.0003529900785 -0.0001832821297 -6.287778258e-05 -1.630156225e-05)
5(-0.0004432544202 -0.0002152079525 -9.380044346e-05 -2.542537312e-05 -4.936328216e-06)
5(-0.0002746077079 -0.0001149803636 -3.981436341e-05 -8.334266457e-06 -1.143572322e-06)
5(-0.0001495708908 -5.191508992e-05 -1.362422142e-05 -2.116185694e-06 -1.960535865e-07)
5(-6.765862937e-05 -1.86810962e-05 -3.693670384e-06 -3.836486194e-07 -2.492475755e-08)
5(-2.517758221e-05 -5.183721941e-06 -7.078225376e-07 -5.143623593e-08 -2.029346485e-09)
5(-6.878597222e-06 -1.049722862e-06 -9.831592606e-08 -4.666299445e-09 -1.073977984e-10)
5(-1.475494757e-06 -1.487358128e-07 -9.607736027e-09 -2.78496225e-10 -3.333044323e-12)
5(-1.845350458e-07 -1.220941072e-08 -4.841073065e-10 -1.00733349e-11 -5.630051582e-14)
5(-1.36154308e-08 -6.309965152e-10 -1.33540286e-11 -3.635061266e-13 -4.486900212e-16)
5(-3.94701768e-10 -1.044408138e-11 -2.071813176e-13 -1.505309416e-14 -2.746825883e-18)
5(-4.911938496e-12 -6.191279481e-14 -3.227652421e-15 -3.800062787e-16 -4.678405911e-21)
5(-1.769288924e-14 -5.82907623e-16 -6.249585464e-17 -4.656276109e-18 -1.95370076e-24)
5(-1.078604868e-17 2.117901326e-17 5.384183172e-17 6.778667872e-19 -6.889171696e-28)
)


60
(
5(-0.0008552007742 0.001021343985 -0.002118885756 -0.001033312837 -0.002712769037)
5(-0.0005625927809 0.0008281881188 -0.001398366095 -0.0006484705369 -0.001902922548)
5(-2.134977978e-05 0.0005475802816 -0.0002144527277 -2.044515231e-05 -0.0005255947009)
5(0.0004407296666 0.0004594229402 0.0004800566405 0.0003455803208 0.0003469332397)
5(0.0006942612823 0.0004485610713 0.0006834154908 0.0004551148751 0.0006669403743)
5(0.0006079811311 0.0003800724679 0.0005053906381 0.0003596962218 0.0005071163377)
5(0.0003724577259 0.0002906503903 0.0002576360567 0.0002178924669 0.0002112168938)
5(0.0002326639952 0.0002403859731 0.0001302646241 0.0001393362597 5.987962352e-05)
5(0.0002087452002 0.000214034608 0.0001167859676 0.0001267224304 6.28746271e-05)
5(0.0002197901051 0.0002016605537 0.0001548956787 0.0001379266169 0.0001113861907)
5(0.000222765891 0.0001850087237 0.000173798306 0.0001347226709 0.0001239634646)
5(0.0002122409487 0.0001663917795 0.0001580739674 0.0001138916361 0.0001021921888)
5(0.0001828042427 0.0001464828851 0.0001247317692 8.751770573e-05 6.373914635e-05)
5(0.0001518647077 0.0001229140946 9.420680044e-05 6.083657431e-05 3.114000802e-05)
5(0.0001291470948 0.0001032660018 7.251424352e-05 3.923855011e-05 9.172047481e-06)
5(0.0001171239866 8.37460205e-05 5.656050398e-05 2.172155589e-05 -8.159720239e-06)
5(0.0001060872215 6.569096217e-05 3.811240638e-05 2.340183345e-06 -2.909970187e-05)
5(8.627791622e-05 4.848386226e-05 1.662227308e-05 -2.084117108e-05 -5.289931734e-05)
5(6.817302524e-05 2.708905006e-05 -8.242608718e-06 -4.515611864e-05 -7.894145675e-05)
5(4.456605419e-05 5.494676057e-06 -3.757792253e-05 -7.382518452e-05 -0.0001086677269)
5(2.621181991e-05 -1.809504764e-05 -6.802906795e-05 -0.0001112164662 -0.0001434093682)
5(5.174468961e-06 -4.777002314e-05 -9.904813873e-05 -0.0001472170398 -0.000179602455)
5(-2.405924347e-05 -8.071497735e-05 -0.000131811468 -0.0001858055994 -0.0002169481611)
5(-5.405389523e-05 -0.0001172665773 -0.0001726725555 -0.0002284932382 -0.0002598940165)
5(-8.589137522e-05 -0.0001577808895 -0.0002182578736 -0.0002709845041 -0.0003071564708)
5(-0.0001224144402 -0.0002060191626 -0.0002719207822 -0.0003217880583 -0.0003581306818)
5(-0.0001723260371 -0.0002553265951 -0.000326179609 -0.0003786989744 -0.0004135396742)
5(-0.0002194838027 -0.0003143218791 -0.0003905944448 -0.0004475666178 -0.0004765830027)
5(-0.0002768625301 -0.0003864057182 -0.000466293132 -0.0005222832579 -0.0005469488003)
5(-0.0003477323193 -0.0004585148606 -0.0005454718985 -0.000600593531 -0.0006181428564)
5(-0.0004249848608 -0.0005468608266 -0.0006381093405 -0.000689865414 -0.0006966862927)
5(-0.0005183790166 -0.0006507422105 -0.000737383647 -0.0007833733374 -0.0007820827228)
5(-0.0006234292909 -0.0007543285155 -0.0008448665242 -0.0008801252932 -0.0008701158126)
5(-0.0007419563126 -0.0008729469528 -0.0009661624592 -0.0009813370536 -0.0009552995714)
5(-0.0008813105809 -0.001005975919 -0.001084501856 -0.001084654948 -0.001030130347)
5(-0.001028760468 -0.001140919504 -0.00120264405 -0.00118031394 -0.001092436117)
5(-0.001169455221 -0.001278542861 -0.001318833059 -0.001259299621 -0.001131848288)
5(-0.001328859294 -0.001411266751 -0.001415078044 -0.001314456415 -0.001149819722)
5(-0.001490445826 -0.001528325692 -0.001491058449 -0.001338451466 -0.001146173068)
5(-0.001628433487 -0.001609589119 -0.001529165779 -0.001321317714 -0.001098603355)
5(-0.001744846821 -0.001652859113 -0.001510398926 -0.001256314687 -0.0009959543079)
5(-0.00181334187 -0.001649015067 -0.00143499643 -0.001143751617 -0.0008432883505)
5(-0.001822413627 -0.001579273199 -0.001304700056 -0.0009889590499 -0.0006594356438)
5(-0.001765882515 -0.001444646513 -0.001126756523 -0.0007955243128 -0.0004770257151)
5(-0.001638451293 -0.001252831276 -0.0009130062421 -0.0005842702868 -0.000314984348)
5(-0.001438172205 -0.001018784172 -0.00068766738 -0.0003905065108 -0.0001853823643)
5(-0.001183754367 -0.0007703513639 -0.0004724357758 -0.0002334603041 -9.538536391e-05)
5(-0.000908345303 -0.0005350227105 -0.0002883319306 -0.0001215360439 -4.217558047e-05)
5(-0.000637831293 -0.0003342750511 -0.0001537005475 -5.465317269e-05 -1.524676272e-05)
5(-0.0004031016402 -0.0001835926403 -6.931067979e-05 -2.072145341e-05 -4.464336174e-06)
5(-0.0002242822296 -8.53126197e-05 -2.603961428e-05 -6.127825351e-06 -9.981920166e-07)
5(-0.0001060074027 -3.223373047e-05 -7.751905759e-06 -1.450910773e-06 -1.606701666e-07)
5(-3.978093871e-05 -9.421252975e-06 -1.712943094e-06 -2.428533813e-07 -1.999870802e-08)
5(-1.121706229e-05 -2.028794806e-06 -2.745086187e-07 -2.891574863e-08 -1.547475154e-09)
5(-2.164200063e-06 -3.020341213e-07 -2.726946938e-08 -1.980793259e-09 -6.679861183e-11)
5(-2.849424618e-07 -2.827774466e-08 -1.732249266e-09 -9.730758081e-11 -1.951503606e-12)
5(-2.011584439e-08 -1.506691123e-09 -5.456703966e-11 -2.876746957e-12 -2.009050594e-14)
5(-7.437025097e-10 -3.221972088e-11 -1.294253855e-12 -5.769980149e-14 -7.715809674e-17)
5(-6.624555267e-12 -3.726145792e-13 -1.030174789e-14 -8.800561879e-16 -1.863901765e-19)
5(-3.196941389e-14 3.820903828e-13 4.95456898e-13 1.920031863e-15 -4.733418409e-23)
)


60
(
5(1.949983261e-05 0.001676141121 -0.001443058198 -0.0005972773313 -0.002189507831)
5(0.0001115833561 0.00133144482 -0.000848671772 -0.0002901129354 -0.001475312635)
5(0.0003358704325 0.0008174729869 0.0001108511281 0.0002059097051 -0.0002687283048)
5(0.0006223534831 0.0006201277103 0.0006418304119 0.0004846408604 0.0004787041708)
5(0.0008035944219 0.0005745635994 0.0007684123032 0.0005550223257 0.0007405546226)
5(0.0007071876252 0.0004968781046 0.0005898122931 0.0004471434153 0.0005773669757)
5(0.0004803969784 0.000397714039 0.0003548019474 0.0003000588711 0.0002890464239)
5(0.0003375043595 0.0003332781502 0.0002242162292 0.0002188598248 0.0001371721783)
5(0.0003014666795 0.0002999141939 0.0002011380943 0.0001980627128 0.0001269986417)
5(0.0003073413836 0.0002788798279 0.0002236718016 0.000196882848 0.0001611180732)
5(0.0002998213417 0.0002551173778 0.0002299122175 0.0001834337264 0.0001660103984)
5(0.0002736237578 0.0002280810588 0.0002081920298 0.0001576664519 0.0001372544982)
5(0.0002416956304 0.0001981178321 0.0001701684491 0.0001260219655 9.11060002e-05)
5(0.000211923462 0.00017063966 0.000134656278 9.308478389e-05 5.392166181e-05)
5(0.0001851135078 0.0001465349688 0.0001092673062 6.372904202e-05 2.61758429e-05)
5(0.0001605925376 0.0001241864528 8.616059191e-05 3.988113366e-05 5.158439815e-07)
5(0.0001433667352 9.83116703e-05 5.818805738e-05 1.105676129e-05 -2.60331437e-05)
5(0.0001209151421 7.397707525e-05 3.051537123e-05 -1.736334607e-05 -5.816891039e-05)
5(9.580267309e-05 4.763603309e-05 -1.796914634e-06 -4.748928122e-05 -9.233456583e-05)
5(7.251710028e-05 1.564900703e-05 -3.516662917e-05 -8.261938815e-05 -0.0001290660854)
5(3.993389145e-05 -1.250303084e-05 -6.982503012e-05 -0.0001245158538 -0.0001710198475)
5(9.552677272e-06 -4.669739871e-05 -0.0001110905744 -0.0001706685014 -0.0002128582838)
5(-1.478528668e-05 -8.998402789e-05 -0.0001569425792 -0.0002155605284 -0.0002587112191)
5(-5.059329932e-05 -0.000134503925 -0.0002017833657 -0.0002666809141 -0.0003097497629)
5(-9.612993294e-05 -0.0001789632274 -0.0002511199702 -0.0003199591674 -0.0003661463511)
5(-0.000141099058 -0.0002306694612 -0.0003136842293 -0.0003791233536 -0.0004300485657)
5(-0.000193202736 -0.000293520864 -0.0003814990112 -0.0004481388856 -0.0004972049582)
5(-0.0002526814503 -0.0003625713636 -0.0004573342151 -0.0005285796827 -0.0005717718822)
5(-0.0003205167001 -0.000441167606 -0.0005424394362 -0.0006145742752 -0.0006544236683)
5(-0.0003992545089 -0.0005295834266 -0.000637158993 -0.0007081293565 -0.0007455031573)
5(-0.0004901201344 -0.0006296462936 -0.0007459084721 -0.0008126770621 -0.0008439500436)
5(-0.0005938842305 -0.0007416669821 -0.0008585952534 -0.0009262199636 -0.000948788836)
5(-0.0007116388232 -0.0008669693442 -0.0009832303237 -0.001045731905 -0.001059379459)
5(-0.0008450158816 -0.001006530391 -0.001126883043 -0.001172383292 -0.001175381781)
5(-0.0009925672143 -0.001157807665 -0.001272888222 -0.001306292837 -0.001281805675)
5(-0.001155089271 -0.00131734833 -0.001425336995 -0.00143461227 -0.001375098009)
5(-0.001334528217 -0.001484623557 -0.001572033777 -0.001552838381 -0.001456312716)
5(-0.001520164427 -0.001650696465 -0.001709145255 -0.001653076165 -0.001514964774)
5(-0.00170432154 -0.001804121647 -0.001833462719 -0.001719807023 -0.001546103273)
5(-0.001886482896 -0.001941722618 -0.001915812828 -0.001743016955 -0.001533036983)
5(-0.00204267472 -0.002042613225 -0.001945373016 -0.001718257047 -0.001456943951)
5(-0.00216309268 -0.002085880369 -0.001915678521 -0.001634284327 -0.00130277313)
5(-0.002232333514 -0.002063412253 -0.001812418013 -0.00148323022 -0.001096302141)
5(-0.002233650121 -0.00196841956 -0.001638406253 -0.00127111679 -0.0008713191691)
5(-0.002153713821 -0.001795494429 -0.001412653921 -0.001015106847 -0.000642237805)
5(-0.001986231704 -0.001547202221 -0.001148241699 -0.0007480425133 -0.000430837388)
5(-0.001747803153 -0.00126502683 -0.0008589396131 -0.0005068037657 -0.0002595572575)
5(-0.001454574417 -0.0009721823596 -0.0005863617975 -0.0003100830959 -0.0001379640604)
5(-0.001130101593 -0.0006795885474 -0.0003633749331 -0.0001666631937 -6.288702845e-05)
5(-0.0008080403338 -0.000426730925 -0.0001948193374 -7.696420952e-05 -2.444788671e-05)
5(-0.0005262868635 -0.0002367886408 -8.752721173e-05 -2.944153335e-05 -7.675908606e-06)
5(-0.0003047747822 -0.0001109863569 -3.315780987e-05 -9.376088661e-06 -1.865113428e-06)
5(-0.0001491379589 -4.143035617e-05 -9.977030404e-06 -2.210099423e-06 -3.231500656e-07)
5(-5.712106868e-05 -1.223653998e-05 -2.23564464e-06 -3.925370198e-07 -4.28682987e-08)
5(-1.67521607e-05 -2.621578009e-06 -3.393925052e-07 -4.830122585e-08 -3.589410599e-09)
5(-3.547584001e-06 -3.71653984e-07 -3.173472538e-08 -3.538484455e-09 -1.665001474e-10)
5(-4.188969531e-07 -3.037351182e-08 -1.810611863e-09 -1.478553142e-10 -5.045835864e-12)
5(-1.918453272e-08 -1.798773727e-09 -4.762354155e-11 -3.99929134e-12 -4.396701937e-14)
5(-9.659178827e-10 2.554660652e-09 5.55632978e-09 1.773279551e-11 -2.061306754e-16)
5(-1.461602102e-11 5.200151401e-09 1.111054937e-08 3.58103574e-11 -3.146480657e-19)
)


60
(
5(0.0007586133797 0.002269586584 -0.0008694753907 -0.0002190499777 -0.001729112278)
5(0.0006820116746 0.001788280906 -0.0003827359574 2.426197533e-05 -0.001099534745)
5(0.0006376358158 0.001061693081 0.0003904035869 0.0004100422506 -4.097358549e-05)
5(0.0007864128 0.0007670222624 0.0007958332258 0.0006161413629 0.0006068375003)
5(0.0009177100256 0.0006972893598 0.0008613095817 0.0006516060667 0.0008221552541)
5(0.0008058785946 0.0006058237194 0.000673904717 0.0005326675388 0.0006502083078)
5(0.000577496788 0.0004932710309 0.0004446621112 0.0003826415467 0.0003642880546)
5(0.0004360558342 0.0004241889954 0.0003104567701 0.000293836431 0.0002091588067)
5(0.0003919028754 0.0003779356314 0.0002772671201 0.000262427777 0.0001882731129)
5(0.0003844580062 0.0003494621034 0.0002890902915 0.0002535200311 0.0002115034063)
5(0.0003681118772 0.0003201849049 0.0002864274619 0.0002345648776 0.000207684732)
5(0.0003377973538 0.0002833483488 0.0002587082593 0.0002007559012 0.0001718921585)
5(0.000295361221 0.0002514852609 0.0002145415793 0.0001612921333 0.0001223453558)
5(0.0002605164011 0.0002196690057 0.0001730004707 0.0001248623097 7.819121587e-05)
5(0.0002362078762 0.0001893429604 0.0001398650954 9.084327484e-05 4.318275559e-05)
5(0.0002060145243 0.0001594243141 0.0001124591735 5.937781646e-05 1.323759029e-05)
5(0.0001795105685 0.0001288499747 8.487624141e-05 2.408703966e-05 -1.912736753e-05)
5(0.0001540707837 0.000100154015 4.799685936e-05 -6.920813818e-06 -5.618249776e-05)
5(0.000124357785 6.731872952e-05 1.00239346e-05 -4.195097156e-05 -9.66117522e-05)
5(9.355992293e-05 3.291482457e-05 -2.758522931e-05 -8.656019211e-05 -0.0001392095804)
5(6.278945705e-05 -2.112090245e-06 -7.009188546e-05 -0.0001313572719 -0.000186090216)
5(2.779615354e-05 -4.338714947e-05 -0.0001162372366 -0.0001823821341 -0.0002346043806)
5(-1.172137838e-05 -8.899529734e-05 -0.000163844787 -0.0002368323446 -0.0002884714622)
5(-5.176491939e-05 -0.0001370443755 -0.0002159408401 -0.0002911428928 -0.0003458578411)
5(-9.587322983e-05 -0.0001936942652 -0.0002759363069 -0.0003496308517 -0.0004073660425)
5(-0.0001459790652 -0.0002473400993 -0.0003429181339 -0.0004168566207 -0.0004778690835)
5(-0.0002044155181 -0.0003104470351 -0.0004153151067 -0.0004934775459 -0.000553415508)
5(-0.0002714501092 -0.000390808569 -0.000496767848 -0.0005798437698 -0.000638468859)
5(-0.0003439811662 -0.0004745807222 -0.0005897783401 -0.0006758749938 -0.0007317969841)
5(-0.0004273134477 -0.0005686953094 -0.0006943153368 -0.0007798097871 -0.0008331772152)
5(-0.0005231800736 -0.0006739368386 -0.0008080938605 -0.0008953272062 -0.0009479393963)
5(-0.0006305916098 -0.0007927402759 -0.000934080104 -0.001021902845 -0.001067128704)
5(-0.0007535382286 -0.0009295315945 -0.001075987858 -0.001157457762 -0.001195347274)
5(-0.0008948631505 -0.001079743298 -0.001228002355 -0.001302623416 -0.001333757487)
5(-0.001052461607 -0.001242347943 -0.001390630618 -0.001455281836 -0.001467343956)
5(-0.001223946572 -0.001417124265 -0.00156635217 -0.001611600979 -0.001594698745)
5(-0.001407787886 -0.001601910859 -0.001744272387 -0.001766462209 -0.001711419288)
5(-0.00160695295 -0.001796199186 -0.001917139436 -0.001906744715 -0.001813095632)
5(-0.001814546528 -0.001983557569 -0.002073671483 -0.002017636856 -0.00189052799)
5(-0.002019312963 -0.00215607934 -0.002203779461 -0.002094329456 -0.001926636096)
5(-0.002211225303 -0.002301409768 -0.002291691799 -0.002121665559 -0.001887724152)
5(-0.002376371726 -0.002401464323 -0.002315233832 -0.002083004786 -0.001764112476)
5(-0.002495236824 -0.002447425029 -0.002264239933 -0.001971067202 -0.00157125878)
5(-0.002556308813 -0.002412694922 -0.002138323694 -0.001775409806 -0.001321080729)
5(-0.002552338645 -0.002291043723 -0.001938047554 -0.001509071235 -0.001045544748)
5(-0.002459173984 -0.002090624404 -0.001668158164 -0.001198182425 -0.0007747546002)
5(-0.002282799214 -0.001817891969 -0.001348232319 -0.0008878055867 -0.0005276103519)
5(-0.002028593095 -0.001499179328 -0.00100791007 -0.0006086925899 -0.0003234428875)
5(-0.001707715244 -0.001157711068 -0.0006881543362 -0.0003719358536 -0.0001751931271)
5(-0.001360154523 -0.0008238990439 -0.0004227476103 -0.0002014927827 -8.146840528e-05)
5(-0.001008096535 -0.0005341547929 -0.0002284871946 -9.500417897e-05 -3.161797217e-05)
5(-0.000681994356 -0.000301318397 -0.0001051181457 -3.730844791e-05 -1.021807843e-05)
5(-0.0004168702003 -0.0001419339866 -3.969491254e-05 -1.190707485e-05 -2.654454752e-06)
5(-0.00022253297 -5.710048833e-05 -1.185144714e-05 -2.813468423e-06 -4.51751091e-07)
5(-9.412175674e-05 -1.803671506e-05 -2.56722136e-06 -4.808276737e-07 -6.446229087e-08)
5(-2.965031095e-05 -3.94269653e-06 -3.847560408e-07 -5.224715934e-08 -5.095167472e-09)
5(-7.95769671e-06 -5.874286336e-07 -3.46407353e-08 -3.565153733e-09 -1.644938073e-10)
5(-1.172950699e-06 -5.022249517e-08 -1.518284489e-09 -1.517165799e-10 -4.844048321e-12)
5(-7.777260795e-08 -2.785607892e-09 -5.37201581e-11 -2.969654896e-12 -2.991792663e-14)
5(3.277904563e-09 -1.111229453e-10 -3.000083664e-12 -4.851768741e-14 -1.304077976e-16)
)


60
(
5(0.001416310967 0.002820971696 -0.0003566875743 0.0001295096338 -0.001305250052)
5(0.001191490312 0.00221213845 3.488689503e-05 0.0003138229265 -0.0007526472305)
5(0.0009101430993 0.001291884168 0.0006463069511 0.0006007170198 0.0001712641448)
5(0.0009373960365 0.0009096568762 0.0009439356587 0.0007433206494 0.0007304099875)
5(0.001026056168 0.0008121221907 0.0009553575287 0.0007462114274 0.0009056856024)
5(0.0009044820736 0.0007081144084 0.0007565175276 0.0006166720807 0.0007244764219)
5(0.0006727140516 0.000586713174 0.0005308611147 0.0004609895426 0.0004377559594)
5(0.0005259895704 0.0005077641848 0.0003918427544 0.000365583836 0.0002782728839)
5(0.0004749374585 0.0004550640103 0.0003493649336 0.0003259404724 0.0002483467902)
5(0.000456372999 0.0004169430199 0.0003509985994 0.0003084911235 0.0002611743013)
5(0.0004334312696 0.000379679851 0.0003401917786 0.0002821664901 0.0002494765782)
5(0.0003965869456 0.0003408526651 0.0003067636907 0.0002428907371 0.0002077459579)
5(0.0003532693103 0.0003003679441 0.0002576093496 0.0001985802902 0.0001533879093)
5(0.0003113036177 0.0002638356628 0.0002118734163 0.0001567410908 0.0001046529627)
5(0.0002758125243 0.0002284830062 0.0001743650338 0.0001186218714 6.483135986e-05)
5(0.0002471849997 0.0001956759591 0.0001416524433 8.115218437e-05 2.883818995e-05)
5(0.000215925712 0.0001608309272 0.0001056719905 4.397077056e-05 -9.047095902e-06)
5(0.0001859042119 0.0001252719328 6.726676412e-05 5.497297682e-06 -5.050721035e-05)
5(0.0001530161189 9.006853788e-05 2.603936734e-05 -3.646450671e-05 -9.54772047e-05)
5(0.0001165591203 5.08511825e-05 -1.847522498e-05 -8.117344412e-05 -0.0001424245127)
5(8.324965356e-05 1.065145986e-05 -6.307585168e-05 -0.000132854552 -0.0001936169045)
5(4.30193747e-05 -3.306492186e-05 -0.0001133993317 -0.000188306112 -0.0002471577284)
5(-2.79423651e-07 -8.255360547e-05 -0.0001672268806 -0.0002456522716 -0.0003050854052)
5(-4.167083168e-05 -0.0001349348535 -0.000222821605 -0.000305809438 -0.0003694586883)
5(-9.105051329e-05 -0.0001906100556 -0.0002867033512 -0.0003684597877 -0.0004363823496)
5(-0.0001483204681 -0.0002535096941 -0.0003570050149 -0.0004388550517 -0.0005101790025)
5(-0.000207994995 -0.0003243238422 -0.0004342935874 -0.0005210995366 -0.000594087669)
5(-0.0002726198287 -0.0004014598273 -0.000520851163 -0.0006131518043 -0.0006851688478)
5(-0.0003498482503 -0.0004873006276 -0.0006182979752 -0.000713753147 -0.0007838362243)
5(-0.0004397360396 -0.0005869147754 -0.0007273081305 -0.0008257959195 -0.0008949705313)
5(-0.0005378002294 -0.0006985771286 -0.0008460724953 -0.0009474617466 -0.001017985459)
5(-0.0006461336023 -0.0008206806997 -0.0009780427961 -0.001080792532 -0.001149930029)
5(-0.0007686514271 -0.0009559748898 -0.00112503029 -0.001228683905 -0.001295701742)
5(-0.0009099810448 -0.001108477974 -0.001287013849 -0.001387758531 -0.00145080484)
5(-0.001068679585 -0.001279462743 -0.001462085427 -0.001558352025 -0.001605327916)
5(-0.001238351205 -0.001463544958 -0.00164886987 -0.001737427559 -0.001756559494)
5(-0.001427078352 -0.001661157101 -0.001844365892 -0.001915127725 -0.001905059893)
5(-0.001630541926 -0.001865676179 -0.002042873879 -0.002086391762 -0.002049054799)
5(-0.001843949598 -0.002068260587 -0.002236981745 -0.002243658334 -0.002175855614)
5(-0.00206196015 -0.002271628584 -0.002407350334 -0.002370382823 -0.002250330432)
5(-0.002273007198 -0.002457007502 -0.002542095632 -0.00244764865 -0.002271771287)
5(-0.002470698692 -0.002603981982 -0.002620873803 -0.00246678971 -0.002201783823)
5(-0.002634784436 -0.002709682163 -0.002635222591 -0.002416805761 -0.002037245054)
5(-0.002754139191 -0.0027442528 -0.002575007756 -0.002269238416 -0.001804157727)
5(-0.002820795246 -0.002693634334 -0.002427823108 -0.002025445197 -0.001516159733)
5(-0.002793747487 -0.002562596178 -0.002197916309 -0.001712965512 -0.001209098864)
5(-0.002717929884 -0.002350611868 -0.001889610173 -0.001358854665 -0.0008877819628)
5(-0.002560118518 -0.002068080504 -0.001525180461 -0.001007722038 -0.0006000527767)