/*--------------------------------*- C++ -*----------------------------------*\
| =========                 |                                                 |
| \\      /  F ield         | OpenFOAM: The Open Source CFD Toolbox           |
|  \\    /   O peration     | Version:  2.3.1                                 |
|   \\  /    A nd           | Web:      www.OpenFOAM.org                      |
|    \\/     M anipulation  |                                                 |
\*---------------------------------------------------------------------------*/
FoamFile
{
    version     2.0;
    format      ascii;
    class       dictionary;
    location    "constant";
    object      GRPSI14;
}
// * * * * * * * * * * * * * * * * * * * * * * * * * * * * * * * * * * * * * //

GRPSI14_table
60
(

60
(
5(-4.687922447e-06 -2.809087789e-06 -5.412174452e-06 -2.825358965e-06 -6.154056759e-06)
5(-4.59573294e-06 -9.798006532e-07 -3.75189438e-06 -2.187325959e-06 -4.715116222e-06)
5(-2.441027276e-06 5.597184341e-07 -9.769740963e-07 -1.21500981e-06 -9.995937013e-07)
5(7.815338457e-08 2.926137802e-08 1.001299381e-07 -2.245602994e-08 4.426872986e-07)
5(1.777904153e-06 -2.238200905e-07 -5.512273387e-07 4.634204883e-07 -2.563621305e-07)
5(1.172133416e-06 -2.002876385e-07 -4.594552047e-07 -1.444073504e-07 2.85737738e-07)
5(-8.741179937e-07 -8.762617189e-08 3.942443337e-07 -1.085760366e-07 -1.354432566e-07)
5(7.417693064e-07 3.516328828e-08 1.366920496e-07 9.551272054e-08 -3.446199027e-07)
5(1.693405728e-06 9.979851628e-08 1.78796396e-08 -3.651863401e-08 1.621492069e-07)
5(6.340147323e-07 6.309195774e-08 1.362928057e-07 -3.520807033e-08 3.582654987e-08)
5(-7.212679861e-07 -8.01381024e-09 -1.202237092e-07 2.178397834e-08 -2.701869796e-08)
5(-1.720893062e-06 6.600489786e-09 -1.277087251e-07 5.665158638e-08 -3.779435887e-09)
5(-6.442054262e-07 4.149620366e-08 -2.344723832e-09 -1.500651711e-08 4.447659668e-09)
5(3.903867953e-08 -1.015530413e-08 -1.310491081e-08 -2.793939105e-08 -3.758325634e-08)
5(4.266650581e-08 2.248167089e-08 7.473061374e-09 5.083718584e-08 5.026216795e-11)
5(1.569701347e-07 5.67614369e-08 5.609696981e-08 1.985806015e-08 3.300893187e-08)
5(-2.414546784e-08 7.840481271e-09 1.451045298e-08 3.660220203e-08 3.779314572e-08)
5(-6.789774594e-08 2.256640112e-08 1.79159664e-08 3.571016765e-08 2.493871504e-08)
5(4.411861601e-08 8.495026634e-08 7.049439909e-08 7.002742425e-08 1.614722287e-08)
5(9.664362778e-08 7.260028985e-08 4.628932044e-08 7.415651538e-08 1.118081394e-08)
5(8.061023787e-08 4.66293212e-08 5.428098003e-08 -5.036132778e-08 -1.710545694e-08)
5(1.668089739e-07 1.284900902e-07 1.041339616e-07 4.064751523e-08 4.533079204e-08)
5(1.770553988e-07 2.235373168e-07 1.179548047e-07 1.581046405e-07 9.874498998e-08)
5(2.154253307e-07 2.946648217e-07 1.939195303e-07 1.712022078e-07 1.027366114e-07)
5(3.067033074e-07 3.670511358e-07 3.100800244e-07 2.768494611e-07 1.460916745e-07)
5(3.692249773e-07 3.81153838e-07 3.201206484e-07 3.419622064e-07 1.802364136e-07)
5(4.609989484e-07 3.810178876e-07 4.100243989e-07 4.025173372e-07 2.4153399e-07)
5(6.716626837e-07 6.150010044e-07 5.646794984e-07 4.746350488e-07 3.288021983e-07)
5(9.035010595e-07 9.516351844e-07 6.856263059e-07 5.306608117e-07 4.061611793e-07)
5(1.155742008e-06 1.242905116e-06 1.022625917e-06 8.121908496e-07 5.330678289e-07)
5(1.493059216e-06 1.498445402e-06 1.239134349e-06 9.48232275e-07 4.371566755e-07)
5(1.837965033e-06 1.896755272e-06 1.550119072e-06 1.096310029e-06 7.93481276e-07)
5(2.364050124e-06 2.471991099e-06 2.145134994e-06 1.39066055e-06 7.284930864e-07)
5(2.994438967e-06 2.882923822e-06 2.406785003e-06 1.52505207e-06 3.699664857e-07)
5(3.576986458e-06 3.496929127e-06 3.064574582e-06 1.687948243e-06 6.473984771e-07)
5(4.124369432e-06 3.508779248e-06 2.389924734e-06 1.116056655e-06 5.414213174e-07)
5(4.541684425e-06 3.629754657e-06 1.665979128e-06 7.912039405e-07 -1.15641167e-06)
5(4.790514343e-06 3.626629491e-06 2.238469796e-06 1.892327646e-07 -5.645522975e-07)
5(4.877188614e-06 2.705611196e-06 1.888654635e-06 -7.204924911e-07 -1.95217258e-06)
5(3.977425099e-06 1.024552706e-06 -6.451535375e-07 -1.600917272e-06 -2.747581998e-06)
5(1.980488493e-06 -1.012247531e-06 -3.099101768e-06 -3.110882843e-06 -2.014791943e-08)
5(-1.097728992e-07 -3.202256948e-06 -4.267969796e-06 -4.869302069e-06 -3.030608017e-08)
5(-2.26383952e-06 -4.458070442e-06 -2.671397925e-06 -2.997699139e-06 9.308526573e-08)
5(-4.558058178e-06 -5.352958761e-06 -2.956496574e-06 3.779443384e-23 8.441247169e-09)
5(-6.938384316e-06 -5.899748828e-06 -5.322526844e-06 9.776887452e-23 -9.308526573e-08)
5(-8.129124121e-06 -5.369333546e-06 -3.448296757e-06 1.545027308e-08 -8.441247169e-09)
5(-6.615153254e-06 -4.877936096e-06 -1.348186246e-06 5.623319542e-22 1.921659972e-21)
5(-5.997673153e-06 -2.51992023e-06 -3.945809635e-07 -1.545027308e-08 4.382344725e-21)
5(-5.033098123e-06 -6.4235989e-07 -7.580966828e-08 2.826495447e-21 9.596176083e-21)
5(-2.346929846e-06 -2.83672622e-07 -7.36781639e-09 6.129333575e-21 2.04760486e-20)
5(-1.110587961e-06 -5.006197941e-09 3.179968263e-21 1.288340486e-20 4.241525609e-20)
5(-4.801388066e-07 1.726525485e-21 6.647187699e-21 2.634177223e-20 8.5647913e-20)
5(-9.56212358e-08 3.530333589e-21 1.36037957e-20 5.238155452e-20 1.695621331e-19)
5(-1.067876451e-09 7.069895289e-21 2.713200169e-20 1.021096097e-19 3.257472887e-19)
5(8.383345208e-21 1.390855216e-20 5.297670848e-20 1.928037105e-19 6.078591437e-19)
5(2.826095943e-20 2.709604339e-20 1.018307206e-19 3.549230877e-19 1.074901345e-18)
5(4.211329203e-20 8.396255736e-20 1.944979706e-19 6.327823142e-19 1.838879281e-18)
5(4.077943515e-20 1.685810483e-19 4.781352702e-19 6.931298152e-19 2.983567778e-18)
5(4.25245136e-20 2.650589434e-19 1.085662931e-18 4.231334206e-18 1.020210246e-17)
5(4.57934661e-20 3.250830978e-19 1.470324412e-18 7.882982288e-18 1.675407635e-17)
)


60
(
5(-5.49086138e-06 3.951047723e-07 -7.586946364e-06 -3.30443711e-06 -8.931670345e-06)
5(-3.801420138e-06 3.974117934e-07 -5.05475315e-06 -2.229723585e-06 -5.960741827e-06)
5(-1.095345248e-06 4.715868675e-07 -1.279787064e-06 -5.372196318e-07 -1.624652433e-06)
5(6.37610914e-07 6.418464311e-07 6.044667778e-07 3.969832666e-07 4.058617117e-07)
5(1.46970661e-06 7.404345986e-07 1.253750728e-06 7.758190242e-07 1.188378974e-06)
5(1.320040142e-06 6.323422981e-07 9.798601408e-07 6.081854952e-07 9.550617005e-07)
5(8.000066633e-07 4.844486253e-07 4.396018539e-07 2.762935035e-07 3.468684504e-07)
5(4.688151377e-07 4.529663159e-07 1.339969122e-07 1.806820387e-07 4.185428236e-08)
5(3.63763029e-07 4.455521695e-07 1.62637279e-07 2.103244639e-07 1.007934946e-07)
5(5.458612694e-07 4.278157746e-07 3.1934385e-07 2.68316536e-07 2.401374376e-07)
5(6.519345932e-07 4.533895269e-07 4.154968975e-07 3.196112606e-07 2.806931421e-07)
5(5.981528279e-07 4.669357076e-07 4.286952769e-07 3.294199509e-07 2.937432183e-07)
5(6.294057494e-07 4.611479478e-07 4.127853846e-07 2.919114758e-07 2.55852805e-07)
5(6.032970822e-07 4.735135642e-07 3.916098723e-07 2.700115509e-07 2.112342517e-07)
5(5.622229919e-07 4.579461935e-07 3.69381178e-07 2.774297954e-07 2.138378854e-07)
5(5.952882325e-07 4.363255619e-07 3.499830289e-07 2.692882857e-07 2.20241504e-07)
5(6.422195499e-07 4.379474291e-07 3.562326228e-07 2.764493038e-07 2.256971874e-07)
5(6.037248411e-07 4.614759547e-07 3.710559763e-07 2.960944691e-07 2.28665044e-07)
5(5.970728512e-07 4.730109621e-07 3.779532568e-07 3.076369625e-07 2.20571928e-07)
5(6.040286361e-07 4.610362961e-07 3.796671222e-07 3.228784552e-07 2.507390935e-07)
5(6.175986355e-07 4.535892067e-07 3.902697636e-07 3.246692062e-07 2.96449847e-07)
5(6.246613074e-07 4.698013143e-07 4.126099882e-07 3.438720942e-07 3.196538872e-07)
5(5.467819272e-07 4.975045294e-07 4.396903206e-07 4.228781286e-07 3.959728889e-07)
5(5.485989792e-07 5.354308201e-07 5.016081034e-07 5.260146979e-07 5.148340712e-07)
5(5.884814778e-07 5.979859629e-07 5.801124712e-07 6.548113825e-07 6.660775112e-07)
5(5.962547289e-07 6.885561785e-07 7.065868855e-07 8.39673082e-07 8.817896896e-07)
5(6.992730923e-07 8.121746203e-07 9.206085305e-07 1.091702867e-06 1.167848435e-06)
5(8.230795926e-07 9.895314228e-07 1.185014731e-06 1.420944386e-06 1.507923736e-06)
5(9.617106766e-07 1.277439006e-06 1.5261645e-06 1.833151205e-06 1.944207697e-06)
5(1.195701153e-06 1.664332214e-06 1.979477831e-06 2.345335241e-06 2.470071011e-06)
5(1.540931096e-06 2.139398264e-06 2.550489915e-06 2.958878726e-06 3.055099584e-06)
5(1.980870412e-06 2.726007821e-06 3.222703617e-06 3.646413396e-06 3.694565475e-06)
5(2.527387484e-06 3.422911073e-06 3.979465055e-06 4.37098776e-06 4.29142694e-06)
5(3.195234837e-06 4.195171535e-06 4.78363596e-06 5.058030358e-06 4.7858228e-06)
5(3.938068925e-06 4.988968781e-06 5.546769905e-06 5.613658087e-06 5.090047297e-06)
5(4.73622219e-06 5.718571149e-06 6.150796933e-06 5.901067247e-06 5.064909976e-06)
5(5.479119874e-06 6.253448617e-06 6.435484026e-06 5.746574731e-06 4.554758918e-06)
5(5.995208494e-06 6.416656752e-06 6.20672284e-06 4.996311353e-06 3.306773134e-06)
5(6.177756479e-06 6.036956756e-06 5.283675689e-06 3.495644532e-06 1.165125842e-06)
5(5.781731976e-06 4.909871865e-06 3.511355047e-06 1.200612863e-06 -1.723308016e-06)
5(4.610071866e-06 2.962607726e-06 9.531885467e-07 -1.797863367e-06 -4.861731722e-06)
5(2.59293399e-06 2.087683958e-07 -2.227228978e-06 -5.208161173e-06 -7.601670266e-06)
5(-2.38722253e-07 -3.20847348e-06 -5.717981068e-06 -8.411980177e-06 -9.390224241e-06)
5(-3.697111175e-06 -6.732718307e-06 -8.984242806e-06 -1.068859982e-05 -9.929680107e-06)
5(-7.321301894e-06 -9.81674609e-06 -1.142131253e-05 -1.149637179e-05 -9.19044512e-06)
5(-1.044080695e-05 -1.19283069e-05 -1.247014194e-05 -1.067318198e-05 -7.402620549e-06)
5(-1.248827162e-05 -1.260846939e-05 -1.182912182e-05 -8.616802893e-06 -5.120567764e-06)
5(-1.297859818e-05 -1.173744875e-05 -9.714998916e-06 -6.045938798e-06 -2.994523003e-06)
5(-1.184983231e-05 -9.580169645e-06 -6.852661274e-06 -3.637194051e-06 -1.468092643e-06)
5(-9.452099785e-06 -6.755577889e-06 -4.112743749e-06 -1.835746991e-06 -6.068592323e-07)
5(-6.496205782e-06 -4.015940483e-06 -2.069006119e-06 -7.656674531e-07 -2.141753689e-07)
5(-3.723906624e-06 -1.965304738e-06 -8.423744677e-07 -2.682662578e-07 -6.380072821e-08)
5(-1.711579399e-06 -7.754557441e-07 -2.805292984e-07 -7.824509395e-08 -1.621851411e-08)
5(-6.36256116e-07 -2.403864906e-07 -7.608314627e-08 -1.880541157e-08 -3.477405299e-09)
5(-1.673987647e-07 -5.484186844e-08 -1.537698739e-08 -3.654368867e-09 -6.504409352e-10)
5(-3.08707859e-08 -9.619196535e-09 -2.363472322e-09 -5.516863994e-10 -9.589997169e-11)
5(-3.398787689e-09 -9.691053491e-10 -2.626456722e-10 -6.011209691e-11 -1.112658279e-11)
5(-2.269745635e-10 -7.363124906e-11 -1.465310976e-11 -4.293345424e-12 -7.311439302e-13)
5(-6.829455841e-12 -2.193033143e-12 3.604319862e-10 -1.280200233e-13 -2.224208667e-14)
5(-5.854672484e-14 -2.126412865e-14 7.215061624e-10 4.035290976e-14 -2.59213684e-16)
)


60
(
5(-4.316193899e-06 3.7969574e-06 -9.97749609e-06 -4.161981132e-06 -1.285627828e-05)
5(-2.849351806e-06 3.267955771e-06 -6.44562875e-06 -2.602391472e-06 -8.514416448e-06)
5(3.679924564e-08 2.47292255e-06 -8.866887131e-07 -4.27119853e-08 -1.895369839e-06)
5(2.471037659e-06 2.287156185e-06 2.12648059e-06 1.49297784e-06 1.397566531e-06)
5(3.92900941e-06 2.413959333e-06 3.187775449e-06 2.088591612e-06 2.6926088e-06)
5(3.833457634e-06 2.287532297e-06 2.68486792e-06 1.788770503e-06 2.307768709e-06)
5(2.758332922e-06 1.961701444e-06 1.652591935e-06 1.223964245e-06 1.181265726e-06)
5(1.934651778e-06 1.747704568e-06 1.058992679e-06 9.586853923e-07 6.468412269e-07)
5(1.857299112e-06 1.711578667e-06 1.07947854e-06 9.665453874e-07 5.849275482e-07)
5(2.245983925e-06 1.772243166e-06 1.332051502e-06 1.084484788e-06 7.897670812e-07)
5(2.44668757e-06 1.826120763e-06 1.499915184e-06 1.155665617e-06 1.015648969e-06)
5(2.31668862e-06 1.764491967e-06 1.543463316e-06 1.132659233e-06 9.736307744e-07)
5(2.21851044e-06 1.66729492e-06 1.451371996e-06 1.048823133e-06 8.286924183e-07)
5(2.19214953e-06 1.663655805e-06 1.337859895e-06 9.851203384e-07 7.227212598e-07)
5(2.255829744e-06 1.668019053e-06 1.293593327e-06 9.341518442e-07 6.863768514e-07)
5(2.15514831e-06 1.654948674e-06 1.260046344e-06 8.514438164e-07 6.231317295e-07)
5(2.003869153e-06 1.591975492e-06 1.204068889e-06 7.818958472e-07 6.097489948e-07)
5(2.074861264e-06 1.47109408e-06 1.111079718e-06 7.577924165e-07 5.834037926e-07)
5(1.963274639e-06 1.371444307e-06 1.008148584e-06 7.1132086e-07 4.52395766e-07)
5(1.988338127e-06 1.25998008e-06 9.22966614e-07 6.301089106e-07 3.21178532e-07)
5(1.699866703e-06 1.093147125e-06 8.0329353e-07 5.224707565e-07 2.966751726e-07)
5(1.412277379e-06 9.311252964e-07 6.363457323e-07 3.781851591e-07 2.880342122e-07)
5(1.319894785e-06 7.893124922e-07 4.652243301e-07 2.866354494e-07 2.223390892e-07)
5(1.109766751e-06 6.417322007e-07 3.599377631e-07 2.845298077e-07 2.394480786e-07)
5(8.060724237e-07 4.803409349e-07 2.958187155e-07 2.988991839e-07 3.751532468e-07)
5(4.426497137e-07 3.29484587e-07 2.584556921e-07 3.706410699e-07 5.122639189e-07)
5(3.952663435e-07 1.523370371e-07 2.299398132e-07 5.08493719e-07 7.594687451e-07)
5(-1.469664587e-09 5.669160358e-08 2.83987797e-07 7.503311497e-07 1.134551432e-06)
5(-3.241686371e-07 9.160390843e-08 4.444600389e-07 1.120606016e-06 1.636630654e-06)
5(-3.754124741e-07 1.480390017e-07 7.509417716e-07 1.632262455e-06 2.291351719e-06)
5(-4.67519111e-07 3.967364552e-07 1.271589693e-06 2.324191493e-06 3.031351707e-06)
5(-3.976861438e-07 8.815502626e-07 1.933236242e-06 3.133951746e-06 3.913351641e-06)
5(-1.953940907e-07 1.440218644e-06 2.715792024e-06 4.032607445e-06 4.785918964e-06)
5(2.2645289e-07 2.138125465e-06 3.646940587e-06 4.970754149e-06 5.582372037e-06)
5(9.56175637e-07 3.014379957e-06 4.621386523e-06 5.825156442e-06 6.197189457e-06)
5(1.586815851e-06 3.924199095e-06 5.496161299e-06 6.435146397e-06 6.488895379e-06)
5(2.259513421e-06 4.715927946e-06 6.128241135e-06 6.621084433e-06 6.211844883e-06)
5(3.111636832e-06 5.2316012e-06 6.286599361e-06 6.17600253e-06 5.070758511e-06)
5(3.641971262e-06 5.30322428e-06 5.742264907e-06 4.898723759e-06 2.890940323e-06)
5(3.831700507e-06 4.697711292e-06 4.309684384e-06 2.654340438e-06 -2.785120431e-07)
5(3.25075166e-06 3.19080326e-06 1.898610417e-06 -5.569044824e-07 -4.07483952e-06)
5(1.858975012e-06 7.09415731e-07 -1.428809857e-06 -4.513328271e-06 -7.906322832e-06)
5(-4.153024508e-07 -2.60727963e-06 -5.371222826e-06 -8.690687571e-06 -1.123395233e-05)
5(-3.555214369e-06 -6.455861219e-06 -9.476256026e-06 -1.232065097e-05 -1.348871626e-05)
5(-7.169824497e-06 -1.032475441e-05 -1.309469682e-05 -1.46696458e-05 -1.42683407e-05)
5(-1.081448082e-05 -1.347107031e-05 -1.546787454e-05 -1.530936428e-05 -1.340616971e-05)
5(-1.372307567e-05 -1.533525399e-05 -1.600239023e-05 -1.414534156e-05 -1.111897483e-05)
5(-1.529496649e-05 -1.552659547e-05 -1.458990976e-05 -1.154084436e-05 -8.092278822e-06)
5(-1.517149711e-05 -1.391202812e-05 -1.168032096e-05 -8.289656848e-06 -5.088259678e-06)
5(-1.331749264e-05 -1.096014498e-05 -8.126657002e-06 -5.143823765e-06 -2.741018922e-06)
5(-1.025844659e-05 -7.476718734e-06 -4.858506196e-06 -2.707531013e-06 -1.240989209e-06)
5(-6.780816849e-06 -4.294021334e-06 -2.422841939e-06 -1.199696302e-06 -4.661051302e-07)
5(-3.687359255e-06 -2.012552691e-06 -9.795952864e-07 -4.292422826e-07 -1.486067316e-07)
5(-1.573076721e-06 -7.460707907e-07 -3.130234195e-07 -1.23768648e-07 -3.845264477e-08)
5(-4.922413497e-07 -2.057966542e-07 -7.39053213e-08 -2.688644447e-08 -7.837743629e-09)
5(-1.099232515e-07 -4.050997053e-08 -1.295594276e-08 -4.60395596e-09 -1.315277158e-09)
5(-1.460386976e-08 -5.297999868e-09 -1.449586164e-09 -5.483414612e-10 -1.489775298e-10)
5(-1.132517144e-09 -4.001829319e-10 -1.037509199e-10 -8.978086528e-11 -1.025624183e-11)
5(-2.70495682e-11 -7.327057817e-12 7.913134031e-10 -1.159093831e-12 -3.900063363e-13)
5(-3.934901871e-13 1.472651175e-10 1.588274784e-09 1.057011007e-10 -3.653594558e-15)
)


60
(
5(2.074121013e-07 1.083532523e-05 -1.099119506e-05 -4.026566157e-06 -1.671584699e-05)
5(1.057485636e-06 9.186475466e-06 -6.497302873e-06 -1.951904651e-06 -1.082796667e-05)
5(3.143317232e-06 6.510772797e-06 8.593011844e-07 1.543007315e-06 -1.66032997e-06)
5(6.026402536e-06 5.475734296e-06 5.210540412e-06 3.730859876e-06 3.443117448e-06)
5(8.317524453e-06 5.564591477e-06 6.68484116e-06 4.529406624e-06 5.571714062e-06)
5(8.023571923e-06 5.25332487e-06 5.689447123e-06 4.048982044e-06 4.765568857e-06)
5(6.128947932e-06 4.653086154e-06 3.963254024e-06 3.149427818e-06 2.809801955e-06)
5(5.019507976e-06 4.386060602e-06 2.969965676e-06 2.594704711e-06 1.814789787e-06)
5(5.002147729e-06 4.258385978e-06 2.953695251e-06 2.524298394e-06 1.788878022e-06)
5(5.198197279e-06 4.269557772e-06 3.403070212e-06 2.745643996e-06 2.20153248e-06)
5(5.493068088e-06 4.304993094e-06 3.713880334e-06 2.880357982e-06 2.419882595e-06)
5(5.68473278e-06 4.256258036e-06 3.730827023e-06 2.752696648e-06 2.216906363e-06)
5(5.362961176e-06 4.193901515e-06 3.492326315e-06 2.518159329e-06 2.109245693e-06)
5(4.961521229e-06 4.117330905e-06 3.202882644e-06 2.390816275e-06 1.781415688e-06)
5(4.962701199e-06 3.961269211e-06 3.012617723e-06 2.27046068e-06 1.519415683e-06)
5(5.188386582e-06 3.772270058e-06 2.918604545e-06 2.04802702e-06 1.472971758e-06)
5(4.865428149e-06 3.63401834e-06 2.827312387e-06 1.870585326e-06 1.255269977e-06)
5(4.708846233e-06 3.397386683e-06 2.598660733e-06 1.724964986e-06 1.146100189e-06)
5(4.531774414e-06 3.13928844e-06 2.296970415e-06 1.48094422e-06 8.458043562e-07)
5(4.015645803e-06 2.867728058e-06 1.901395171e-06 1.125772037e-06 4.658478309e-07)
5(3.899546052e-06 2.368369077e-06 1.47164428e-06 7.411275352e-07 3.652799173e-07)
5(3.469168441e-06 1.873949974e-06 1.110941864e-06 3.12774681e-07 1.162950962e-07)
5(2.415224096e-06 1.455690997e-06 7.028407586e-07 -9.977258251e-08 -2.371595721e-07)
5(1.638798089e-06 8.853134994e-07 1.193615852e-07 -3.727253521e-07 -6.605597053e-07)
5(1.22446928e-06 1.591402185e-07 -5.121396571e-07 -6.165345655e-07 -8.045608787e-07)
5(4.129115311e-07 -5.554187024e-07 -9.906923085e-07 -8.781915541e-07 -6.231826608e-07)
5(-4.411566702e-07 -1.20929222e-06 -1.395035506e-06 -1.061160079e-06 -7.52382824e-07)
5(-1.470376197e-06 -1.856781766e-06 -1.774549077e-06 -1.106873266e-06 -4.521762277e-07)
5(-2.576417818e-06 -2.404646441e-06 -2.065356285e-06 -1.050904141e-06 -1.242208161e-07)
5(-3.363160674e-06 -2.828235429e-06 -2.096035825e-06 -7.546187066e-07 3.753614614e-07)
5(-4.151033195e-06 -3.077062325e-06 -1.867438008e-06 -1.634947533e-07 1.252350771e-06)
5(-4.929341306e-06 -3.12119613e-06 -1.515937852e-06 5.928616523e-07 2.176971625e-06)
5(-5.293708549e-06 -2.959307864e-06 -9.438985244e-07 1.54557286e-06 3.289019442e-06)
5(-5.501069614e-06 -2.485184917e-06 -4.177153505e-08 2.636757327e-06 4.404013418e-06)
5(-5.440761529e-06 -1.784628674e-06 1.0740542e-06 3.716423143e-06 5.413376257e-06)
5(-4.860292871e-06 -8.620778662e-07 2.233279772e-06 4.709767138e-06 6.080154716e-06)
5(-4.191198824e-06 1.931498931e-07 3.243129219e-06 5.402629028e-06 6.336202567e-06)
5(-3.220420745e-06 1.119164567e-06 3.897420551e-06 5.502753684e-06 5.644390854e-06)
5(-2.211804628e-06 1.79300527e-06 3.960345644e-06 4.77454307e-06 3.789145439e-06)
5(-1.577307451e-06 1.905634854e-06 3.211302735e-06 3.020295349e-06 7.366459399e-07)
5(-1.061414446e-06 1.219215224e-06 1.445995014e-06 8.121044724e-08 -3.16712893e-06)
5(-1.227120831e-06 -3.785184539e-07 -1.423503665e-06 -3.908432111e-06 -7.534110586e-06)
5(-2.401529681e-06 -2.979045638e-06 -5.226530825e-06 -8.498349455e-06 -1.186575315e-05)
5(-4.418785819e-06 -6.457199173e-06 -9.606792002e-06 -1.298274085e-05 -1.546577926e-05)
5(-7.280769598e-06 -1.039329314e-05 -1.394032897e-05 -1.656392086e-05 -1.781394051e-05)
5(-1.063325248e-05 -1.412583497e-05 -1.73928117e-05 -1.855476876e-05 -1.827461743e-05)
5(-1.387569001e-05 -1.696109682e-05 -1.911460311e-05 -1.860315056e-05 -1.678444636e-05)
5(-1.635075585e-05 -1.830856026e-05 -1.873943687e-05 -1.673733922e-05 -1.372537166e-05)
5(-1.747270239e-05 -1.774685894e-05 -1.643043112e-05 -1.3395426e-05 -9.876104528e-06)
5(-1.677638943e-05 -1.533394615e-05 -1.263776035e-05 -9.382594992e-06 -6.211886945e-06)
5(-1.44480722e-05 -1.168370922e-05 -8.401534646e-06 -5.680191109e-06 -3.338734602e-06)
5(-1.102604898e-05 -7.622053615e-06 -4.783115901e-06 -2.926210458e-06 -1.503556255e-06)
5(-7.157876595e-06 -4.120095885e-06 -2.261990192e-06 -1.227324302e-06 -5.537916494e-07)
5(-3.742181217e-06 -1.79953615e-06 -8.449799624e-07 -4.175831657e-07 -1.673932408e-07)
5(-1.522098564e-06 -5.965241993e-07 -2.339392381e-07 -1.088867249e-07 -3.953430223e-08)
5(-4.607295049e-07 -1.38969873e-07 -4.518362465e-08 -2.028758511e-08 -6.970256842e-09)
5(-8.277289892e-08 -2.010665066e-08 -5.935256718e-09 -2.534936293e-09 -9.227782812e-10)
5(-6.600656321e-09 -1.485557792e-09 -3.964142397e-10 2.302586173e-10 -6.242506102e-11)
5(-4.721015459e-10 1.695384172e-08 -1.408244106e-11 2.671421792e-10 -2.213253961e-12)
5(-1.251768908e-11 3.327100171e-08 9.741675179e-12 -2.985006384e-10 -3.771999673e-14)
)


60
(
5(9.154850562e-06 2.228647425e-05 -9.718183667e-06 -2.071217582e-06 -1.959718656e-05)
5(8.646184373e-06 1.885944699e-05 -4.346710462e-06 4.145736744e-07 -1.211421543e-05)
5(8.855308321e-06 1.318317421e-05 4.68974721e-06 4.730312141e-06 -1.685330714e-07)
5(1.166681977e-05 1.064215545e-05 1.021971394e-05 7.542211377e-06 6.881134827e-06)
5(1.465840774e-05 1.04363879e-05 1.191486268e-05 8.505593494e-06 9.902739177e-06)
5(1.428638815e-05 9.954818443e-06 1.032077686e-05 7.673951288e-06 8.672827373e-06)
5(1.157046955e-05 9.047891547e-06 7.787641327e-06 6.216136013e-06 5.567202539e-06)
5(9.691555916e-06 8.529107135e-06 6.262642563e-06 5.379733761e-06 3.908927375e-06)
5(9.590431291e-06 8.396818898e-06 6.132889448e-06 5.286979759e-06 3.943652521e-06)
5(9.963475793e-06 8.359882266e-06 6.703492475e-06 5.49604066e-06 4.485806741e-06)
5(1.033212206e-05 8.326206607e-06 7.101441056e-06 5.543411203e-06 4.694403799e-06)
5(1.039425771e-05 8.281781427e-06 7.059669172e-06 5.360099805e-06 4.494698933e-06)
5(1.049117817e-05 7.995758126e-06 6.73150042e-06 5.068049293e-06 3.985655822e-06)
5(9.86021058e-06 7.720880986e-06 6.381207029e-06 4.75332371e-06 3.57746896e-06)
5(9.021572991e-06 7.504002368e-06 6.125419929e-06 4.438224849e-06 3.383322046e-06)
5(9.39247837e-06 7.292508649e-06 5.744075867e-06 4.135803783e-06 2.896380813e-06)
5(9.304197058e-06 6.963801506e-06 5.238109987e-06 3.827716973e-06 2.480304183e-06)
5(8.763720401e-06 6.452680747e-06 4.855897706e-06 3.263384661e-06 2.072433335e-06)
5(8.328184622e-06 5.975965745e-06 4.318798074e-06 2.613776456e-06 1.576823709e-06)
5(7.737809342e-06 5.382020797e-06 3.552136007e-06 2.008566076e-06 8.959472094e-07)
5(6.721433085e-06 4.517856495e-06 2.772501905e-06 1.293079423e-06 3.851358444e-07)
5(5.892445459e-06 3.591916462e-06 1.959433722e-06 5.073305131e-07 -2.574145827e-07)
5(5.071542125e-06 2.556410725e-06 9.205750533e-07 -3.437122736e-07 -1.191398375e-06)
5(3.453737709e-06 1.335877432e-06 -2.883898328e-07 -1.245495432e-06 -1.870151818e-06)
5(1.921634443e-06 6.840560092e-08 -1.429636975e-06 -2.101618722e-06 -2.349173184e-06)
5(1.729127902e-07 -1.486743856e-06 -2.529317134e-06 -2.879084081e-06 -2.960216815e-06)
5(-1.644554568e-06 -3.072306588e-06 -3.694032798e-06 -3.604688492e-06 -3.505077682e-06)
5(-3.440957681e-06 -4.400904267e-06 -4.878206667e-06 -4.28479276e-06 -3.551794156e-06)
5(-5.303189885e-06 -5.8699843e-06 -5.894275555e-06 -4.774028118e-06 -3.442345875e-06)
5(-7.376706986e-06 -7.404330018e-06 -6.597769608e-06 -4.924827862e-06 -3.165449247e-06)
5(-9.864323991e-06 -8.558414563e-06 -7.055483298e-06 -4.757885546e-06 -2.469002213e-06)
5(-1.163301864e-05 -9.361468137e-06 -7.301789606e-06 -4.293321067e-06 -1.766595125e-06)
5(-1.297847445e-05 -9.82337712e-06 -7.201891943e-06 -3.493080279e-06 -7.839936171e-07)
5(-1.395007996e-05 -9.990619545e-06 -6.574451215e-06 -2.392768291e-06 6.969030843e-07)
5(-1.462151306e-05 -9.852130188e-06 -5.554780248e-06 -1.113267498e-06 2.05470819e-06)
5(-1.511917958e-05 -9.021164414e-06 -4.31797805e-06 2.4813345e-07 3.312912015e-06)
5(-1.479751716e-05 -7.87023296e-06 -2.926848748e-06 1.431242794e-06 4.199615437e-06)
5(-1.38261052e-05 -6.769786119e-06 -1.631516125e-06 2.20625212e-06 4.218227937e-06)
5(-1.249236789e-05 -5.444157417e-06 -7.143460087e-07 2.338456759e-06 3.058135159e-06)
5(-1.075629423e-05 -4.23191772e-06 -4.602719042e-07 1.474876265e-06 6.336673895e-07)
5(-9.144370711e-06 -3.635394398e-06 -1.145945101e-06 -6.366926318e-07 -2.78202307e-06)
5(-7.881145296e-06 -3.831230418e-06 -2.952424166e-06 -4.017345762e-06 -7.056754629e-06)
5(-7.076613946e-06 -5.11479291e-06 -5.896417562e-06 -8.377077488e-06 -1.182806962e-05)
5(-7.268958344e-06 -7.439606819e-06 -9.906576051e-06 -1.315245247e-05 -1.633857869e-05)
5(-8.547214369e-06 -1.055165233e-05 -1.430129886e-05 -1.755528478e-05 -1.998721011e-05)
5(-1.062987891e-05 -1.412608126e-05 -1.834217949e-05 -2.074979755e-05 -2.198708699e-05)
5(-1.332020427e-05 -1.745783218e-05 -2.131669518e-05 -2.216646379e-05 -2.184024768e-05)
5(-1.610969206e-05 -1.985526257e-05 -2.226768676e-05 -2.148651601e-05 -1.953488965e-05)
5(-1.823330655e-05 -2.070998611e-05 -2.094139193e-05 -1.868803371e-05 -1.563413487e-05)
5(-1.905712225e-05 -1.960284324e-05 -1.765167342e-05 -1.448159156e-05 -1.101890541e-05)
5(-1.824273977e-05 -1.667924301e-05 -1.314744896e-05 -9.867962155e-06 -6.703938688e-06)
5(-1.578708562e-05 -1.239778548e-05 -8.459508983e-06 -5.778588296e-06 -3.524239375e-06)
5(-1.217560602e-05 -7.870240713e-06 -4.572919617e-06 -2.838139111e-06 -1.54721932e-06)
5(-8.142656724e-06 -4.2343494e-06 -2.000838384e-06 -1.111988437e-06 -5.244564718e-07)
5(-4.395178223e-06 -1.810957556e-06 -6.681823393e-07 -3.358722119e-07 -1.509713154e-07)
5(-1.842828702e-06 -5.582280718e-07 -1.618693587e-07 -7.169539742e-08 -3.005395769e-08)
5(-6.195011393e-07 -1.179202241e-07 -2.473730338e-08 -1.044885444e-08 -3.545990927e-09)
5(-1.248121496e-07 -1.411488486e-08 -1.911893236e-09 -7.497736515e-10 -3.247330147e-10)
5(-1.169822763e-08 -9.342824237e-10 3.702585095e-09 -3.401174417e-11 -1.165590246e-11)
5(1.169516455e-10 -5.611501756e-10 7.578365671e-09 -3.714108619e-10 -1.844770576e-13)
)


60
(
5(2.35342877e-05 3.920325758e-05 -5.210902409e-06 2.249757944e-06 -2.051216622e-05)
5(2.06542286e-05 3.318672873e-05 8.162724814e-07 5.049042462e-06 -1.160040933e-05)
5(1.752819981e-05 2.29078366e-05 1.111618743e-05 9.983607396e-06 3.145370796e-06)
5(1.991906513e-05 1.795078701e-05 1.750047748e-05 1.325839039e-05 1.228806809e-05)
5(2.370959853e-05 1.748293322e-05 1.920160263e-05 1.429884576e-05 1.60221699e-05)
5(2.272211668e-05 1.679829902e-05 1.691004805e-05 1.300166881e-05 1.416079997e-05)
5(1.892298538e-05 1.532738028e-05 1.339992316e-05 1.087972737e-05 9.779935888e-06)
5(1.656981377e-05 1.454016649e-05 1.118614565e-05 9.630770533e-06 7.352872757e-06)
5(1.623500061e-05 1.421536201e-05 1.089056423e-05 9.418311676e-06 7.212590627e-06)
5(1.685033235e-05 1.42032114e-05 1.161659041e-05 9.619992849e-06 7.972520764e-06)
5(1.707965442e-05 1.415421712e-05 1.212426864e-05 9.62849766e-06 8.211817006e-06)
5(1.719356405e-05 1.389677594e-05 1.199912118e-05 9.302321965e-06 7.806406493e-06)
5(1.665905172e-05 1.357051098e-05 1.142192279e-05 8.767764201e-06 7.025335351e-06)
5(1.624192406e-05 1.318404748e-05 1.077745493e-05 8.233980847e-06 6.332798045e-06)
5(1.607898439e-05 1.278177239e-05 1.029505595e-05 7.712846545e-06 5.747928346e-06)
5(1.550918336e-05 1.225448226e-05 9.798509238e-06 7.151484776e-06 5.186737358e-06)
5(1.535342947e-05 1.17072125e-05 9.200400795e-06 6.459646473e-06 4.6251909e-06)
5(1.446228408e-05 1.103203834e-05 8.367639911e-06 5.663407018e-06 3.654989937e-06)
5(1.363173099e-05 1.01171676e-05 7.342338076e-06 4.787037073e-06 2.880975668e-06)
5(1.288350848e-05 9.016852485e-06 6.171258364e-06 3.689762943e-06 1.666352492e-06)
5(1.110433094e-05 7.6509952e-06 4.776797623e-06 2.405260962e-06 4.819550958e-07)
5(9.93853123e-06 6.137315386e-06 3.290306822e-06 9.115535904e-07 -6.999143295e-07)
5(8.366096721e-06 4.425207879e-06 1.602815793e-06 -6.960452571e-07 -2.10664018e-06)
5(5.537124133e-06 2.349827604e-06 -3.261882587e-07 -2.2218538e-06 -3.378915179e-06)
5(3.237996412e-06 -2.366959099e-08 -2.299408847e-06 -3.790659761e-06 -4.701753764e-06)
5(1.084233537e-06 -2.452068419e-06 -4.380002436e-06 -5.443581195e-06 -5.96230473e-06)
5(-2.21015961e-06 -4.935988861e-06 -6.717544294e-06 -6.99863759e-06 -6.916668719e-06)
5(-6.387872346e-06 -7.70893722e-06 -9.037845778e-06 -8.502450537e-06 -7.955233214e-06)
5(-9.653068708e-06 -1.061761746e-05 -1.100763871e-05 -9.925159221e-06 -8.773925894e-06)
5(-1.279749146e-05 -1.315979479e-05 -1.273873066e-05 -1.09217965e-05 -8.782538699e-06)
5(-1.650819196e-05 -1.53894386e-05 -1.435898922e-05 -1.145869233e-05 -8.65418783e-06)
5(-1.996410713e-05 -1.772564189e-05 -1.548803314e-05 -1.161415095e-05 -8.281579426e-06)
5(-2.344555182e-05 -1.953724769e-05 -1.603690076e-05 -1.130315387e-05 -7.071467979e-06)
5(-2.578725462e-05 -2.056923088e-05 -1.605535049e-05 -1.048784164e-05 -5.854041084e-06)
5(-2.78013044e-05 -2.106421799e-05 -1.546616929e-05 -9.209618134e-06 -4.445601394e-06)
5(-2.894970983e-05 -2.080706504e-05 -1.438825213e-05 -7.632339445e-06 -2.538689146e-06)
5(-2.918937641e-05 -2.007107e-05 -1.278206701e-05 -5.970218984e-06 -9.952989352e-07)
5(-2.873353595e-05 -1.877626027e-05 -1.101280602e-05 -4.420825364e-06 -9.250551791e-08)
5(-2.701601785e-05 -1.674141931e-05 -9.376514442e-06 -3.291588592e-06 -2.806269531e-07)
5(-2.484197678e-05 -1.457608157e-05 -7.870438087e-06 -2.995225735e-06 -1.591323422e-06)
5(-2.198648563e-05 -1.259032565e-05 -6.982517557e-06 -3.803933159e-06 -4.068505971e-06)
5(-1.871494301e-05 -1.098014779e-05 -7.109835073e-06 -5.923754466e-06 -7.626241748e-06)
5(-1.572114529e-05 -1.029529444e-05 -8.521739016e-06 -9.330254826e-06 -1.202780178e-05)
5(-1.351780953e-05 -1.06026843e-05 -1.127226914e-05 -1.359645994e-05 -1.68310225e-05)