/*--------------------------------*- C++ -*----------------------------------*\
| =========                 |                                                 |
| \\      /  F ield         | OpenFOAM: The Open Source CFD Toolbox           |
|  \\    /   O peration     | Version:  2.3.1                                 |
|   \\  /    A nd           | Web:      www.OpenFOAM.org                      |
|    \\/     M anipulation  |                                                 |
\*---------------------------------------------------------------------------*/
FoamFile
{
    version     2.0;
    format      ascii;
    class       dictionary;
    location    "constant";
    object      GRPSI39;
}
// * * * * * * * * * * * * * * * * * * * * * * * * * * * * * * * * * * * * * //

GRPSI39_table
60
(

60
(
5(2.337554155e-08 1.716711447e-08 2.307430331e-08 1.801594847e-08 1.137959028e-08)
5(2.203117962e-08 2.254791943e-08 2.151142252e-08 1.951796393e-08 1.513885828e-08)
5(2.353931091e-08 2.231137027e-08 2.146663321e-08 2.100258173e-08 1.878542568e-08)
5(2.301626737e-08 2.264465705e-08 2.124526406e-08 2.222632536e-08 1.65558264e-08)
5(2.489099653e-08 2.357266742e-08 2.256438652e-08 2.129015536e-08 1.774892346e-08)
5(2.577174291e-08 2.40476654e-08 2.530928171e-08 2.105953714e-08 1.808460556e-08)
5(2.493848828e-08 2.35507685e-08 2.449905719e-08 2.075290903e-08 1.597301712e-08)
5(2.496377617e-08 2.216842263e-08 2.209263546e-08 1.884535455e-08 1.627519467e-08)
5(2.247183713e-08 2.010673811e-08 2.030134882e-08 1.666935461e-08 1.390993064e-08)
5(2.000615404e-08 1.736682649e-08 1.738907017e-08 1.432170989e-08 1.17539419e-08)
5(1.713932255e-08 1.434774705e-08 1.450932565e-08 1.160348552e-08 9.512754954e-09)
5(1.377241868e-08 1.152454504e-08 1.160612348e-08 8.973763975e-09 7.361448272e-09)
5(1.120619045e-08 8.761113519e-09 8.793546307e-09 6.57141927e-09 5.395126309e-09)
5(8.43326676e-09 6.499457414e-09 6.411550793e-09 4.755139883e-09 3.859622035e-09)
5(6.379093621e-09 4.824859489e-09 4.655380151e-09 3.38671607e-09 2.735499959e-09)
5(4.757783545e-09 3.379237711e-09 3.364046511e-09 2.432296818e-09 1.967048007e-09)
5(3.673560309e-09 2.619681793e-09 2.518083032e-09 1.858543468e-09 1.477962035e-09)
5(2.950806213e-09 2.124102057e-09 2.010175998e-09 1.475333417e-09 1.159913984e-09)
5(2.437725549e-09 1.805137277e-09 1.631414134e-09 1.209990534e-09 9.420185699e-10)
5(2.042687276e-09 1.560981838e-09 1.36206135e-09 1.020291048e-09 8.011317962e-10)
5(1.755981057e-09 1.36044427e-09 1.182377027e-09 8.991194576e-10 7.122635278e-10)
5(1.544075212e-09 1.215525142e-09 1.052698322e-09 8.301246143e-10 6.610838083e-10)
5(1.387591786e-09 1.116615263e-09 9.750843734e-10 7.819621964e-10 6.312553113e-10)
5(1.279142874e-09 1.057111931e-09 9.388491469e-10 7.770161539e-10 6.37142105e-10)
5(1.213730163e-09 1.039812957e-09 9.404445861e-10 8.047849347e-10 6.726677493e-10)
5(1.194205278e-09 1.06538703e-09 9.827211869e-10 8.74376991e-10 7.490434165e-10)
5(1.221951623e-09 1.152559416e-09 1.09140848e-09 1.0000776e-09 8.737868329e-10)
5(1.310149082e-09 1.308610353e-09 1.259330776e-09 1.19643666e-09 1.062275664e-09)
5(1.459243635e-09 1.538256712e-09 1.528445714e-09 1.49131553e-09 1.336378264e-09)
5(1.704539992e-09 1.877167517e-09 1.919762178e-09 1.920392737e-09 1.730173147e-09)
5(2.070903912e-09 2.367245247e-09 2.46598277e-09 2.499007109e-09 2.265646716e-09)
5(2.608965925e-09 3.076019715e-09 3.252294015e-09 3.328343257e-09 3.025849925e-09)
5(3.373941865e-09 4.032484815e-09 4.301550772e-09 4.408541494e-09 3.954303737e-09)
5(4.422543041e-09 5.321732987e-09 5.683223974e-09 5.830977786e-09 5.219830988e-09)
5(5.851952133e-09 7.068449957e-09 7.536586234e-09 7.605839426e-09 6.707457144e-09)
5(7.763769921e-09 9.227585372e-09 9.720618746e-09 9.735086686e-09 8.415304153e-09)
5(1.024847717e-08 1.212304227e-08 1.274983805e-08 1.227351411e-08 1.026897884e-08)
5(1.336133519e-08 1.536952678e-08 1.598165218e-08 1.486854845e-08 1.227378328e-08)
5(1.706828348e-08 1.915334267e-08 1.932876342e-08 1.748654672e-08 1.360594495e-08)
5(2.11683055e-08 2.312222752e-08 2.249185001e-08 1.954812346e-08 1.455150154e-08)
5(2.570485135e-08 2.707669714e-08 2.548146656e-08 2.079973244e-08 1.412821508e-08)
5(3.014449243e-08 3.026846853e-08 2.723529476e-08 2.070998918e-08 1.258820435e-08)
5(3.375381539e-08 3.224819643e-08 2.743688647e-08 1.915661885e-08 1.022471563e-08)
5(3.580900388e-08 3.18541986e-08 2.508864126e-08 1.581838427e-08 7.498565743e-09)
5(3.566836169e-08 2.962023671e-08 2.16426493e-08 1.171465294e-08 4.892086853e-09)
5(3.328200128e-08 2.517434069e-08 1.68686467e-08 7.692728391e-09 2.773053583e-09)
5(2.845995355e-08 1.952061938e-08 1.143888125e-08 4.427718705e-09 1.342729119e-09)
5(2.16790286e-08 1.351253453e-08 6.687580222e-09 2.195155644e-09 5.51683771e-10)
5(1.496323172e-08 8.001660269e-09 3.306983531e-09 9.19306396e-10 1.937281245e-10)
5(8.762846246e-09 3.979525779e-09 1.37406069e-09 3.186422421e-10 6.02239423e-11)
5(4.311591288e-09 1.60808913e-09 4.587475905e-10 9.530040595e-11 1.658753851e-11)
5(1.662287293e-09 5.165458328e-10 1.263757792e-10 2.470940502e-11 4.133096317e-12)
5(5.170668634e-10 1.304341846e-10 2.927279917e-11 5.604223982e-12 9.172008997e-13)
5(1.081109891e-10 2.411263569e-11 5.282051734e-12 1.085081319e-12 1.817693621e-13)
5(1.56299557e-11 3.631868426e-12 7.776195752e-13 1.712533609e-13 2.899257094e-14)
5(1.343414115e-12 3.337683279e-13 8.785076103e-14 1.998785116e-14 3.713897063e-15)
5(7.756516094e-14 2.501282314e-14 5.217768214e-15 1.583994198e-15 2.795571691e-16)
5(2.229414852e-15 1.283609284e-15 1.79714216e-16 9.201814536e-15 1.841617237e-17)
5(1.154663761e-17 -1.870829825e-14 1.078717352e-16 -1.380306163e-14 1.144356456e-17)
5(1.290772708e-18 2.494546922e-18 1.102074442e-12 7.119208799e-18 1.246478207e-17)
)


60
(
5(3.046817455e-08 2.170776923e-08 2.747405951e-08 1.962456504e-08 1.093851569e-08)
5(3.089961822e-08 2.757465598e-08 2.599079617e-08 2.069329377e-08 1.35225572e-08)
5(3.219575767e-08 2.93887361e-08 2.606996299e-08 2.171467482e-08 1.581947981e-08)
5(3.302081625e-08 3.060660937e-08 2.658866077e-08 2.253472696e-08 1.48325095e-08)
5(3.528958963e-08 3.177218234e-08 2.789632944e-08 2.215644011e-08 1.534032513e-08)
5(3.72138779e-08 3.242076013e-08 2.964966319e-08 2.193350114e-08 1.538075057e-08)
5(3.726487926e-08 3.203950693e-08 2.898265488e-08 2.144152841e-08 1.416205158e-08)
5(3.669439144e-08 3.059694993e-08 2.702869936e-08 1.991061528e-08 1.40662908e-08)
5(3.396432278e-08 2.821643614e-08 2.493777252e-08 1.801013322e-08 1.253390843e-08)
5(3.095414204e-08 2.505874602e-08 2.199492522e-08 1.581781733e-08 1.096901658e-08)
5(2.715821735e-08 2.136425519e-08 1.876719228e-08 1.327351819e-08 9.262086199e-09)
5(2.270088492e-08 1.753590543e-08 1.538772393e-08 1.06674585e-08 7.51778844e-09)
5(1.840642935e-08 1.371540113e-08 1.203695119e-08 8.194237766e-09 5.828407788e-09)
5(1.426174327e-08 1.037534818e-08 9.056869856e-09 6.127728467e-09 4.38416997e-09)
5(1.079238871e-08 7.747916468e-09 6.675936095e-09 4.497539129e-09 3.229610546e-09)
5(8.127622954e-09 5.675521113e-09 4.898498746e-09 3.302448012e-09 2.393714989e-09)
5(6.210847489e-09 4.344078639e-09 3.674429137e-09 2.506667107e-09 1.820354991e-09)
5(4.882396451e-09 3.429267498e-09 2.869700231e-09 1.965683141e-09 1.434385817e-09)
5(3.949801457e-09 2.80049758e-09 2.295915051e-09 1.594426908e-09 1.168885482e-09)
5(3.257548614e-09 2.342271018e-09 1.892595052e-09 1.332807572e-09 9.892103092e-10)
5(2.767629662e-09 1.996028946e-09 1.611418527e-09 1.154524705e-09 8.675431197e-10)
5(2.372027067e-09 1.740260066e-09 1.408560655e-09 1.036819723e-09 7.907973192e-10)
5(2.089059689e-09 1.554376437e-09 1.268366997e-09 9.540043017e-10 7.430933501e-10)
5(1.870296249e-09 1.423677584e-09 1.17875585e-09 9.139816051e-10 7.281573733e-10)
5(1.721017619e-09 1.343195383e-09 1.133674564e-09 9.096510382e-10 7.434315222e-10)
5(1.618674486e-09 1.309203113e-09 1.132242269e-09 9.45567717e-10 7.958110822e-10)
5(1.571639852e-09 1.329685399e-09 1.185501664e-09 1.027575973e-09 8.901933255e-10)
5(1.584415531e-09 1.406548257e-09 1.290016762e-09 1.169790989e-09 1.041708561e-09)
5(1.645103811e-09 1.547661473e-09 1.475648685e-09 1.39195339e-09 1.268576092e-09)
5(1.790319904e-09 1.774565197e-09 1.760453871e-09 1.723301197e-09 1.602129123e-09)
5(2.023707973e-09 2.117688734e-09 2.169052883e-09 2.184382895e-09 2.057676043e-09)
5(2.387091952e-09 2.624702832e-09 2.765126544e-09 2.846487742e-09 2.709840451e-09)
5(2.919288501e-09 3.32720065e-09 3.581268768e-09 3.73396462e-09 3.535350298e-09)
5(3.666731892e-09 4.288434017e-09 4.678436409e-09 4.90873473e-09 4.670158205e-09)
5(4.691603917e-09 5.596591821e-09 6.151620042e-09 6.419008646e-09 6.047242642e-09)
5(6.083895421e-09 7.269262864e-09 7.968073716e-09 8.29160002e-09 7.7118715e-09)
5(7.927047653e-09 9.492583965e-09 1.041581073e-08 1.057473046e-08 9.622070699e-09)
5(1.021844439e-08 1.211007872e-08 1.318862947e-08 1.308476247e-08 1.173342598e-08)
5(1.306669144e-08 1.525885583e-08 1.623590551e-08 1.576908028e-08 1.357516032e-08)
5(1.631134454e-08 1.869523105e-08 1.937795852e-08 1.82568194e-08 1.518938555e-08)
5(1.998476541e-08 2.233287212e-08 2.254089012e-08 2.026352445e-08 1.585699873e-08)
5(2.385084768e-08 2.563207118e-08 2.494211453e-08 2.131803815e-08 1.553142179e-08)
5(2.732452808e-08 2.821472816e-08 2.623619929e-08 2.110218515e-08 1.417219303e-08)
5(2.988268299e-08 2.926935241e-08 2.564911421e-08 1.92141086e-08 1.19378643e-08)
5(3.104760842e-08 2.866547294e-08 2.365889779e-08 1.608814724e-08 9.185797758e-09)
5(3.044147256e-08 2.606857166e-08 2.005382092e-08 1.225682542e-08 6.341958099e-09)
5(2.766435671e-08 2.190629705e-08 1.526526796e-08 8.372452261e-09 3.881611288e-09)
5(2.296811566e-08 1.668300529e-08 1.033056528e-08 5.057674284e-09 2.05826615e-09)
5(1.738208438e-08 1.122124662e-08 6.092830673e-09 2.663663297e-09 9.358272362e-10)
5(1.156705495e-08 6.555660028e-09 3.081472209e-09 1.177271359e-09 3.59810867e-10)
5(6.631655661e-09 3.214262807e-09 1.298706144e-09 4.40196799e-10 1.152889588e-10)
5(3.124759855e-09 1.275059239e-09 4.377387976e-10 1.321375839e-10 3.248182077e-11)
5(1.152967368e-09 3.950988821e-10 1.164019013e-10 3.261323151e-11 7.717898945e-12)
5(3.061832058e-10 9.044251658e-11 2.270690036e-11 6.219487208e-12 1.523962322e-12)
5(5.71915084e-11 1.455657756e-11 3.402741945e-12 1.001322075e-12 2.621096252e-13)
5(6.187672853e-12 1.566954546e-12 3.416412543e-13 1.188631424e-13 3.163101278e-14)
5(3.896344045e-13 8.167777255e-14 2.368174438e-14 7.657069592e-15 2.382822071e-15)
5(7.439657986e-15 -2.575940792e-13 1.498119941e-15 -2.093052931e-13 1.179083019e-16)
5(5.481764214e-17 -1.100668231e-10 -9.591161263e-16 -7.00820414e-11 2.238343971e-17)
5(6.544730011e-18 8.854654673e-18 1.213105766e-12 1.716920308e-17 2.480378769e-17)
)


60
(
5(4.585381847e-08 3.249268887e-08 3.605850034e-08 2.293183477e-08 1.043897892e-08)
5(5.133269096e-08 4.154592096e-08 3.601205985e-08 2.396397147e-08 1.168660607e-08)
5(5.474083689e-08 4.697476869e-08 3.699521813e-08 2.48084032e-08 1.257018069e-08)
5(5.790235921e-08 4.987675282e-08 3.865240263e-08 2.543371766e-08 1.296865279e-08)
5(6.187537407e-08 5.17938438e-08 4.024876796e-08 2.577636057e-08 1.310497283e-08)
5(6.555710969e-08 5.293526249e-08 4.105733148e-08 2.572638509e-08 1.317202928e-08)
5(6.673045428e-08 5.258694972e-08 4.053885712e-08 2.519375991e-08 1.311061688e-08)
5(6.534715443e-08 5.0932546e-08 3.892960229e-08 2.417238465e-08 1.28297004e-08)
5(6.23405985e-08 4.796016508e-08 3.638653041e-08 2.264058188e-08 1.231012349e-08)
5(5.781164826e-08 4.368230192e-08 3.312853866e-08 2.064852548e-08 1.151701109e-08)
5(5.15379141e-08 3.843578935e-08 2.923769879e-08 1.824348579e-08 1.046391612e-08)
5(4.45381056e-08 3.243425105e-08 2.484595022e-08 1.551865663e-08 9.16093402e-09)
5(3.682963823e-08 2.628408799e-08 2.023657825e-08 1.26746937e-08 7.683586749e-09)
5(2.929043488e-08 2.052561282e-08 1.587164688e-08 9.975574796e-09 6.223449646e-09)
5(2.246497526e-08 1.564963154e-08 1.208316036e-08 7.661531462e-09 4.867533685e-09)
5(1.710410273e-08 1.184070076e-08 9.096111057e-09 5.825204494e-09 3.781257403e-09)
5(1.305888531e-08 9.003630041e-09 6.892645672e-09 4.460556465e-09 2.946286323e-09)
5(1.010862395e-08 6.988526131e-09 5.333438772e-09 3.497573733e-09 2.351915248e-09)
5(8.044423224e-09 5.570011089e-09 4.240537966e-09 2.822492199e-09 1.930021762e-09)
5(6.557361806e-09 4.564426885e-09 3.472052309e-09 2.346580177e-09 1.629548171e-09)
5(5.46845547e-09 3.83222111e-09 2.916226132e-09 2.004160927e-09 1.418475299e-09)
5(4.635993493e-09 3.28388115e-09 2.512909654e-09 1.759469409e-09 1.271843167e-09)
5(4.015194725e-09 2.875439044e-09 2.219719108e-09 1.581622467e-09 1.171347565e-09)
5(3.537777034e-09 2.571127821e-09 2.007747269e-09 1.458060895e-09 1.108806429e-09)
5(3.168884778e-09 2.345801155e-09 1.853771202e-09 1.381841321e-09 1.07464014e-09)
5(2.896493255e-09 2.180658939e-09 1.754650022e-09 1.346224799e-09 1.07958335e-09)
5(2.692023684e-09 2.070798855e-09 1.705821929e-09 1.352377755e-09 1.12367728e-09)
5(2.556783158e-09 2.013462352e-09 1.705063294e-09 1.404529848e-09 1.209772718e-09)
5(2.469200137e-09 2.009762154e-09 1.759045683e-09 1.514121305e-09 1.360204003e-09)
5(2.441611041e-09 2.064380431e-09 1.880835165e-09 1.695973387e-09 1.583126365e-09)
5(2.476433755e-09 2.188428355e-09 2.087926781e-09 1.976331097e-09 1.922717501e-09)
5(2.58431269e-09 2.402396803e-09 2.409052008e-09 2.388911633e-09 2.400850228e-09)
5(2.77923742e-09 2.7330871e-09 2.877880816e-09 2.97809196e-09 3.066535837e-09)
5(3.089666695e-09 3.220407593e-09 3.543892496e-09 3.786178914e-09 3.967898067e-09)
5(3.545709001e-09 3.908516585e-09 4.461973682e-09 4.889379213e-09 5.184274473e-09)
5(4.18581602e-09 4.859619755e-09 5.697606037e-09 6.34772778e-09 6.707404387e-09)
5(5.06855764e-09 6.129063422e-09 7.327474995e-09 8.213772496e-09 8.625881357e-09)
5(6.284172869e-09 7.804952758e-09 9.40078853e-09 1.051620068e-08 1.089958742e-08)
5(7.855403138e-09 9.951682991e-09 1.196009136e-08 1.32285879e-08 1.341454829e-08)
5(9.853743365e-09 1.256634982e-08 1.496613e-08 1.623842094e-08 1.600233034e-08)
5(1.23526464e-08 1.568744037e-08 1.828901218e-08 1.930989348e-08 1.828572793e-08)
5(1.528626001e-08 1.907627415e-08 2.160710752e-08 2.205403056e-08 1.992815641e-08)
5(1.85768938e-08 2.251377562e-08 2.453669544e-08 2.39744094e-08 2.040555216e-08)
5(2.192714596e-08 2.556598671e-08 2.652952349e-08 2.451827886e-08 1.951077048e-08)
5(2.50252847e-08 2.75804298e-08 2.70396137e-08 2.33478411e-08 1.719995981e-08)
5(2.723772769e-08 2.804291244e-08 2.56387464e-08 2.043963342e-08 1.374194744e-08)
5(2.793344298e-08 2.659786198e-08 2.231786129e-08 1.624729852e-08 9.856991672e-09)
5(2.681609959e-08 2.317349143e-08 1.757490979e-08 1.150158464e-08 6.200094946e-09)
5(2.360478797e-08 1.820101047e-08 1.22209475e-08 7.133754468e-09 3.398249065e-09)
5(1.881452604e-08 1.263998864e-08 7.277384796e-09 3.772252272e-09 1.577418544e-09)
5(1.32327729e-08 7.520422882e-09 3.691159546e-09 1.69481247e-09 6.119888814e-10)
5(7.967396095e-09 3.654496309e-09 1.529150681e-09 6.080048283e-10 1.917152128e-10)
5(3.832856613e-09 1.423679573e-09 4.927896886e-10 1.755778739e-10 5.050511855e-11)
5(1.420909602e-09 4.153043827e-10 1.155435294e-10 3.899313464e-11 1.062721834e-11)
5(3.894559404e-10 8.337985169e-11 1.8527885e-11 6.263048879e-12 1.753915276e-12)
5(6.167952364e-11 1.018900264e-11 2.048358946e-12 7.075216109e-13 2.316902237e-13)
5(4.055204099e-12 8.442659935e-13 1.184622286e-13 5.724726248e-14 1.645694397e-14)
5(2.638744447e-13 1.05152239e-12 -9.622631466e-15 1.286300075e-12 6.783722073e-16)
5(3.023543563e-15 4.961350834e-10 -5.09462236e-12 5.251682801e-10 5.931206297e-17)
5(9.846127926e-17 6.583026434e-13 -5.510377126e-13 5.23431797e-16 6.32296642e-17)
)


60
(
5(6.302068285e-08 4.53827165e-08 4.363949699e-08 2.581177277e-08 1.041890326e-08)
5(7.567673224e-08 5.951981681e-08 4.617284804e-08 2.758429686e-08 1.153249351e-08)
5(8.373183307e-08 6.78708795e-08 4.873923339e-08 2.899637885e-08 1.246414223e-08)
5(8.934408403e-08 7.233267651e-08 5.120477953e-08 3.005641568e-08 1.321712198e-08)
5(9.539234804e-08 7.514520603e-08 5.315622742e-08 3.077365938e-08 1.390145678e-08)
5(1.002937324e-07 7.670390131e-08 5.403955826e-08 3.111392382e-08 1.45466415e-08)
5(1.020979572e-07 7.645250144e-08 5.363488114e-08 3.096963719e-08 1.499000734e-08)
5(1.005539325e-07 7.455465871e-08 5.204974595e-08 3.0298448e-08 1.513541819e-08)
5(9.667846327e-08 7.106338649e-08 4.945800812e-08 2.910375931e-08 1.496897253e-08)
5(9.061999813e-08 6.598183518e-08 4.591589969e-08 2.73370001e-08 1.450601695e-08)
5(8.20613096e-08 5.920393831e-08 4.151306644e-08 2.497827788e-08 1.364948976e-08)
5(7.197178095e-08 5.135937974e-08 3.63009104e-08 2.206133911e-08 1.241629668e-08)
5(6.088504624e-08 4.286886133e-08 3.061475054e-08 1.878211745e-08 1.087806409e-08)
5(4.971706962e-08 3.450180312e-08 2.48682418e-08 1.542947326e-08 9.172826901e-09)
5(3.909554372e-08 2.697269733e-08 1.964538994e-08 1.23084225e-08 7.523869268e-09)
5(3.014052681e-08 2.075954276e-08 1.523104248e-08 9.65080645e-09 6.052154933e-09)
5(2.316406164e-08 1.594842794e-08 1.173552872e-08 7.560848972e-09 4.833929177e-09)
5(1.790035266e-08 1.239389376e-08 9.14622266e-09 6.005695335e-09 3.923330089e-09)
5(1.415505143e-08 9.850541907e-09 7.300925517e-09 4.866735502e-09 3.246552644e-09)
5(1.144919308e-08 8.027626288e-09 5.975644526e-09 4.052266271e-09 2.76286923e-09)
5(9.455330071e-09 6.704459278e-09 5.020542955e-09 3.462884244e-09 2.404673161e-09)
5(8.012816728e-09 5.727997691e-09 4.323813271e-09 3.031170171e-09 2.154421988e-09)
5(6.908236281e-09 4.998937912e-09 3.808937338e-09 2.715783223e-09 1.968680116e-09)
5(6.085340589e-09 4.448810624e-09 3.423120903e-09 2.482589766e-09 1.836614913e-09)
5(5.4097824e-09 4.031845471e-09 3.136069818e-09 2.314789773e-09 1.748067772e-09)
5(4.925473974e-09 3.71528365e-09 2.928280727e-09 2.199596689e-09 1.703756203e-09)
5(4.523782047e-09 3.464403427e-09 2.781592577e-09 2.134060472e-09 1.692820422e-09)
5(4.22797952e-09 3.288698548e-09 2.68809395e-09 2.111631146e-09 1.724821351e-09)
5(4.013003226e-09 3.169732431e-09 2.644257776e-09 2.138638814e-09 1.808882776e-09)
5(3.859011002e-09 3.103451366e-09 2.655849701e-09 2.220487219e-09 1.953334186e-09)
5(3.75749105e-09 3.090113804e-09 2.732438766e-09 2.373253125e-09 2.191316931e-09)
5(3.703649034e-09 3.128418832e-09 2.881406097e-09 2.626321301e-09 2.552013615e-09)
5(3.70531217e-09 3.244211285e-09 3.132680317e-09 3.004900601e-09 3.045693437e-09)
5(3.769440191e-09 3.458009739e-09 3.522713102e-09 3.56380391e-09 3.754609243e-09)
5(3.921855246e-09 3.78955694e-09 4.085801167e-09 4.351520372e-09 4.742713373e-09)
5(4.179645599e-09 4.29133129e-09 4.89776424e-09 5.440251034e-09 6.054721793e-09)
5(4.553108751e-09 5.024617144e-09 6.038738563e-09 6.914442715e-09 7.782126993e-09)
5(5.162750946e-09 6.067674116e-09 7.591891855e-09 8.866509511e-09 9.990776901e-09)
5(6.013219626e-09 7.523406556e-09 9.656797954e-09 1.134398536e-08 1.265282905e-08)
5(7.259845011e-09 9.494560639e-09 1.226220466e-08 1.434901569e-08 1.56545131e-08)
5(9.000941862e-09 1.206377075e-08 1.54329066e-08 1.778793727e-08 1.8821297e-08)
5(1.128225417e-08 1.521739441e-08 1.906383429e-08 2.137945714e-08 2.175519998e-08)
5(1.424602754e-08 1.891288659e-08 2.284796865e-08 2.469146057e-08 2.387558263e-08)
5(1.781858065e-08 2.285268873e-08 2.633147659e-08 2.712452129e-08 2.476160974e-08)
5(2.17735116e-08 2.65777793e-08 2.883336827e-08 2.802199679e-08 2.39476979e-08)
5(2.571343707e-08 2.943238424e-08 2.975949954e-08 2.694308824e-08 2.139783635e-08)
5(2.912181269e-08 3.066715942e-08 2.850885415e-08 2.388170519e-08 1.73641569e-08)
5(3.11461145e-08 2.981570288e-08 2.495381536e-08 1.912897834e-08 1.261367831e-08)
5(3.10040278e-08 2.656029762e-08 1.968566638e-08 1.361816728e-08 8.0406252e-09)
5(2.844820164e-08 2.131925134e-08 1.369429006e-08 8.510075707e-09 4.394988484e-09)
5(2.360390487e-08 1.504515802e-08 8.185050376e-09 4.499816246e-09 2.037174421e-09)
5(1.739607934e-08 8.98024457e-09 4.065949387e-09 1.978865699e-09 7.876555462e-10)
5(1.098537628e-08 4.51705871e-09 1.619094217e-09 6.790014428e-10 2.306362426e-10)
5(5.675539259e-09 1.80149431e-09 4.841968265e-10 1.782589958e-10 5.775273342e-11)
5(2.200847666e-09 5.081059732e-10 1.029705292e-10 3.246166701e-11 1.00865181e-11)
5(7.01077093e-10 9.804626483e-11 1.372014814e-11 4.073455276e-12 1.073986608e-12)
5(1.295678361e-10 1.079698652e-11 9.103997529e-13 3.332747283e-13 9.677336009e-14)
5(1.174993278e-11 1.665166487e-12 3.534504314e-14 9.244579339e-13 3.669952507e-15)
5(7.486505046e-13 3.753867582e-10 1.997778457e-15 2.600091271e-10 1.449613592e-16)
5(8.967966416e-13 3.070814913e-15 4.570236443e-12 1.067899487e-16 1.261362268e-16)
)


60
(
5(8.060978717e-08 5.830299246e-08 4.961022933e-08 2.771918826e-08 1.055955886e-08)
5(1.011489894e-07 7.68214325e-08 5.430935723e-08 3.005599989e-08 1.173427655e-08)
5(1.138102315e-07 8.767061522e-08 5.826798506e-08 3.200851655e-08 1.292807692e-08)
5(1.220657572e-07 9.323901948e-08 6.14102414e-08 3.355056314e-08 1.40996596e-08)
5(1.296875649e-07 9.667254375e-08 6.359264286e-08 3.474121548e-08 1.526285259e-08)
5(1.357064556e-07 9.874008523e-08 6.464472071e-08 3.559433769e-08 1.638798815e-08)
5(1.375559813e-07 9.878584466e-08 6.460827023e-08 3.601576791e-08 1.730356088e-08)
5(1.362025037e-07 9.688135049e-08 6.341357338e-08 3.589915503e-08 1.786769113e-08)
5(1.313896866e-07 9.311127061e-08 6.115549028e-08 3.521478282e-08 1.808491548e-08)
5(1.242915022e-07 8.756238213e-08 5.778764394e-08 3.387992434e-08 1.790187208e-08)
5(1.142269291e-07 8.017876173e-08 5.335634622e-08 3.179014817e-08 1.728075471e-08)
5(1.019994576e-07 7.11676532e-08 4.787981133e-08 2.89596971e-08 1.615139265e-08)
5(8.778001754e-08 6.103779624e-08 4.160795502e-08 2.551047763e-08 1.462004027e-08)
5(7.317041566e-08 5.066643553e-08 3.493648123e-08 2.171166659e-08 1.273465476e-08)
5(5.901962895e-08 4.080558478e-08 2.847322699e-08 1.792285159e-08 1.079144967e-08)
5(4.638003435e-08 3.208711515e-08 2.271252488e-08 1.449580142e-08 8.940970148e-09)
5(3.604587489e-08 2.499387209e-08 1.792761088e-08 1.161497673e-08 7.338104281e-09)
5(2.825760796e-08 1.957157398e-08 1.417555096e-08 9.345992668e-09 6.062279142e-09)
5(2.226087987e-08 1.558171785e-08 1.137642674e-08 7.64883985e-09 5.070610204e-09)
5(1.783457351e-08 1.268282366e-08 9.341296491e-09 6.399518759e-09 4.358128374e-09)
5(1.471848921e-08 1.05687465e-08 7.862544695e-09 5.485333788e-09 3.808925594e-09)
5(1.239562006e-08 9.01408077e-09 6.773925667e-09 4.811194198e-09 3.402979043e-09)
5(1.069919415e-08 7.853854388e-09 5.97058874e-09 4.308838193e-09 3.106305805e-09)
5(9.364519549e-09 6.975191236e-09 5.363444493e-09 3.935060416e-09 2.89085776e-09)
5(8.350231782e-09 6.298701207e-09 4.907956457e-09 3.656205718e-09 2.742910751e-09)
5(7.568520129e-09 5.780286204e-09 4.566400786e-09 3.448491613e-09 2.634558004e-09)
5(6.980343156e-09 5.384301091e-09 4.305095913e-09 3.299483556e-09 2.567951124e-09)
5(6.487859124e-09 5.077788624e-09 4.110429356e-09 3.200041129e-09 2.551357224e-09)
5(6.096451616e-09 4.834792669e-09 3.969748865e-09 3.143136986e-09 2.563718997e-09)
5(5.808268115e-09 4.647691332e-09 3.880035919e-09 3.131718891e-09 2.63327276e-09)
5(5.575777235e-09 4.511713016e-09 3.835066828e-09 3.171284542e-09 2.768796002e-09)
5(5.390952634e-09 4.41400868e-09 3.839457855e-09 3.268457168e-09 2.985649471e-09)
5(5.238243446e-09 4.355907284e-09 3.90573782e-09 3.45017768e-09 3.31096941e-09)
5(5.099905241e-09 4.332931149e-09 4.044615614e-09 3.755981235e-09 3.832282049e-09)
5(5.019565809e-09 4.366513004e-09 4.293332587e-09 4.222159216e-09 4.525635791e-09)
5(4.971430227e-09 4.494856168e-09 4.70895205e-09 4.921678214e-09 5.557570196e-09)
5(4.973533987e-09 4.7728662e-09 5.361722603e-09 5.957991243e-09 6.953425322e-09)
5(5.065289941e-09 5.254653031e-09 6.352178948e-09 7.414175741e-09 8.837344049e-09)
5(5.32942541e-09 6.042362151e-09 7.778698068e-09 9.421239595e-09 1.132496544e-08)
5(5.884672069e-09 7.271478491e-09 9.78801197e-09 1.207024715e-08 1.437177234e-08)
5(6.796287123e-09 9.09780767e-09 1.249463187e-08 1.538955205e-08 1.781393628e-08)
5(8.33809718e-09 1.166780122e-08 1.595323244e-08 1.927689666e-08 2.160816999e-08)
5(1.057864749e-08 1.506875078e-08 2.005591451e-08 2.34551419e-08 2.50677832e-08)
5(1.372464783e-08 1.926168446e-08 2.450606567e-08 2.740873586e-08 2.772498801e-08)
5(1.780772672e-08 2.401101427e-08 2.872745646e-08 3.03853611e-08 2.886026682e-08)
5(2.263222411e-08 2.880663792e-08 3.203365211e-08 3.161854585e-08 2.809814328e-08)
5(2.757186225e-08 3.282453054e-08 3.350332818e-08 3.054562768e-08 2.511972297e-08)
5(3.248304992e-08 3.517735416e-08 3.236756343e-08 2.715263156e-08 2.042294338e-08)
5(3.59285625e-08 3.507737414e-08 2.868028279e-08 2.178164108e-08 1.476671518e-08)
5(3.690432255e-08 3.210510961e-08 2.284268695e-08 1.544783288e-08 9.322855353e-09)
5(3.513907414e-08 2.644234392e-08 1.594232181e-08 9.492611904e-09 5.028869819e-09)
5(3.032115799e-08 1.951163051e-08 9.514655423e-09 4.925340556e-09 2.294832851e-09)
5(2.319705105e-08 1.206614758e-08 4.774284011e-09 2.039771354e-09 8.21235201e-10)
5(1.575346992e-08 6.28984736e-09 1.849510464e-09 6.762830206e-10 2.329754828e-10)
5(8.632395678e-09 2.615288082e-09 5.230048592e-10 1.575880684e-10 4.552982219e-11)
5(4.20338447e-09 8.033188058e-10 8.97326692e-11 2.37712029e-11 6.238180626e-12)
5(1.476237559e-09 1.930519148e-10 1.280888686e-11 2.115695865e-12 4.42493297e-13)
5(4.092781416e-10 1.948369021e-11 7.893034436e-13 -1.116109736e-12 2.19845526e-14)
5(8.795003893e-11 -4.943646377e-10 5.116674151e-12 -5.2511295e-10 3.702743731e-16)
5(1.196697587e-10 1.989309434e-12 1.71905853e-11 -2.419683979e-16 2.253087268e-14)
)


60
(
5(9.779870231e-08 7.01665203e-08 5.411221354e-08 2.890179191e-08 1.081606169e-08)
5(1.256585177e-07 9.21586496e-08 6.037625765e-08 3.158524681e-08 1.207221023e-08)
5(1.426392985e-07 1.048322025e-07 6.534382524e-08 3.402196791e-08 1.356655003e-08)
5(1.533183009e-07 1.111783172e-07 6.90447638e-08 3.609789033e-08 1.513624094e-08)
5(1.620767101e-07 1.151137097e-07 7.154856071e-08 3.786760738e-08 1.680526521e-08)
5(1.688003762e-07 1.177018501e-07 7.303222632e-08 3.935592594e-08 1.841690633e-08)
5(1.707028773e-07 1.180417414e-07 7.358783421e-08 4.043927406e-08 1.972413812e-08)
5(1.69282814e-07 1.164948071e-07 7.302498471e-08 4.098364075e-08 2.074439132e-08)
5(1.642604467e-07 1.128817717e-07 7.135627356e-08 4.092401432e-08 2.134047374e-08)
5(1.564199844e-07 1.073103322e-07 6.854130513e-08 4.012837291e-08 2.149703179e-08)
5(1.455850564e-07 9.988525793e-08 6.453975303e-08 3.851188585e-08 2.115335182e-08)
5(1.319824254e-07 9.046813259e-08 5.926223521e-08 3.598041719e-08 2.023604588e-08)
5(1.15406561e-07 7.955331005e-08 5.283394274e-08 3.259788417e-08 1.876409109e-08)
5(9.781185649e-08 6.770853251e-08 4.569831462e-08 2.860052225e-08 1.682696718e-08)
5(8.065410172e-08 5.591970608e-08 3.833147146e-08 2.434822074e-08 1.466852626e-08)
5(6.481605755e-08 4.507603024e-08 3.138122005e-08 2.024402579e-08 1.244834887e-08)
5(5.135119512e-08 3.581932544e-08 2.532484636e-08 1.66147925e-08 1.047435786e-08)
5(4.034463898e-08 2.841381154e-08 2.036754944e-08 1.359635378e-08 8.789048602e-09)
5(3.189523191e-08 2.272899615e-08 1.650295821e-08 1.12457883e-08 7.481249292e-09)
5(2.573069201e-08 1.853432486e-08 1.362429846e-08 9.465041673e-09 6.427717995e-09)
5(2.124519047e-08 1.544847184e-08 1.149313951e-08 8.143219417e-09 5.666698205e-09)
5(1.780427554e-08 1.316403033e-08 9.925495885e-09 7.155815136e-09 5.091910981e-09)
5(1.52860332e-08 1.145788013e-08 8.75560985e-09 6.414975294e-09 4.64628105e-09)
5(1.342503151e-08 1.016933505e-08 7.875605176e-09 5.859815282e-09 4.332156636e-09)
5(1.198730161e-08 9.184671489e-09 7.209780306e-09 5.440021179e-09 4.099336936e-09)
5(1.082691509e-08 8.417424522e-09 6.69383789e-09 5.124295525e-09 3.912523591e-09)
5(9.984691063e-09 7.839138985e-09 6.300433759e-09 4.883880374e-09 3.796068626e-09)
5(9.276248723e-09 7.382996566e-09 6.001340263e-09 4.700205906e-09 3.719030447e-09)
5(8.754080484e-09 7.011884784e-09 5.761493237e-09 4.563774096e-09 3.666006615e-09)
5(8.290430127e-09 6.711817482e-09 5.572744861e-09 4.469121959e-09 3.671056058e-09)
5(7.96236643e-09 6.469420191e-09 5.423284975e-09 4.401844464e-09 3.70876556e-09)
5(7.611247461e-09 6.26137163e-09 5.305847232e-09 4.366520743e-09 3.791719339e-09)
5(7.331338596e-09 6.06669191e-09 5.213563398e-09 4.381649173e-09 3.955891615e-09)
5(7.074180121e-09 5.876969556e-09 5.154321269e-09 4.461590347e-09 4.244257075e-09)
5(6.805091502e-09 5.705179424e-09 5.160868579e-09 4.644138735e-09 4.691682117e-09)
5(6.529873989e-09 5.559706884e-09 5.239272077e-09 4.985311278e-09 5.357273943e-09)
5(6.265453969e-09 5.47668642e-09 5.451514197e-09 5.570260237e-09 6.392581279e-09)
5(6.020816133e-09 5.4970211e-09 5.899715279e-09 6.479753805e-09 7.826665634e-09)
5(5.834698308e-09 5.708417307e-09 6.697235458e-09 7.876713998e-09 9.827324757e-09)
5(5.786757251e-09 6.257101987e-09 8.021359216e-09 9.923010562e-09 1.25815822e-08)
5(6.029710867e-09 7.306185358e-09 1.001781171e-08 1.275738778e-08 1.599853085e-08)
5(6.722077733e-09 9.065072317e-09 1.287460112e-08 1.644071606e-08 1.997713804e-08)
5(8.059239368e-09 1.172667877e-08 1.670443203e-08 2.091324289e-08 2.442231783e-08)
5(1.037262217e-08 1.547387959e-08 2.140974579e-08 2.577782103e-08 2.849186429e-08)
5(1.3799231e-08 2.029083367e-08 2.676048595e-08 3.048429393e-08 3.173791559e-08)
5(1.842887804e-08 2.593083893e-08 3.198134937e-08 3.41109885e-08 3.305858762e-08)
5(2.397694013e-08 3.181282497e-08 3.622757343e-08 3.572894234e-08 3.213934392e-08)
5(2.998782788e-08 3.704176741e-08 3.844051751e-08 3.479770042e-08 2.865063673e-08)
5(3.596461858e-08 4.054956737e-08 3.779365964e-08 3.097352236e-08 2.326090745e-08)
5(4.042230861e-08 4.124906456e-08 3.39879238e-08 2.486529644e-08 1.668839457e-08)
5(4.260229026e-08 3.858768142e-08 2.754017567e-08 1.767824388e-08 1.039706836e-08)
5(4.159741092e-08 3.293399153e-08 1.966816769e-08 1.088440402e-08 5.414815701e-09)
5(3.751845702e-08 2.491857808e-08 1.217226464e-08 5.541183105e-09 2.402396762e-09)