/*--------------------------------*- C++ -*----------------------------------*\
| =========                 |                                                 |
| \\      /  F ield         | OpenFOAM: The Open Source CFD Toolbox           |
|  \\    /   O peration     | Version:  2.3.1                                 |
|   \\  /    A nd           | Web:      www.OpenFOAM.org                      |
|    \\/     M anipulation  |                                                 |
\*---------------------------------------------------------------------------*/
FoamFile
{
    version     2.0;
    format      ascii;
    class       dictionary;
    location    "constant";
    object      GRPSI27;
}
// * * * * * * * * * * * * * * * * * * * * * * * * * * * * * * * * * * * * * //

GRPSI27_table
60
(

60
(
5(5.960513228e-07 9.796763232e-07 3.292302594e-06 6.140509056e-06 2.052575973e-05)
5(7.312752455e-07 1.593549346e-06 2.946971378e-06 6.066573424e-06 1.336469347e-05)
5(-8.71264553e-06 2.274713611e-06 3.503867873e-06 7.920031406e-06 1.265303232e-05)
5(-2.778808626e-05 3.53565747e-06 5.29953024e-06 1.257990467e-05 1.786905882e-05)
5(-3.369108944e-05 5.738536389e-06 9.365803899e-06 2.060426232e-05 3.290891259e-05)
5(-2.532684564e-05 9.190144383e-06 1.662286709e-05 3.350945018e-05 5.858019785e-05)
5(5.875356896e-06 1.425447741e-05 2.583434779e-05 5.165966999e-05 8.891486461e-05)
5(9.14748916e-06 2.133690742e-05 3.779045376e-05 7.484197038e-05 0.0001287138889)
5(-2.629300874e-05 3.099602527e-05 5.355293544e-05 0.000105310985 0.0001749227398)
5(-3.897321787e-05 4.181670298e-05 7.446545802e-05 0.0001452570942 0.0002378895501)
5(-3.637155861e-05 5.75533011e-05 0.0001042676661 0.0001961446026 0.0003185515101)
5(8.349640828e-06 8.429606961e-05 0.000144290559 0.0002616540987 0.0004187214852)
5(5.377143554e-05 0.0001131421007 0.0001933792293 0.0003395674487 0.0005399981069)
5(7.229213642e-05 0.0001490382205 0.0002523080289 0.000436813749 0.0006819065928)
5(9.666436353e-05 0.0001937682692 0.0003243835487 0.0005473460993 0.0008458051819)
5(0.0001212212255 0.0002393817168 0.0004052430564 0.0006736773078 0.001031859641)
5(0.0001579466596 0.0003050819636 0.0005042232212 0.0008264748095 0.001244947968)
5(0.000205297226 0.0003833001013 0.0006270309434 0.0009982589954 0.001480401606)
5(0.000261090283 0.0004750087851 0.000762836738 0.001193418259 0.001739807417)
5(0.0003235374585 0.0005785451874 0.0009151991499 0.001403482767 0.002029263796)
5(0.0003988765825 0.0006996146465 0.001093692035 0.00164504863 0.002346287829)
5(0.0004863432088 0.0008362605108 0.001287959825 0.001925520675 0.002695757985)
5(0.0005849018781 0.0009893728018 0.001508102804 0.002197363294 0.003035423872)
5(0.0007016369766 0.001159780351 0.00174949302 0.00250351218 0.003413442286)
5(0.0008348482291 0.001353388036 0.002011175302 0.002824217441 0.003798563296)
5(0.0009860547754 0.001569686962 0.002293009046 0.003163024117 0.004209142594)
5(0.001159264053 0.001814477839 0.002618226316 0.00353106284 0.004630447663)
5(0.001357206751 0.002085009258 0.002953015073 0.003921752223 0.005066173703)
5(0.001576961146 0.00237843262 0.00333082495 0.004343393366 0.005507063371)
5(0.001827770992 0.002698998214 0.003734229906 0.004798926673 0.005970959301)
5(0.002110172708 0.003053311672 0.004151578107 0.005236335472 0.006421086388)
5(0.002432315625 0.003452313492 0.004623833215 0.005745257407 0.006960901666)
5(0.002797080291 0.003880903595 0.005105922691 0.00623369092 0.007335541459)
5(0.003202000104 0.004345789981 0.005607327894 0.00674726482 0.007872958027)
5(0.00365873242 0.0048654419 0.006166332115 0.007259375347 0.008291705983)
5(0.004171537824 0.005402481986 0.006688101511 0.007762823023 0.008689804002)
5(0.004745505777 0.006039030137 0.007388493613 0.008316819402 0.00906048478)
5(0.005379082716 0.006656829886 0.008004241748 0.008783249068 0.009622863449)
5(0.006068879419 0.007340411868 0.008593203159 0.009278611281 0.009670567903)
5(0.006796004656 0.008037638824 0.009152513431 0.009671460146 0.01039023003)
5(0.007606016801 0.008790176486 0.00981601732 0.01005093247 0.01027634548)
5(0.0084681712 0.009519831859 0.01039347874 0.0104755819 0.01001387114)
5(0.009343362369 0.01025804899 0.01094187536 0.01099947286 0.009626309247)
5(0.01020492696 0.01084212294 0.0111064749 0.0108389 0.009173930083)
5(0.01102193025 0.01143551184 0.01147928718 0.01050060825 0.008725411047)
5(0.01182964648 0.01186924759 0.01173121985 0.01004163291 0.008226592419)
5(0.0124924282 0.01227576241 0.01205848452 0.009521574664 0.007718165795)
5(0.01301313889 0.01268469943 0.01180119366 0.008981114349 0.007227366573)
5(0.01329836841 0.0125171191 0.01121685935 0.008428895857 0.006777794514)
5(0.01338240211 0.01259997942 0.01051898706 0.007886340561 0.006395393849)
5(0.01322103505 0.01188639627 0.009784181679 0.00737951654 0.006078117018)
5(0.01312476572 0.01100089115 0.009053644584 0.006933128115 0.005824631907)
5(0.01235788188 0.01006406652 0.008361736265 0.006544660963 0.005635726545)
5(0.01117014438 0.009139406993 0.007722168424 0.006214208527 0.005489577451)
5(0.009815313492 0.008264061626 0.007147977724 0.005956520438 0.005411035506)
5(0.008391904522 0.007439777977 0.006628788389 0.005763602463 0.005393733942)
5(0.006956203177 0.006659377903 0.006161345855 0.005623232398 0.005455684305)
5(0.005675851177 0.00585119854 0.005721708827 0.005542727763 0.005611866884)
5(0.004620101918 0.005056189222 0.005148663328 0.00590010766 0.00589834165)
5(0.003653981158 0.004284567408 0.004294418577 0.004773773268 0.005309348487)
)


60
(
5(7.007502436e-07 1.237825729e-06 4.422726811e-06 9.20750418e-06 2.801920388e-05)
5(9.028545777e-07 1.969248456e-06 4.454546732e-06 9.999596832e-06 2.240774324e-05)
5(-3.583632361e-06 3.109929262e-06 5.636754705e-06 1.33343338e-05 2.451137566e-05)
5(-1.267418537e-05 4.996825721e-06 8.710402742e-06 2.032646917e-05 3.509314146e-05)
5(-1.485514789e-05 8.026128231e-06 1.450983387e-05 3.182925054e-05 5.61556241e-05)
5(-9.401148778e-06 1.261545804e-05 2.380526434e-05 4.873628252e-05 8.821012803e-05)
5(8.028696057e-06 1.913145164e-05 3.607600847e-05 7.134641823e-05 0.0001262005073)
5(1.217907403e-05 2.802790386e-05 5.167331076e-05 9.980701512e-05 0.0001732857825)
5(-2.1991049e-06 3.993177306e-05 7.16991176e-05 0.0001359553605 0.0002291417259)
5(-3.932937269e-06 5.443171105e-05 9.752182993e-05 0.0001816930701 0.0002999003143)
5(3.275937685e-06 7.38055822e-05 0.0001316401936 0.0002383567965 0.0003876374994)
5(3.351243061e-05 0.0001014008941 0.0001750847489 0.0003081110487 0.0004930139888)
5(6.585533268e-05 0.0001331849789 0.0002277231326 0.0003900362961 0.0006154868147)
5(8.692238296e-05 0.0001720238794 0.0002902883098 0.0004878507585 0.0007559124629)
5(0.0001137845869 0.0002192479929 0.0003649339154 0.000599177634 0.0009163527378)
5(0.0001440674444 0.0002713287025 0.0004497752301 0.0007254539224 0.001094218805)
5(0.0001830202513 0.0003381014065 0.0005499361223 0.0008721757264 0.00129346637)
5(0.0002312454225 0.0004163357358 0.0006684658978 0.001035948494 0.001512188913)
5(0.0002880554609 0.0005069558436 0.0008007026182 0.001218885768 0.001750638648)
5(0.0003528824831 0.0006092388803 0.0009481679316 0.00141691755 0.00201128032)
5(0.0004287947983 0.000726604974 0.001115974835 0.001638361066 0.002292339879)
5(0.0005167224069 0.0008587376344 0.001299342378 0.00188703392 0.00260034135)
5(0.0006157957467 0.001006332851 0.001503964011 0.002140539087 0.002907490618)
5(0.0007317495649 0.001169990552 0.00172785681 0.002419306626 0.00324272881)
5(0.0008611511853 0.001353474793 0.001971106317 0.002713458325 0.003587265239)
5(0.001008666821 0.001557002589 0.002232275085 0.003025175954 0.003953142388)
5(0.001174933708 0.001784184133 0.00252478992 0.003359853079 0.004332108968)
5(0.00136356469 0.002034296856 0.002832845525 0.003715915951 0.004724619738)
5(0.001570943491 0.002305682603 0.003171789749 0.00409625658 0.005130027448)
5(0.00180710044 0.00260217271 0.003535571028 0.004504225074 0.005555424835)
5(0.002067298554 0.002928214694 0.003917839142 0.004912570692 0.005978349239)
5(0.002360856717 0.003288558894 0.004339972374 0.005367016002 0.006457490359)
5(0.00269066437 0.003677605436 0.004781310868 0.005824090228 0.006856765153)
5(0.003055780492 0.004101454351 0.005246104958 0.006305028309 0.007352693815)
5(0.003461984018 0.004568148734 0.005753407172 0.00679705846 0.007790747437)
5(0.003915202368 0.005060742573 0.006258716447 0.007296930623 0.008225994892)
5(0.004422226879 0.005622034984 0.006869820777 0.007836561781 0.008656526422)
5(0.004968733742 0.006195434437 0.007457234264 0.008342899196 0.00918010611)
5(0.005573931213 0.006823874818 0.008046570496 0.008871077376 0.009442664885)
5(0.006216781544 0.00747592091 0.008636697002 0.009354395308 0.01003605641)
5(0.00692058462 0.008179677444 0.009297654943 0.009832138003 0.01018862776)
5(0.007686441724 0.008889859962 0.009921289843 0.01032926386 0.01024356383)
5(0.008470039232 0.009624458092 0.01053758689 0.0108574516 0.01019218896)
5(0.009269606571 0.01029532089 0.01095561931 0.01100705705 0.01006021637)
5(0.01006484238 0.01096240821 0.01145931882 0.01102009875 0.009878058464)
5(0.01086890875 0.01154753538 0.01187528777 0.01091405841 0.009624139936)
5(0.01159869057 0.0121004083 0.01228005485 0.01071591979 0.009305441374)
5(0.01224341338 0.01261679851 0.01231621455 0.01044104671 0.008942958295)
5(0.01274645738 0.01277869516 0.01210091228 0.01009407609 0.008562316615)
5(0.01310091603 0.01298809664 0.0117406777 0.009693873813 0.008190953296)
5(0.01326823601 0.01269095179 0.01127666877 0.009261629328 0.007845019539)
5(0.01337582742 0.01219623011 0.01073906735 0.008822554705 0.007527701145)
5(0.01302949463 0.01156942481 0.01015270427 0.008397219317 0.007246310262)
5(0.0123355672 0.01086217428 0.009551266771 0.008002135959 0.007020491876)
5(0.01140684365 0.01010252236 0.008959052775 0.007650344267 0.006841110001)
5(0.01033899778 0.009325714311 0.008393967439 0.007351231328 0.006728175279)
5(0.009179770503 0.008560136283 0.007866170302 0.00710862389 0.00668518228)
5(0.00807209998 0.007781451933 0.007373260162 0.006934050814 0.006730543874)
5(0.007067641475 0.007042074833 0.006863333844 0.007011978037 0.00687541158)
5(0.006107360624 0.006359428037 0.006363556253 0.006596156868 0.006804254829)
)


60
(
5(9.435732942e-07 1.841908736e-06 6.88854429e-06 1.583230243e-05 4.319665496e-05)
5(1.276637625e-06 2.934588389e-06 7.636487435e-06 1.814170098e-05 4.090869674e-05)
5(1.920496395e-06 4.95603847e-06 1.029341263e-05 2.440335412e-05 4.867719372e-05)
5(3.044300766e-06 8.036833124e-06 1.584292796e-05 3.564435584e-05 6.753119517e-05)
5(4.973822583e-06 1.262977472e-05 2.488730643e-05 5.274690814e-05 9.802039265e-05)
5(8.042342174e-06 1.929055735e-05 3.7948824e-05 7.620976787e-05 0.0001397059771)
5(1.235196907e-05 2.844789305e-05 5.519814102e-05 0.0001061456937 0.0001892342961)
5(1.815623082e-05 4.051314448e-05 7.673024888e-05 0.0001428755834 0.0002471330654)
5(2.586476863e-05 5.613629259e-05 0.000103539365 0.0001877687122 0.0003162092581)
5(3.622498173e-05 7.602286322e-05 0.0001369836384 0.0002421824034 0.0003982686974)
5(4.952866572e-05 0.0001008195397 0.0001780191852 0.0003069394673 0.0004949877144)
5(6.643240698e-05 0.0001311979193 0.000227501246 0.0003826937889 0.0006054639375)
5(8.743143513e-05 0.0001678436906 0.0002861766043 0.000470142751 0.0007296930996)
5(0.0001127834359 0.0002113739802 0.0003543483933 0.0005692398166 0.0008672489767)
5(0.0001437676429 0.0002625794932 0.0004330065972 0.0006809437276 0.001019281344)
5(0.0001807522022 0.0003223838609 0.0005228862676 0.000805904318 0.001184626893)
5(0.0002243224448 0.0003913782127 0.0006243540314 0.0009440846598 0.001363934156)
5(0.0002750471354 0.0004701644738 0.0007380326059 0.00109568574 0.001558019247)
5(0.0003347749748 0.0005596264609 0.0008646494122 0.001261395164 0.001765740491)
5(0.0004019257173 0.000660076684 0.001004092131 0.001440848014 0.001987229941)
5(0.0004794529265 0.0007724433551 0.001157431823 0.001634697341 0.0022207604)
5(0.0005694028103 0.0008978824892 0.001324949311 0.001842253254 0.002472660908)
5(0.0006698769463 0.001036502322 0.001507056785 0.002065683428 0.002733223267)
5(0.0007794029416 0.001188896338 0.001704385367 0.002304828162 0.003010697082)
5(0.000904994839 0.001356310377 0.00191898515 0.002559001299 0.003301281806)
5(0.001044292516 0.001539935147 0.002149366416 0.002829113503 0.003606991548)
5(0.001198910637 0.001740346246 0.002397404311 0.003116324993 0.003927693916)
5(0.001369029468 0.001958292954 0.002664297761 0.003421503624 0.004266075987)
5(0.001558557741 0.002195605706 0.002950320489 0.003745201377 0.004616947677)
5(0.001767863597 0.002453754655 0.003257597234 0.004089211521 0.004989544169)
5(0.00199595673 0.002733931533 0.00358653344 0.004453330423 0.005378339101)
5(0.002247933348 0.003038060929 0.003939265721 0.004839052537 0.005787497868)
5(0.002525640438 0.003368202394 0.004319855386 0.00524923334 0.00621284929)
5(0.002828382461 0.003726607509 0.00472731792 0.005684316493 0.006660531642)
5(0.00316228505 0.004115388798 0.005163384777 0.006146738194 0.007129613379)
5(0.003526125308 0.004537046988 0.005630019828 0.006637811287 0.007612921199)
5(0.003922714314 0.004994232869 0.006131203034 0.007159808871 0.008117206788)
5(0.004361736296 0.00549108179 0.006673832402 0.007709161355 0.008636165447)
5(0.004834957929 0.006030051273 0.007254787885 0.008284212376 0.0091609571)
5(0.00535205778 0.006610910234 0.00787389053 0.008884793355 0.009686912287)
5(0.005920226754 0.007242034137 0.008532024749 0.009503424017 0.01019424295)
5(0.006527990371 0.007915611643 0.009219367178 0.01013094556 0.01067420026)
5(0.007188985103 0.008636006151 0.009933437989 0.01074780999 0.01109117801)
5(0.007889774225 0.009397119314 0.01065850636 0.01132429882 0.01143651598)
5(0.008644133119 0.01017612549 0.01137646906 0.01183747944 0.01170023011)
5(0.009425430976 0.0109625525 0.01206327486 0.01226161919 0.01186154544)
5(0.0102363476 0.01173754607 0.01268872412 0.01257745676 0.01190246568)
5(0.01104626503 0.0124861829 0.01320083569 0.01277161804 0.01183194169)
5(0.01185566528 0.01315842547 0.01357634248 0.01283193099 0.01165217888)
5(0.01261289531 0.01370608673 0.01379200133 0.01275257621 0.01139559241)
5(0.01330036164 0.0140833808 0.01382451678 0.0125379073 0.01108026638)
5(0.01387365577 0.01426299746 0.01367556186 0.01221221068 0.01071956822)
5(0.01427994581 0.01422232193 0.01335721928 0.0118037938 0.01035265413)
5(0.01443589444 0.01396336237 0.01289981398 0.01135383593 0.01000038418)
5(0.01430069126 0.01350350497 0.01234566844 0.01088731874 0.009675808992)
5(0.01389300675 0.01289300399 0.01173664068 0.01043930891 0.009402823721)
5(0.01322888032 0.01219099637 0.01111908012 0.01002780321 0.009183574042)
5(0.01238512819 0.0114485267 0.01053193577 0.009675132459 0.009039320461)
5(0.01145576022 0.01073547522 0.01003569607 0.00941453061 0.008990092632)
5(0.01047711024 0.01020488698 0.01003266168 0.009839350371 0.009761631723)
)


60
(
5(1.247830767e-06 2.622712562e-06 9.700143465e-06 2.31416784e-05 5.826814453e-05)
5(1.747223978e-06 4.208499748e-06 1.120838971e-05 2.677860127e-05 5.971808865e-05)
5(2.74571217e-06 7.045524377e-06 1.54355385e-05 3.554615543e-05 7.214950358e-05)
5(4.354209601e-06 1.118942646e-05 2.308766504e-05 5.002106116e-05 9.560633181e-05)
5(6.957918564e-06 1.712196073e-05 3.4780646e-05 7.07438415e-05 0.000131586874)
5(1.096047551e-05 2.545686957e-05 5.076824079e-05 9.803686334e-05 0.0001777178836)
5(1.644826485e-05 3.657874625e-05 7.117559756e-05 0.0001320100307 0.0002324801593)
5(2.369291787e-05 5.089825817e-05 9.644422388e-05 0.0001732034489 0.0002952071227)
5(3.320600541e-05 6.900034221e-05 0.000127242905 0.0002223852141 0.0003688632568)
5(4.541808111e-05 9.148507191e-05 0.0001646267301 0.000280269883 0.0004535446347)
5(6.103923875e-05 0.0001190178132 0.0002095544671 0.0003476931056 0.000551823519)
5(8.023703757e-05 0.0001521160401 0.0002625205074 0.0004252623792 0.000660540098)
5(0.0001036331887 0.0001913378351 0.00032390875 0.000512965449 0.0007813765447)
5(0.0001319584647 0.000237280684 0.0003940150491 0.0006110643949 0.0009130203077)
5(0.0001650749245 0.0002904518587 0.0004733646553 0.0007201154157 0.00105546496)
5(0.0002037541596 0.0003513370464 0.0005625742256 0.0008403917782 0.0012101423)
5(0.0002499936095 0.0004205972447 0.0006620803649 0.0009712000604 0.001376870718)
5(0.0003025091321 0.0004987405241 0.000772271523 0.001112925792 0.00155322865)
5(0.000362782067 0.0005863051455 0.0008928747504 0.0012670787 0.001741874691)
5(0.0004310923131 0.0006838324065 0.001025006715 0.001432744139 0.001942145302)
5(0.0005083565769 0.0007918444981 0.001169125039 0.001610280927 0.002155090014)
5(0.0005946589655 0.0009107333547 0.001325174424 0.001800153965 0.002377334998)
5(0.0006911917914 0.0010409945 0.001492967822 0.00200158444 0.002612557395)
5(0.0007979741148 0.001183458458 0.001673781481 0.002216578257 0.002865100176)
5(0.0009181383569 0.001338243801 0.001868451508 0.002445934687 0.003126260595)
5(0.001046892279 0.001505802972 0.002077480683 0.002689426606 0.003403337981)
5(0.001191106844 0.001688352068 0.002301585008 0.002948408593 0.003696866188)
5(0.001348722154 0.001884480663 0.002541280089 0.003223543141 0.004005983656)
5(0.001523593163 0.002096652557 0.002798248244 0.003517212078 0.004331764677)
5(0.001708112923 0.002326633357 0.00307265262 0.003828396771 0.004673635474)
5(0.001915324298 0.002574958112 0.003366745751 0.004160753357 0.005039412529)
5(0.002140641257 0.00284422709 0.003682846267 0.004515222972 0.005428732606)
5(0.002382003312 0.003135310337 0.004021808884 0.004893196981 0.005838276282)
5(0.002644853955 0.003447641853 0.004387449485 0.005298087202 0.006273409872)
5(0.002931604297 0.003787270616 0.004781834461 0.005732701544 0.006739526772)
5(0.003244329673 0.004156160698 0.005206355038 0.006198988608 0.007232301372)
5(0.003580619354 0.004556208724 0.005665898153 0.006700008757 0.007752658301)
5(0.003955394323 0.004991266418 0.006165654301 0.00723972839 0.008306862172)
5(0.004356065041 0.005467276669 0.00671038208 0.007820682583 0.008898943799)
5(0.004795558433 0.005989053132 0.007301552111 0.008446050023 0.009513167809)
5(0.005277265624 0.006558822637 0.007942070546 0.009114259676 0.01016197795)
5(0.005794722608 0.007178329492 0.008636424045 0.009821168438 0.0108098212)
5(0.006367479219 0.007856022828 0.009379714218 0.01056231959 0.01145217493)
5(0.00697730531 0.008596115282 0.01017195172 0.01132091457 0.01206656094)
5(0.007643597751 0.009394965239 0.01100814696 0.01207592618 0.01263033128)
5(0.008359377541 0.01023916492 0.01187152 0.01280195989 0.01312022368)
5(0.009123806391 0.01112340704 0.01273832593 0.01346547798 0.01351515295)
5(0.009943146646 0.01204073898 0.01357528741 0.01404323092 0.0137929698)
5(0.0108096904 0.01297073937 0.01434525687 0.01451001469 0.01394313314)
5(0.0117165113 0.01386822517 0.01500872749 0.01482487613 0.01396020487)
5(0.01266174438 0.0147071537 0.01551926044 0.01497354826 0.01384440828)
5(0.01360877434 0.01543603489 0.01583849312 0.01495187313 0.01362254417)
5(0.01453162835 0.01599447437 0.01595036584 0.01477221732 0.01334231626)
5(0.01535196763 0.01633046398 0.01584612456 0.01445781814 0.01296139878)
5(0.0160075291 0.01642310905 0.01554014291 0.01404358907 0.01259242265)
5(0.0163415315 0.01625050077 0.01507239881 0.01357002548 0.01223350492)
5(0.01636692054 0.0158361618 0.0144980118 0.01308468433 0.01190116413)
5(0.01603261986 0.01524167568 0.01389802978 0.01263588722 0.01163586767)
5(0.01534481701 0.01452757052 0.01336789923 0.01231042433 0.01150557689)
5(0.01439876055 0.01408496081 0.01347146807 0.01260247153 0.01242125247)
)


60
(
5(1.604837076e-06 3.579157038e-06 1.273804719e-05 3.080061048e-05 7.261578282e-05)
5(2.32658917e-06 5.647354455e-06 1.508170705e-05 3.55900944e-05 7.741199235e-05)
5(3.611983516e-06 9.232101876e-06 2.068153734e-05 4.615010451e-05 9.266035352e-05)
5(5.730869028e-06 1.426665809e-05 3.002047878e-05 6.278906359e-05 0.0001206161756)
5(8.991173889e-06 2.126547124e-05 4.363822147e-05 8.58835483e-05 0.0001592726425)
5(1.376439875e-05 3.086100057e-05 6.160885317e-05 0.0001153423456 0.000206751581)
5(2.031527343e-05 4.336795224e-05 8.403598822e-05 0.0001512714385 0.0002633466995)
5(2.866896183e-05 5.926865015e-05 0.0001114372822 0.0001941372997 0.0003265979215)
5(3.956288287e-05 7.899314627e-05 0.0001444150143 0.0002445855167 0.0003999279246)
5(5.311506629e-05 0.0001030786971 0.000183754237 0.0003031894899 0.0004837994225)
5(7.024791737e-05 0.0001320582752 0.0002301605304 0.0003705317854 0.0005783001236)
5(9.072402461e-05 0.0001663795048 0.0002840201289 0.000446783631 0.0006831208648)
5(0.0001156804522 0.0002064695868 0.0003453762965 0.0005318454868 0.0007960392634)
5(0.000145310753 0.0002529449488 0.0004146749279 0.0006260655575 0.000919643257)
5(0.0001799257096 0.0003060557672 0.0004920974825 0.0007297026859 0.001052707889)
5(0.0002197487811 0.0003661295145 0.0005780116883 0.0008423957974 0.001195288524)
5(0.0002654094398 0.0004336892416 0.0006728907423 0.0009640617216 0.001347681622)
5(0.0003183360664 0.0005090200345 0.0007768468594 0.001095744672 0.001508333923)
5(0.0003768730595 0.0005926352431 0.0008900729614 0.001236741856 0.001681342712)
5(0.0004448239436 0.000685049883 0.001013211036 0.001387931705 0.001860420426)
5(0.0005200390943 0.0007863659779 0.001145905917 0.001549137763 0.002052900657)
5(0.0005995249973 0.0008968211057 0.001288994291 0.00172129659 0.002253915382)
5(0.0006911314214 0.001017100854 0.001442492107 0.001903670986 0.00246872)
5(0.0007950222335 0.001147509195 0.001607389634 0.002097562173 0.002694207341)
5(0.0009042356455 0.001288569543 0.001783252491 0.002304320675 0.002934090967)
5(0.001025029224 0.001440520895 0.001971243011 0.002523851702 0.003183047291)
5(0.00115690375 0.001604760632 0.002172188268 0.002756633171 0.003449226023)
5(0.001301806156 0.001781841686 0.002387054351 0.0030039321 0.003728637104)
5(0.001457603947 0.001972330249 0.002616517075 0.003267854138 0.004031821401)
5(0.001625594938 0.002177322112 0.002861207871 0.003548326309 0.004345493547)
5(0.001811864133 0.002396946661 0.003123442443 0.003847492001 0.004683390132)
5(0.002009076572 0.002633263152 0.0034060093 0.004167771188 0.005043014769)
5(0.002221212812 0.002888866196 0.003706507152 0.00451108952 0.005427164182)
5(0.002452562542 0.003163186445 0.004030266218 0.004880470383 0.005833483285)
5(0.002698665559 0.003458026311 0.004379860081 0.005277615904 0.006280267245)
5(0.002972216948 0.003776995189 0.0047590645 0.005705588861 0.006758081563)
5(0.003259673163 0.00412442731 0.005172209131 0.006170222481 0.007267186873)
5(0.003574159832 0.004503425939 0.005619837799 0.006676647184 0.007817362357)
5(0.003912560926 0.004918062683 0.006110287 0.007229446408 0.008420908361)
5(0.004281763025 0.005371382445 0.006649530352 0.007832709423 0.00907253148)
5(0.004672590601 0.005867856419 0.007242445098 0.008493364011 0.009755881398)
5(0.005109013701 0.006413174141 0.007896975068 0.009213729971 0.01050777571)
5(0.00556759675 0.007014881417 0.008615748473 0.009994765716 0.01127290403)
5(0.006064722942 0.007679865964 0.009405051891 0.0108349408 0.01207096803)
5(0.006593227907 0.008406848907 0.01026529031 0.01172198134 0.01284815349)
5(0.007178502333 0.009198454448 0.01119698928 0.01263754147 0.01361678489)
5(0.007790525771 0.01005379545 0.01218420267 0.01355700034 0.01434288026)
5(0.008517416335 0.01096560612 0.01321428227 0.0144485061 0.01496915087)
5(0.009287565325 0.01193886683 0.01426066009 0.01528609673 0.01550383946)
5(0.01012368762 0.01297429662 0.01528221371 0.01603363353 0.01589541582)
5(0.01109517584 0.01406408027 0.01624868778 0.01664604651 0.01614840568)
5(0.01212626748 0.01516184914 0.01710897441 0.01708661262 0.01623354321)
5(0.01325138091 0.01625569441 0.01780676385 0.01733855344 0.01616784732)
5(0.01440191599 0.01725325376 0.01830879811 0.01738315655 0.01596728803)
5(0.01559340615 0.01808960177 0.018562734 0.01724635851 0.01568022939)
5(0.01661026808 0.01869526611 0.01856585058 0.016957838 0.0153508602)
5(0.01749072453 0.01896683658 0.01831405951 0.01657989961 0.01498288104)
5(0.01800913515 0.01894842915 0.01791258149 0.01619331796 0.01469997379)
5(0.01805338532 0.01853188122 0.01744108827 0.01592369906 0.01458404973)
5(0.01700596786 0.01789467927 0.01737019129 0.01622960045 0.01542209058)
)


60
(
5(2.016749623e-06 4.672806494e-06 1.598458372e-05 3.861723848e-05 8.61055643e-05)
5(2.980549466e-06 7.228143553e-06 1.911798167e-05 4.432396026e-05 9.342704887e-05)
5(4.619947604e-06 1.151580137e-05 2.588083771e-05 5.628220313e-05 0.0001112600391)
5(7.165466044e-06 1.733916219e-05 3.665802764e-05 7.429454518e-05 0.0001402215835)
5(1.112314349e-05 2.52623353e-05 5.170980158e-05 9.848517897e-05 0.0001801769955)
5(1.659318891e-05 3.589528996e-05 7.101873502e-05 0.0001290947881 0.0002278229147)
5(2.405808747e-05 4.950997346e-05 9.479426593e-05 0.0001660513869 0.0002836566111)
5(3.348121557e-05 6.663164012e-05 0.0001234134213 0.000209513797 0.0003461693548)
5(4.535531654e-05 8.758566364e-05 0.0001574633184 0.0002597523375 0.000417365285)
5(6.030079006e-05 0.0001127755194 0.0001976369402 0.0003175960027 0.000499732504)
5(7.837498472e-05 0.0001425813761 0.0002441702054 0.0003832450119 0.0005882442879)
5(9.992258948e-05 0.0001775215735 0.0002974568751 0.0004566258415 0.000686715049)
5(0.0001261417858 0.0002179344834 0.0003578028627 0.0005375462032 0.0007925460527)
5(0.000156635918 0.0002640502749 0.0004252453015 0.0006265130826 0.0009071540474)
5(0.0001921364308 0.0003162075818 0.0004997377049 0.0007233837333 0.001030208263)
5(0.0002326562433 0.0003749735497 0.0005818723101 0.0008279293351 0.00116169257)
5(0.0002782167642 0.0004403906777 0.0006715155761 0.0009409560043 0.001299874478)
5(0.0003301698354 0.0005129346324 0.0007688801834 0.001062452406 0.00144870947)
5(0.0003895795123 0.0005926109317 0.0008744896398 0.001191284098 0.001602025929)
5(0.0004536026438 0.0006798450158 0.0009881203679 0.001328705424 0.001768615311)
5(0.0005258719246 0.0007748954336 0.001109987923 0.001474793062 0.001938498516)
5(0.0006060694682 0.0008777381564 0.001240594847 0.001629870045 0.002121413073)
5(0.0006922503732 0.0009891720635 0.001380838297 0.00179519332 0.002315819242)
5(0.0007898473582 0.001109117639 0.001530310266 0.00197045622 0.002515814378)
5(0.0008908416814 0.001238354525 0.001689323892 0.002155934552 0.002732165648)
5(0.001005252785 0.001377723232 0.001859052136 0.00235230765 0.002959204471)
5(0.001129731022 0.001526886636 0.002039903719 0.002561272418 0.003200745738)
5(0.001264267111 0.001687642284 0.002232921232 0.002783457503 0.00345483418)
5(0.001399861402 0.001860332369 0.002438175112 0.003019225519 0.003725145289)
5(0.001558314272 0.002044578099 0.002656808429 0.003270783184 0.004011541361)
5(0.001721109129 0.002240797413 0.002890322301 0.003538278358 0.004325929734)
5(0.001903268532 0.002451109762 0.003141096303 0.003824739539 0.004644934701)
5(0.002092267866 0.002677007645 0.003409213358 0.004131708497 0.005005231149)
5(0.002299243596 0.002920136073 0.003695665757 0.004463016976 0.005379609744)
5(0.002523413498 0.003180412691 0.00400529247 0.004821093097 0.00579468778)
5(0.002760508304 0.003460531324 0.004339015693 0.005208638569 0.006239498192)
5(0.003010544145 0.003765223615 0.004703753929 0.005630176148 0.006724442265)
5(0.003282837374 0.004094399105 0.00510191918 0.006090071139 0.007249102921)
5(0.003570503517 0.00445141929 0.005538243231 0.006594697184 0.007816784735)
5(0.003871466007 0.004841908425 0.006019540766 0.007150747946 0.00845894339)
5(0.004198556695 0.005267363268 0.006549340327 0.007768416154 0.009148621703)
5(0.004535718386 0.005732111525 0.007137608109 0.00845346525 0.009897094088)
5(0.004881371989 0.00623758219 0.007793593166 0.009214744405 0.01072788176)
5(0.005263987422 0.006787606342 0.008518386782 0.01005475927 0.01159567218)
5(0.005663371894 0.00738767667 0.009318786758 0.01097537629 0.01253169924)
5(0.006095368823 0.00803682016 0.01019818772 0.01197158129 0.013483003)
5(0.006586714212 0.008737624357 0.01116162656 0.01302896626 0.01445180015)
5(0.00713233749 0.009512974406 0.01220680389 0.01412946065 0.01538499415)
5(0.00775908551 0.01037316605 0.01332194714 0.01525027194 0.01628448633)
5(0.008442179856 0.01133601514 0.01449309689 0.01636318356 0.01710823096)
5(0.009242479766 0.01241123882 0.01570893217 0.01742927794 0.01780884328)
5(0.01013263086 0.01357976147 0.0169459302 0.01840431825 0.01836872565)
5(0.01112437576 0.01483068565 0.01816034069 0.01924017684 0.01871394976)
5(0.01221306738 0.01612519416 0.01931807828 0.01989257314 0.01893271977)
5(0.01338961645 0.01742060819 0.02031498132 0.02033445377 0.01894414622)
5(0.0146722494 0.01868281211 0.02109792494 0.02056167449 0.01881685121)
5(0.01587181867 0.01976122407 0.02162372322 0.02059442325 0.01866439213)
5(0.01694280337 0.02055037477 0.02180225077 0.02050103009 0.01850278979)
5(0.01766534562 0.02080676787 0.021630603 0.02040693315 0.01854237016)
5(0.01631447023 0.01936591628 0.02072501119 0.02110432226 0.02031330916)
)


60
(
5(2.469474485e-06 5.893836453e-06 1.931579046e-05 4.625122838e-05 9.878536554e-05)
5(3.694336224e-06 8.962587505e-06 2.32152043e-05 5.275110418e-05 0.0001079478827)
5(5.74016912e-06 1.395265894e-05 3.105486889e-05 6.58138041e-05 0.0001282171557)
5(8.72351468e-06 2.05605041e-05 4.309418372e-05 8.487071844e-05 0.0001568619587)
5(1.324502995e-05 2.93392788e-05 5.928563989e-05 0.0001098652089 0.0001967030483)
5(1.954224417e-05 4.090754633e-05 7.95738499e-05 0.0001408129446 0.0002437835079)
5(2.765284385e-05 5.558573499e-05 0.0001043782666 0.0001778259621 0.0002969400453)
5(3.807396184e-05 7.368954309e-05 0.0001339363189 0.0002211415831 0.0003591749954)
5(5.093867791e-05 9.565004096e-05 0.0001688681345 0.000270895869 0.0004278996998)
5(6.69865619e-05 0.0001217539084 0.000209208371 0.000327321816 0.0005048621655)
5(8.616465274e-05 0.0001524050279 0.0002556173481 0.00039052664 0.0005881764582)
5(0.0001094142071 0.0001879080566 0.0003081601694 0.0004602850249 0.0006796531278)
5(0.0001360503116 0.0002285703513 0.0003667896028 0.0005369859041 0.000778365253)