/*--------------------------------*- C++ -*----------------------------------*\
| =========                 |                                                 |
| \\      /  F ield         | OpenFOAM: The Open Source CFD Toolbox           |
|  \\    /   O peration     | Version:  2.3.1                                 |
|   \\  /    A nd           | Web:      www.OpenFOAM.org                      |
|    \\/     M anipulation  |                                                 |
\*---------------------------------------------------------------------------*/
FoamFile
{
    version     2.0;
    format      ascii;
    class       dictionary;
    location    "constant";
    object      GRPSI34;
}
// * * * * * * * * * * * * * * * * * * * * * * * * * * * * * * * * * * * * * //

GRPSI34_table
60
(

60
(
5(0.02082818724 0.02709780953 0.02866620974 0.03573269373 0.03683758972)
5(0.0273100569 0.03987836091 0.03616427782 0.04269125658 0.04518036819)
5(0.03813986442 0.03790279192 0.04092236753 0.04881250652 0.0620160099)
5(0.03795082262 0.03808241316 0.04042603773 0.05475436197 0.04595255405)
5(0.04006024837 0.04035383492 0.043167277 0.0515743599 0.05468462609)
5(0.03834527048 0.04269352513 0.05198281588 0.05331710042 0.06159569836)
5(0.03754188281 0.04448336148 0.05218448189 0.05721274628 0.05771009718)
5(0.04178701722 0.04544685013 0.05010903176 0.05687149713 0.06661520939)
5(0.04023125925 0.04593733041 0.05180043369 0.05718183012 0.06381217936)
5(0.04134990739 0.04642690078 0.05094206995 0.05864057479 0.06384315346)
5(0.04186367372 0.04737314316 0.05203805401 0.05940108943 0.06477512909)
5(0.0430772524 0.0482752415 0.05416709789 0.0603125044 0.06677016909)
5(0.04479983965 0.04905570889 0.05541481375 0.06060740761 0.06719175657)
5(0.04480752891 0.04979010846 0.05613890687 0.06242554739 0.06862171921)
5(0.04632316918 0.0509617551 0.05738679318 0.06283833756 0.06960925991)
5(0.04690096154 0.05173397842 0.05804242003 0.06365587493 0.07038729687)
5(0.04777329869 0.05271973081 0.05901372426 0.06459492658 0.0709207052)
5(0.04873796217 0.05371499871 0.06001619124 0.06527630941 0.07174215327)
5(0.04979685922 0.05465178166 0.06101961817 0.06639912626 0.07270604975)
5(0.05052112915 0.05532142666 0.06177549661 0.06689457983 0.07385095407)
5(0.05165331416 0.05667493959 0.06322849127 0.06815239579 0.07493852433)
5(0.05271237352 0.0578502482 0.06420685297 0.07035619556 0.07673556677)
5(0.05357533856 0.05889356809 0.06548213298 0.07079598563 0.07715589377)
5(0.05492713061 0.0598279606 0.06671151011 0.07194136872 0.07841469557)
5(0.05606561045 0.06109383014 0.06782483292 0.07286826092 0.07931179707)
5(0.05741200851 0.06252625498 0.06885232813 0.07375317279 0.08057784633)
5(0.05878841361 0.06412462565 0.07070211841 0.07499161006 0.08179530982)
5(0.06043639235 0.06572639634 0.07198178245 0.07636572632 0.08315514169)
5(0.06179927254 0.06724322331 0.07387852919 0.0780826285 0.08448312446)
5(0.06354386793 0.06876645562 0.07572591601 0.08017791619 0.08613861913)
5(0.06525188565 0.07047264749 0.07727318267 0.08149175656 0.08753494997)
5(0.06728762103 0.07262078733 0.07956846607 0.08400169647 0.09052409533)
5(0.06956597836 0.07466172974 0.08149428804 0.08585357516 0.09073512836)
5(0.07184886851 0.07674391257 0.08328602386 0.08801657241 0.09390070609)
5(0.0742988447 0.0792988462 0.08580314033 0.0900441176 0.09540645327)
5(0.07704088246 0.08138716426 0.08714909607 0.09194523805 0.0969324614)
5(0.07991876283 0.08485031401 0.09146881942 0.09475621758 0.09832138222)
5(0.08304577678 0.08720975802 0.09403034976 0.09635986865 0.1032905215)
5(0.08610926294 0.09017094178 0.09603389866 0.09873426514 0.1010520971)
5(0.08882470833 0.09295309276 0.0976396951 0.1000175527 0.113263642)
5(0.0921928424 0.09629325686 0.1010796291 0.1019887368 0.1119405776)
5(0.09575102806 0.09919047601 0.1036069185 0.1066685452 0.1100999783)
5(0.09891115841 0.1023887703 0.1062192306 0.115375928 0.1072389883)
5(0.1015013629 0.1036045878 0.1038886845 0.1136318057 0.1037290712)
5(0.1035683387 0.1056489519 0.1059394351 0.1107488832 0.1009687271)
5(0.1059076982 0.1061529207 0.1080898146 0.1071486221 0.09760110368)
5(0.1071842676 0.1076480185 0.1157562712 0.1032634967 0.09400087872)
5(0.107724128 0.1110793639 0.1155670073 0.0993733417 0.0903489246)
5(0.107077925 0.1084250375 0.1113692608 0.09530911736 0.08685856969)
5(0.1055857682 0.1147272264 0.1063256845 0.09119708113 0.08367832539)
5(0.1038820946 0.1094483234 0.10104604 0.08713936844 0.08073290496)
5(0.1076002442 0.1031469908 0.09567413983 0.0833269278 0.07809767735)
5(0.1043994602 0.0966356666 0.09040624083 0.07964931597 0.07557637754)
5(0.09706107676 0.09003580089 0.0851703418 0.07610370506 0.07323623109)
5(0.08827000117 0.08357625343 0.08004176479 0.07281003359 0.07109096501)
5(0.07832123143 0.07698896527 0.07485435676 0.06971711063 0.06916891668)
5(0.06693185602 0.07014980824 0.0695553631 0.06666630092 0.06778498461)
5(0.05619756596 0.06183814226 0.06378315532 0.06372927641 0.06692769406)
5(0.04645228154 0.05268747326 0.05534398373 0.06712453805 0.06668479957)
5(0.03575695469 0.04104034042 0.03806146957 0.03924669726 0.04568792831)
)


60
(
5(0.02027151416 0.02528925335 0.02784853591 0.03413275619 0.03571901539)
5(0.02565426097 0.03368139446 0.03355213383 0.03916035644 0.04210316197)
5(0.03231831235 0.03382648725 0.03729328558 0.04324744967 0.05202783648)
5(0.03290076934 0.03454964602 0.03785012244 0.04688390358 0.04476538084)
5(0.03445578372 0.03617483992 0.0396360265 0.04576629459 0.04948556044)
5(0.03401202722 0.03782270149 0.04441461967 0.04705274579 0.05321485819)
5(0.03401416953 0.03912216862 0.04496215166 0.04938329697 0.05164340873)
5(0.03654687863 0.0400144077 0.04430947457 0.04958749883 0.05651925433)
5(0.03617502039 0.04066862412 0.04556761193 0.05014930724 0.05553496167)
5(0.03709595565 0.04127655573 0.04549754009 0.05122697984 0.05595888672)
5(0.03771721538 0.04210104827 0.04641549238 0.05196178798 0.05676138065)
5(0.03865938291 0.0428998346 0.04780516759 0.05276172106 0.05807318455)
5(0.03986484666 0.04363716501 0.04877704171 0.05325547884 0.05862831691)
5(0.04020944466 0.04434884493 0.04948065076 0.05448065219 0.05967889172)
5(0.0413091477 0.04528688088 0.05046662224 0.05502818602 0.06050899146)
5(0.04193111428 0.04601177575 0.05112414665 0.05578014627 0.061235679)
5(0.04271449433 0.04684487242 0.05195733125 0.0565866305 0.06184466508)
5(0.04354034471 0.04768711818 0.05279591785 0.05728114627 0.06259358684)
5(0.04441852114 0.04851833319 0.05366706436 0.05818618936 0.06343492534)
5(0.04513786452 0.04920934793 0.0544041533 0.05879346323 0.06435354173)
5(0.04605907307 0.05025896493 0.05550240884 0.05979541528 0.06527861708)
5(0.04696908316 0.05122786461 0.05636959427 0.0612574413 0.06655466011)
5(0.04778660492 0.05214682344 0.05741360977 0.06189148778 0.06714846902)
5(0.04885946707 0.0530120318 0.05842835527 0.06288478784 0.06818973971)
5(0.049836393 0.05406641259 0.05943202926 0.06376444273 0.06905422139)
5(0.050938285 0.05521550326 0.06035868707 0.06465033785 0.07011749147)
5(0.05206881716 0.05647261805 0.06173934609 0.06571005576 0.07119048957)
5(0.05335463249 0.05775313118 0.06287618511 0.06689990909 0.0723518172)
5(0.05452503862 0.05899331891 0.06430587715 0.06825048762 0.07351145928)
5(0.05590152074 0.06027363339 0.06577415647 0.06984316876 0.07487822756)
5(0.0572819456 0.06168852703 0.06710227749 0.07105368029 0.07612819208)
5(0.05885165256 0.06332963807 0.06883848448 0.07289012458 0.07821292908)
5(0.06057326169 0.06493893975 0.07042253274 0.0744559977 0.07892805111)
5(0.06232391204 0.06663665196 0.07199047922 0.07619732947 0.08117824665)
5(0.06418191891 0.06857133883 0.07391793975 0.07791554045 0.08261379046)
5(0.06616914118 0.07032070325 0.0753355912 0.07959808867 0.08410816368)
5(0.0683163508 0.07278558118 0.07826358546 0.08180733478 0.08555350839)
5(0.07055778166 0.07472557936 0.08036204761 0.0834265834 0.08879795799)
5(0.07279885727 0.07705672385 0.08221058377 0.0854431149 0.08844533812)
5(0.0748692022 0.07922317248 0.08386955756 0.08694755626 0.09534101448)
5(0.07722981798 0.08177803694 0.08656235009 0.0887875313 0.09548245004)
5(0.07975997048 0.08404620518 0.08868405653 0.09200209455 0.09534248225)
5(0.0819723707 0.08648716973 0.09087487944 0.09720796741 0.09458678565)
5(0.0838703925 0.08797459124 0.09050425976 0.09709878401 0.09330975004)
5(0.0854611378 0.08963628229 0.09223036425 0.09632713083 0.09226558316)
5(0.08713322965 0.09051363382 0.09393385918 0.09499909246 0.09075609666)
5(0.08814489328 0.09173404414 0.09831774024 0.09332454262 0.08891789371)
5(0.08865967742 0.09379336594 0.09857244647 0.09141273075 0.0868516961)
5(0.08839962734 0.09254993479 0.0965832383 0.08918621037 0.08467294054)
5(0.08765061762 0.09577630756 0.09394955932 0.08673411313 0.08251185313)
5(0.08662846102 0.09299036252 0.09095953616 0.08412017152 0.08040969831)
5(0.08827286904 0.08951409535 0.08773111545 0.08142717744 0.07831474439)
5(0.08633702188 0.08568268605 0.0842990463 0.07870206167 0.07624131099)
5(0.08229207656 0.08169438952 0.08074401166 0.07598036312 0.07420150716)
5(0.07744307563 0.07747284455 0.07708916923 0.07327711168 0.07225906577)
5(0.07183531365 0.07309164552 0.07332779274 0.07060861243 0.07039271796)
5(0.06534630776 0.06850001347 0.06940500923 0.06794169695 0.06876326406)
5(0.05900480081 0.0630235869 0.06516201424 0.06531391501 0.06735964776)
5(0.05288814396 0.05704638876 0.05958218145 0.06570629424 0.06611021617)
5(0.04518653301 0.0488559742 0.04874943678 0.04951359926 0.05376001006)
)


60
(
5(0.01948741544 0.02300391257 0.02665504391 0.03191209412 0.03402928258)
5(0.02360541301 0.0269066639 0.03032071948 0.03477188336 0.0380488973)
5(0.02598199572 0.02913173554 0.03283933667 0.0367043789 0.04073775419)
5(0.02730670736 0.03039077633 0.0343849867 0.0379925745 0.04220869366)
5(0.02829907249 0.03136830142 0.03526036462 0.03891830514 0.0429569449)
5(0.02916307607 0.03230556037 0.03601783166 0.03975229873 0.04357797167)
5(0.02998374906 0.03314124472 0.03687392966 0.04051495938 0.0443276064)
5(0.03079557566 0.03394748148 0.0376612591 0.04127190075 0.04514958983)
5(0.03158295686 0.03472726901 0.03845075007 0.04204614556 0.04595549482)
5(0.03230900968 0.03546007357 0.03917647884 0.04274930081 0.0467061338)
5(0.03302722032 0.03615232617 0.03987680127 0.04342891773 0.04737263165)
5(0.03369975769 0.03685000089 0.04053653439 0.04409723437 0.04801119433)
5(0.03437082584 0.03752062887 0.04120712365 0.04476758949 0.04867470627)
5(0.03504145525 0.03819352345 0.04187821464 0.04540706903 0.04932324351)
5(0.03570925088 0.03886825046 0.04255796513 0.04606691701 0.04998337387)
5(0.0363682131 0.03952919045 0.04322445959 0.0467222203 0.05063735567)
5(0.0370339276 0.04020074299 0.04388786115 0.04738273419 0.05129706365)
5(0.03770460905 0.04086540979 0.04455493949 0.04803841161 0.05196444191)
5(0.03837778236 0.04156109425 0.04524730235 0.04872427832 0.05263842743)
5(0.03906187375 0.04224897894 0.04593569466 0.04939649842 0.05331540653)
5(0.03975507436 0.04295024447 0.0466521536 0.05012057038 0.05402292583)
5(0.04047059943 0.04368298325 0.0473809559 0.05081990917 0.05474989427)
5(0.04120845944 0.04442567864 0.04813724052 0.05158334827 0.05548861261)
5(0.04195134245 0.04517675036 0.04888442804 0.05237550703 0.05626646745)
5(0.04272780818 0.04596102233 0.04971567705 0.05316491035 0.05707338376)
5(0.04352139004 0.046779693 0.05051437273 0.05398236705 0.05789682647)
5(0.04434491631 0.04763143421 0.05138001821 0.05484269647 0.05875709114)
5(0.0451974596 0.0484963647 0.05227809459 0.05574993055 0.05968111306)
5(0.04608609524 0.04940463499 0.05320227181 0.05669036337 0.06059916767)
5(0.04700424832 0.05036057481 0.054188318 0.05769274938 0.0616217836)
5(0.04795171486 0.05135287089 0.05521009222 0.05873218868 0.06265459798)
5(0.04893877534 0.05238750689 0.05627600343 0.05982381151 0.06377372354)
5(0.04996469677 0.05346940137 0.05742434039 0.0609950266 0.06494395646)
5(0.05101554003 0.05460809954 0.0586166393 0.06221656382 0.06619872292)
5(0.05211171832 0.05578102053 0.05986445909 0.06352050508 0.06750265804)
5(0.05321576144 0.05702077935 0.06117621549 0.06489559996 0.06889164356)
5(0.05435911703 0.05830229221 0.06254375916 0.06637185271 0.07032667161)
5(0.05550966929 0.05962606949 0.06402025231 0.06789010423 0.07179246605)
5(0.0566523711 0.06103888606 0.06555410432 0.06945453528 0.07332821024)
5(0.05779853095 0.06241134982 0.06713781921 0.07109025203 0.07490035821)
5(0.05893291903 0.06391914151 0.06881457306 0.07275354129 0.07654440888)
5(0.06002846384 0.06532551787 0.07042043507 0.07443457267 0.0781702434)
5(0.06103292036 0.06676927073 0.07202885734 0.07612483628 0.0796319224)
5(0.06196055812 0.06821568837 0.07351940773 0.07769813479 0.08083511396)
5(0.06282870855 0.06944832217 0.07491277874 0.07913307161 0.08177354884)
5(0.06359619882 0.07052061246 0.07610582493 0.08026746477 0.08239983111)
5(0.0641947773 0.0713243682 0.07722443455 0.0810347685 0.0826293445)
5(0.06467323967 0.07197992778 0.07798445551 0.0814028047 0.08245926316)
5(0.06486470788 0.07234947847 0.0784241326 0.08135994159 0.08192997261)
5(0.0650468404 0.07253780555 0.07846438756 0.08090236065 0.08105950369)
5(0.06496106096 0.07244554142 0.07803919436 0.08000790725 0.07995654901)
5(0.06477208308 0.07205098631 0.07721616176 0.07876232131 0.07861236484)
5(0.06446216251 0.07129218411 0.07597506009 0.0771994005 0.07712978498)
5(0.06404099479 0.07020598583 0.07439619125 0.07545421704 0.07546210909)
5(0.06346292597 0.06870298613 0.07251994451 0.07347105975 0.07373260702)
5(0.06260712296 0.06698749741 0.07043964471 0.07134847832 0.07193635897)
5(0.06150273046 0.06506794678 0.06816959836 0.06914713312 0.06997680812)
5(0.06007377491 0.06291751452 0.06573277362 0.06676302774 0.06788663824)
5(0.05813083215 0.0605326186 0.06316005941 0.06413428498 0.06557468101)
5(0.05437676674 0.05580434765 0.05974851947 0.05990117674 0.06175355238)
)


60
(
5(0.01914125558 0.02229743352 0.02606611666 0.03095164942 0.03310276065)
5(0.02303619138 0.02607715868 0.02938468915 0.03348529819 0.03654322811)
5(0.02526352053 0.02825568614 0.03163362995 0.03525757974 0.03879446417)
5(0.0265457044 0.02949637717 0.03308657694 0.03648241353 0.04015084255)
5(0.02753858832 0.03047107587 0.03403034888 0.037392078 0.04097325177)
5(0.02844926294 0.03140108671 0.03481170813 0.03821693635 0.04168609589)
5(0.02928446596 0.03224532802 0.03562518418 0.03898303996 0.04244115847)
5(0.03008331579 0.03303537154 0.03641984797 0.03974853728 0.04322305141)
5(0.03084777147 0.03378702511 0.03716720862 0.04046237007 0.04397958129)
5(0.03157299099 0.03449549195 0.03788166906 0.04115513839 0.04465807571)
5(0.03227130355 0.03519251878 0.03854878223 0.04180327961 0.04531428921)
5(0.03294247336 0.03586514923 0.03920667338 0.04245573264 0.04594798537)
5(0.03359697358 0.03651174167 0.03985294101 0.04307925361 0.04657452154)
5(0.03424428324 0.03716318015 0.04049148264 0.04370992557 0.04720210636)
5(0.03488546281 0.03779989588 0.04112362494 0.0443352675 0.04782086733)
5(0.0355248141 0.03843678475 0.04175264812 0.04495825149 0.04844151581)
5(0.03615616661 0.03906991058 0.04238452165 0.04557508826 0.04906323697)
5(0.0367907432 0.03970297888 0.04303297043 0.04617629903 0.0496928537)
5(0.03742582261 0.04034239702 0.04365071515 0.04683123269 0.0503172358)
5(0.03806496204 0.0409850958 0.04430462873 0.04745356009 0.05095518224)
5(0.03871619493 0.04163101872 0.04495916113 0.04810125629 0.05160426256)
5(0.03936513801 0.04229180411 0.04563371114 0.04878056685 0.05226878301)
5(0.04003166082 0.04295805299 0.04629913877 0.04943764251 0.05295132637)
5(0.0407037185 0.04364247564 0.0469931342 0.05013417879 0.05365846561)
5(0.04140095572 0.04434740727 0.04770574889 0.05085388778 0.05438291065)
5(0.04209202596 0.04504119914 0.04843896894 0.05158107349 0.0551408006)
5(0.04281206688 0.0458003366 0.04920137658 0.05235571981 0.05592219504)
5(0.04355196772 0.04652980872 0.04996712024 0.05312832871 0.0567416347)
5(0.0443005089 0.04730528798 0.05078474954 0.05398104263 0.05758324156)
5(0.04505359971 0.04810841677 0.05160819358 0.05482304326 0.05846928252)
5(0.04583302767 0.04891879975 0.05246451932 0.05573143962 0.05939595464)
5(0.04662742726 0.04976362462 0.05337125577 0.05667762634 0.06037476447)
5(0.04742023589 0.05065308927 0.05429761503 0.05766592815 0.06142843284)
5(0.04821772682 0.05151127322 0.0552699792 0.0587069831 0.06252866122)
5(0.04901817383 0.05243341818 0.05629581963 0.05981057519 0.06370329555)
5(0.04984567115 0.05337153008 0.05734102127 0.06097329138 0.06493442146)
5(0.05061252399 0.05432595314 0.05844285139 0.062194392 0.06622864015)
5(0.05137844992 0.05529488474 0.05959539558 0.06349123821 0.06758145308)
5(0.05210072173 0.05628741319 0.06081188707 0.06484773821 0.06904359189)
5(0.05279116214 0.05730622407 0.0620690445 0.06628783725 0.0705914092)
5(0.05345763217 0.05832677791 0.06334376522 0.06779009676 0.07223184927)
5(0.05401235466 0.05929916341 0.06468192713 0.06932294871 0.07389145254)
5(0.05453110486 0.06028896667 0.06597542236 0.07092422756 0.07553750964)
5(0.05498622818 0.06125214306 0.0672449716 0.07252094137 0.07706713989)
5(0.05540100787 0.06219864117 0.06847266761 0.07404887912 0.07839862992)
5(0.05584631371 0.06300754718 0.06963663093 0.07543811264 0.07947634238)
5(0.05627708523 0.06368446607 0.07070153668 0.07655114448 0.08025298383)
5(0.05674939454 0.06428367691 0.07159613973 0.07734546764 0.08068678536)
5(0.05718286602 0.06484213067 0.07226065255 0.0778550899 0.0807574263)
5(0.05758998976 0.06519625578 0.07265651276 0.07792565879 0.08042349361)
5(0.05796925608 0.06548076796 0.07269212535 0.07759952787 0.07971244771)
5(0.05828246679 0.06555264839 0.07234582124 0.07687870628 0.07872270896)
5(0.05851517833 0.0653935874 0.07170097088 0.07578395765 0.07747473707)
5(0.05862348529 0.06492144717 0.07073494457 0.07442989902 0.07599493722)
5(0.05859035017 0.06425464601 0.06947850286 0.07278096525 0.07430093342)
5(0.05837452755 0.06333573081 0.06795124869 0.07090223518 0.07244997011)
5(0.05797472573 0.06220721056 0.06623324599 0.06883195708 0.07039679799)
5(0.05730412589 0.06087551278 0.06433225446 0.06655005873 0.06814762633)
5(0.05620623793 0.05919238649 0.06219135714 0.0640881328 0.06568972541)
5(0.05397324271 0.05609232616 0.05874916394 0.05981774938 0.06120641771)
)


60
(
5(0.01895697722 0.02194018538 0.02571859465 0.03039496185 0.03250577932)
5(0.02277325943 0.02568927472 0.02888018224 0.03280152446 0.0356789816)
5(0.02496269909 0.02785508091 0.03103733418 0.03450681527 0.0377623746)
5(0.02623105015 0.02909597039 0.03245950807 0.03570613741 0.03905570379)
5(0.02723745583 0.03007131196 0.03342792559 0.03662054526 0.03991735767)
5(0.02816244585 0.03100171961 0.03422613822 0.03742972875 0.04065918286)
5(0.02900394824 0.03183192222 0.03502441849 0.03820362533 0.04141272897)
5(0.02979688481 0.03262290366 0.03581366788 0.03895067377 0.04216762829)
5(0.03056019234 0.03336670182 0.03654063589 0.0396512699 0.04289128728)
5(0.0312799988 0.03407135272 0.03724180062 0.04031643176 0.0435626508)
5(0.03196709021 0.03474900447 0.0378970661 0.04096109561 0.0442011509)
5(0.03263064216 0.03540730375 0.03854728521 0.04159342823 0.04481910636)
5(0.03328007197 0.03604870115 0.03917361181 0.0422009631 0.04542274452)
5(0.03391567701 0.03667596213 0.03979666216 0.04280304226 0.04603942336)
5(0.03454066078 0.03730129671 0.04040790582 0.04340744985 0.04663028876)
5(0.03515758049 0.0379113051 0.04101084514 0.04401100258 0.04723161725)
5(0.03577206351 0.03852356214 0.04161616525 0.04458622579 0.04782143633)
5(0.0363804452 0.03912670386 0.0422210738 0.04520168584 0.0484151429)
5(0.03698932193 0.03973027487 0.04282496502 0.045780386 0.04902158595)
5(0.03760121842 0.04033859023 0.04344197675 0.04639273133 0.04962083803)
5(0.03821496834 0.04095191579 0.04404400831 0.04698864932 0.05023939564)
5(0.03882289059 0.04155621302 0.04467564943 0.04761349526 0.05086438382)
5(0.03944111287 0.04218229629 0.04529316733 0.04822825802 0.05150220702)
5(0.04007003825 0.04280904702 0.04594770295 0.04886394663 0.05215588289)
5(0.04069752936 0.04344583989 0.04658629119 0.04951779428 0.05281821758)
5(0.04133338588 0.04408002533 0.04724483659 0.05018987789 0.05350780049)
5(0.04197374366 0.04473766919 0.04791500371 0.05087613325 0.0542228897)
5(0.04262771807 0.04540244235 0.04861023425 0.05157329616 0.05494351651)
5(0.04328235083 0.04607437587 0.04931873327 0.05231569938 0.05572986564)
5(0.04393560543 0.0467657605 0.05003510635 0.05306561364 0.05651350894)
5(0.04459996861 0.04745396664 0.0507671407 0.05384712416 0.05735373946)
5(0.04524990282 0.04814847724 0.05156135177 0.05466354298 0.05821697077)
5(0.04589367096 0.04887290807 0.05231312179 0.0555055115 0.05913468413)
5(0.04653615928 0.04958080707 0.05312098613 0.05639821955 0.06008846794)
5(0.04714431568 0.05029955537 0.05393462524 0.05732659051 0.06112886277)
5(0.04773921225 0.05100200764 0.05477752149 0.05827618212 0.06220369328)
5(0.04827831021 0.05171884376 0.05567251731 0.05928887269 0.06334158438)
5(0.04877427986 0.05242821065 0.05654999071 0.06036132685 0.06455802121)
5(0.04921136942 0.05312659328 0.05747408083 0.06149622886 0.06584887824)
5(0.04958811072 0.05380327647 0.05842289137 0.06267866619 0.06727612951)
5(0.04987625349 0.05445013022 0.05938980878 0.06393865998 0.06875620823)
5(0.05011949573 0.05507258438 0.06039406912 0.06526718196 0.07036290306)
5(0.05028203691 0.05567432197 0.06138340059 0.06665100146 0.07198334761)
5(0.05044345227 0.05628228793 0.06238178528 0.06811219242 0.07357633475)
5(0.05062067009 0.0568660312 0.06333626212 0.06957051291 0.07505538826)
5(0.0508751464 0.05746139736 0.06433761556 0.07095830973 0.07641187842)
5(0.05120486085 0.05805835746 0.0652617122 0.07220202178 0.07754025417)
5(0.05166430902 0.05860791544 0.06611782146 0.07318671824 0.0783848396)
5(0.05227117184 0.05917528081 0.06691125375 0.0739143085 0.07889318767)
5(0.05280725036 0.05974163448 0.06743819483 0.07434853817 0.07903223538)
5(0.05351025639 0.06032004157 0.06775298919 0.074421615 0.07872180067)
5(0.05418443698 0.06073437777 0.06781170251 0.07411320053 0.07812307039)
5(0.05479445813 0.06100570016 0.06758498793 0.07349282169 0.0771414427)
5(0.05524509315 0.06104365723 0.06713915978 0.07250063729 0.07585424284)
5(0.05559572343 0.06092154698 0.06644559262 0.07124845959 0.07427496891)
5(0.05571822752 0.06057133283 0.0655306997 0.06972571107 0.07240614159)
5(0.05567481864 0.06000942529 0.06436609015 0.06790971908 0.07039715685)
5(0.05536574192 0.05921914874 0.06298983784 0.06594232686 0.06817470684)
5(0.05476699342 0.05805744914 0.0612528944 0.06373765616 0.06564116685)
5(0.05342880784 0.05645100797 0.0578984073 0.05981890604 0.06124635026)
)


60
(
5(0.01885372047 0.02173537416 0.02549491263 0.03003256316 0.03208504107)
5(0.02264351213 0.02547512823 0.0285745977 0.03237791199 0.03510984956)
5(0.02482206817 0.02763999866 0.03069325731 0.03404383004 0.03710694318)
5(0.02609011774 0.02888935897 0.03210635181 0.03523643654 0.03837677149)
5(0.02710626771 0.02986868307 0.03308229612 0.03614733265 0.03924616132)
5(0.02803992911 0.03079136535 0.03388871844 0.03696115377 0.04000014481)
5(0.02888665136 0.03162827421 0.0346827084 0.03772621132 0.04075558406)
5(0.02968052386 0.03241325823 0.03546601077 0.0384595778 0.0414911642)
5(0.03043999531 0.03314919355 0.0361834714 0.03915200766 0.04220015131)
5(0.0311585251 0.03386017735 0.03687678218 0.03981405182 0.04286145021)
5(0.03184189564 0.03452025031 0.03752003898 0.04044246016 0.043485751)
5(0.03250074009 0.03517708691 0.03816297707 0.04105251649 0.04409098408)
5(0.03314321192 0.03580571827 0.03876821113 0.04165500788 0.04468547268)
5(0.03377377143 0.03642517903 0.03938711507 0.04224232923 0.045273146)
5(0.03438940025 0.03702958534 0.03997385526 0.04282509175 0.04585951243)
5(0.0349959096 0.03762858465 0.04058015135 0.04340041795 0.04644085132)
5(0.03559368919 0.03821867802 0.04115320418 0.04396416176 0.04700916661)
5(0.03618717082 0.0388055898 0.04172824892 0.04456033409 0.04758466365)
5(0.0367806231 0.03938955807 0.04231939205 0.04510317777 0.04815578315)
5(0.03736687494 0.0399688768 0.04289212715 0.04568824174 0.04873573706)
5(0.03795410979 0.04055789226 0.04347611815 0.04626106408 0.04931345915)
5(0.03854240661 0.04112840868 0.04405671649 0.04683217059 0.0499069846)
5(0.03912991768 0.04171923704 0.04465432229 0.04742604656 0.05050498167)
5(0.039725043 0.04230338075 0.04524713583 0.04801700502 0.05111025043)
5(0.04030547158 0.04288541792 0.04583975273 0.04861948971 0.05173339287)
5(0.04090519133 0.04348879242 0.0464506662 0.04922636574 0.05237010328)
5(0.04149898925 0.04407866188 0.04706220858 0.04984884628 0.05301305452)
5(0.04209608113 0.04468404312 0.0476923126 0.05049532456 0.05367764094)
5(0.04266774337 0.04529737783 0.0483155807 0.051138318 0.05437112284)
5(0.0432626029 0.04590606236 0.04895276197 0.05181537829 0.05507582855)
5(0.04382729237 0.04649888474 0.04959579992 0.05249008751 0.05582672528)
5(0.04439817935 0.04710808829 0.05025942658 0.05319947064 0.05658526727)
5(0.04493813349 0.04769807063 0.05092502422 0.05391041387 0.05738424943)
5(0.04545028473 0.04829596933 0.05157307747 0.05466435835 0.05821505659)
5(0.04593578263 0.04886644718 0.05225659037 0.05544074069 0.0591116258)
5(0.046369921 0.04940446661 0.05291311776 0.05623807844 0.06004610997)
5(0.04673613925 0.04995456739 0.05360327945 0.05706997939 0.06102456627)
5(0.04704419622 0.0504492682 0.05427947793 0.05792704346 0.06206158193)
5(0.04726478609 0.05089364641 0.05496018666 0.05882490645 0.06316381241)
5(0.04739806968 0.05131531597 0.0556530587 0.05974846983 0.06436979693)
5(0.04746223586 0.05167493756 0.0563266794 0.06075254575 0.06568398996)
5(0.04746070439 0.05200676704 0.05699749118 0.06180159474 0.06709217367)
5(0.04742108908 0.0523015749 0.057693781 0.0629410716 0.06856396798)
5(0.04738632923 0.05258662309 0.05836467792 0.0641239739 0.07005831899)
5(0.04741321925 0.05290948507 0.05906929698 0.06536314294 0.07152964729)
5(0.04749177793 0.05326595327 0.05975675211 0.06660229018 0.07295003131)
5(0.04773896627 0.05364263104 0.06050503349 0.06775925641 0.07419367984)
5(0.04810294737 0.05414358872 0.0612985283 0.06878988813 0.07523281485)
5(0.04863639245 0.05474447136 0.06205738311 0.0696201315 0.07601600579)
5(0.04926005635 0.05541492804 0.06267888024 0.0702008367 0.076494494)
5(0.05001465739 0.05617594517 0.06318990445 0.07052232982 0.07659480741)
5(0.05080002271 0.05687011452 0.06354755081 0.07057078114 0.07632604995)
5(0.05164050226 0.05742173424 0.06366762892 0.07028341018 0.07569271706)
5(0.05239688273 0.05780854534 0.06362179553 0.06974228352 0.0746885069)
5(0.05301966571 0.05798984834 0.06336266636 0.06889064358 0.07337802048)
5(0.05347516364 0.05800768704 0.06292747023 0.06780837508 0.07175215591)
5(0.05365682727 0.05778842534 0.06226486912 0.06646352268 0.06988618858)
5(0.05361737391 0.05732844896 0.06135466851 0.06488565019 0.06777397889)
5(0.05332130287 0.05653913503 0.05995311025 0.06294622441 0.06538147212)
5(0.05253351464 0.05523578395 0.05773593243 0.05956011147 0.06117078806)
)


60
(
5(0.01879547357 0.02160869744 0.02534330994 0.0297835166 0.03177314275)
5(0.02258050539 0.02535345694 0.02838248608 0.03208975684 0.03471143788)
5(0.02476006717 0.02752966533 0.03047835396 0.03374002879 0.03665705589)
5(0.02603310232 0.02877951244 0.03189170742 0.03492448505 0.03791213867)
5(0.02705730463 0.02975467078 0.03287294288 0.03584127381 0.03878779812)
5(0.02799971283 0.03069253504 0.03367281685 0.03664528499 0.03954817389)
5(0.02884865281 0.03152699335 0.03448715016 0.03741710274 0.0402974286)
5(0.02964601599 0.03230788757 0.03524600336 0.03813538846 0.0410285538)
5(0.03040537806 0.03304881665 0.03598066142 0.03883006528 0.04172565086)
5(0.03112433669 0.03374119243 0.03664101711 0.03947290499 0.04237663905)
5(0.03180711055 0.03441665261 0.03730599297 0.04010637206 0.04299202441)
5(0.03246692933 0.03505645857 0.03791643798 0.04069763727 0.04358659767)
5(0.03310474171 0.03568386129 0.03853665247 0.04129295205 0.04417053709)
5(0.03372707313 0.03629552114 0.03912357851 0.041861398 0.04474304046)
5(0.03433742901 0.03689408944 0.03971765643 0.0424354734 0.04530890646)
5(0.03493762055 0.03747970441 0.04028663715 0.04298759944 0.04586849705)
5(0.03553255768 0.03805870841 0.04086291797 0.04355070825 0.0464238048)
5(0.03611380416 0.03863208357 0.04142502514 0.0440910127 0.04698058546)
5(0.03669688529 0.03920474551 0.04198608036 0.04464640654 0.047527508)
5(0.03726658365 0.03976396697 0.04254053364 0.04518532107 0.04808130706)
5(0.03783460232 0.04033352682 0.04310526229 0.04573709603 0.04863124576)
5(0.03840750063 0.04088281937 0.04365295817 0.04628264888 0.04918816206)
5(0.03897497729 0.04144642382 0.04421944474 0.04684508337 0.04975296517)
5(0.03954286221 0.04200565462 0.04478211756 0.04739496317 0.0503245791)
5(0.04010376633 0.04255718382 0.04533874022 0.04795783019 0.05089407994)
5(0.0406734933 0.04312534955 0.04591314655 0.04852267294 0.05148046384)
5(0.04123018636 0.04368208713 0.04647861283 0.04908056404 0.05208105389)
5(0.04177929767 0.04424685838 0.04704289526 0.0496753894 0.05270067375)
5(0.04231921259 0.04480090195 0.04761891389 0.0502661587 0.05332346764)
5(0.0428618318 0.04533048362 0.04818419014 0.05084661084 0.05395827948)
5(0.04337400337 0.0458920802 0.0487652971 0.05145615197 0.05460855304)
5(0.04387321856 0.04643420179 0.04933420919 0.05206922608 0.05527124047)
5(0.04433505377 0.04693030866 0.04990248772 0.05269282813 0.05596904262)
5(0.0447561455 0.04743172184 0.05045891406 0.05332422079 0.05667966833)
5(0.04514183687 0.04789836163 0.05102993626 0.05395445821 0.05742438574)
5(0.04545489084 0.04834537711 0.05155931645 0.05460943827 0.05821149464)
5(0.04571207479 0.04874532234 0.05206740062 0.05527920408 0.05901204593)
5(0.04586782604 0.04907041118 0.05259086362 0.05595269017 0.05988675451)
5(0.0459405578 0.0493433621 0.0530738909 0.05664101349 0.06078199122)
5(0.04591127285 0.04956608381 0.0535224354 0.05736831627 0.06176049165)
5(0.04580166582 0.0497054924 0.05396161423 0.05809989074 0.0629079546)
5(0.04564566379 0.04980204417 0.05435384004 0.05887918185 0.0640568036)