/*--------------------------------*- C++ -*----------------------------------*\
| =========                 |                                                 |
| \\      /  F ield         | OpenFOAM: The Open Source CFD Toolbox           |
|  \\    /   O peration     | Version:  2.3.1                                 |
|   \\  /    A nd           | Web:      www.OpenFOAM.org                      |
|    \\/     M anipulation  |                                                 |
\*---------------------------------------------------------------------------*/
FoamFile
{
    version     2.0;
    format      ascii;
    class       dictionary;
    location    "constant";
    object      GRPSI59;
}
// * * * * * * * * * * * * * * * * * * * * * * * * * * * * * * * * * * * * * //

GRPSI59_table
60
(

60
(
5(-3.360102456e-08 -5.383147086e-09 4.000246097e-10 -8.7134295e-09 4.607822171e-09)
5(-3.077559596e-08 -4.733083634e-09 5.261908114e-09 -6.210651373e-09 -1.635690276e-09)
5(-7.090387063e-07 -3.550605282e-07 -4.184213169e-09 -9.63745231e-09 -1.198882847e-08)
5(-1.967342165e-06 -9.849847394e-07 -9.88388856e-09 -4.850151393e-09 7.440160089e-09)
5(-2.552734626e-06 -1.276538233e-06 -5.633073985e-09 -7.665455404e-09 -4.406603724e-09)
5(-2.380006155e-06 -1.195957836e-06 -4.57969502e-09 -2.493679523e-09 -7.737485496e-09)
5(-1.368219288e-08 -1.093187411e-08 -6.487081646e-09 -8.364011571e-10 3.119805638e-09)
5(2.006523026e-09 4.901237737e-10 -6.218344471e-09 -1.102241526e-08 -1.063441705e-08)
5(-2.984823131e-06 -1.494384654e-06 -7.762253104e-09 -1.010667317e-08 -8.635015974e-09)
5(-4.759145482e-06 -2.385909875e-06 -1.729012106e-08 -1.472069155e-08 -7.535408709e-09)
5(-5.274973427e-06 -2.649568422e-06 -2.297755547e-08 -1.587709245e-08 -9.962491189e-09)
5(-1.889265271e-06 -9.502740563e-07 -1.457948251e-08 -1.481589231e-08 -1.175566143e-08)
5(-1.253089409e-09 -9.426303112e-09 -1.601649311e-08 -1.511104197e-08 -1.578861453e-08)
5(-1.011078655e-08 -1.53470945e-08 -2.182688572e-08 -1.931981705e-08 -1.556926512e-08)
5(-5.975060308e-09 -1.470994783e-08 -2.211530318e-08 -2.13576578e-08 -2.192954457e-08)
5(-1.557742208e-07 -1.064088773e-07 -4.4948146e-08 -3.12695208e-08 -2.968628326e-08)
5(-1.548322076e-07 -1.017491063e-07 -4.725362732e-08 -3.838111519e-08 -3.092098079e-08)
5(-5.753725912e-08 -5.883684678e-08 -4.718161e-08 -3.516647256e-08 -3.610615955e-08)
5(1.63239375e-09 -2.562012894e-08 -4.666222062e-08 -3.840542157e-08 -3.635905351e-08)
5(-8.022526413e-09 -3.015879929e-08 -4.833058629e-08 -4.99641683e-08 -5.556223619e-08)
5(-1.002314761e-08 -3.65278293e-08 -5.530969764e-08 -5.976269895e-08 -7.193851361e-08)
5(-1.246706413e-08 -3.568319156e-08 -7.690518862e-08 -8.530341133e-08 -7.569576439e-08)
5(-1.320156405e-08 -4.852698886e-08 -8.549850696e-08 -9.519194015e-08 -1.0323928e-07)
5(2.58921611e-08 -5.101071212e-08 -1.145793015e-07 -1.193438504e-07 -1.374426832e-07)
5(1.038031039e-07 -6.143532635e-08 -1.702355799e-07 -1.522471592e-07 -1.906969151e-07)
5(2.978587531e-07 -3.960476615e-08 -2.588936441e-07 -2.203008358e-07 -2.998826687e-07)
5(3.227992049e-07 -4.061302813e-08 -2.558028318e-07 -2.722310302e-07 -4.36881658e-07)
5(2.488597344e-07 1.214671863e-08 -1.882581432e-07 -3.987168076e-07 -6.45483626e-07)
5(3.8471244e-07 -2.637464319e-10 -2.869104319e-07 -5.2970019e-07 -8.70819449e-07)
5(7.113975712e-07 3.746972199e-08 -5.179344355e-07 -7.91741926e-07 -1.184073108e-06)
5(1.083164238e-06 1.294789349e-07 -7.050616689e-07 -1.240169691e-06 -1.894422411e-06)
5(1.443921577e-06 5.907506892e-08 -1.253920709e-06 -2.108783168e-06 -3.035496356e-06)
5(2.152653376e-06 1.331313635e-07 -1.992164895e-06 -2.770420465e-06 -3.44290179e-06)
5(2.860102702e-06 1.623458387e-07 -3.374603356e-06 -5.232602636e-06 -6.251409583e-06)
5(2.832274366e-06 -5.172343688e-07 -5.05182489e-06 -7.521480363e-06 -8.80605405e-06)
5(3.793696652e-06 -3.735094973e-07 -8.03657486e-06 -1.162208815e-05 -1.171174222e-05)
5(5.71166279e-07 -4.616445605e-06 -1.154397499e-05 -1.27193295e-05 -1.215476651e-05)
5(-3.083001281e-07 -8.024738797e-06 -1.628804106e-05 -1.881279895e-05 -2.079069326e-05)
5(-5.966319996e-06 -1.222261678e-05 -2.176022396e-05 -2.035937411e-05 -1.567721387e-05)
5(-1.445712316e-05 -1.789279134e-05 -2.650856661e-05 -2.786244038e-05 -2.403620707e-05)
5(-2.615524225e-05 -2.755657793e-05 -2.903508696e-05 -2.37583581e-05 -1.840445591e-05)
5(-3.42294707e-05 -3.378569912e-05 -3.06181979e-05 -1.957974118e-05 -1.126501411e-05)
5(-4.594751418e-05 -3.939482696e-05 -2.965678611e-05 -1.323571625e-05 1.888758924e-23)
5(-4.784390352e-05 -3.468727122e-05 -2.451702929e-05 -1.360116483e-05 3.010900048e-07)
5(-4.905852176e-05 -3.365259103e-05 -1.630788654e-05 -7.172678459e-06 2.375585419e-08)
5(-3.764090793e-05 -2.706216408e-05 -1.038407722e-05 -2.142367113e-06 4.624650865e-22)
5(-2.772063298e-05 -1.800914607e-05 -4.712716588e-06 -5.93148183e-07 -5.85223575e-08)
5(-2.322194153e-05 -1.230393488e-05 -8.191305113e-07 -1.261664002e-07 3.319020424e-21)
5(-9.038453279e-06 -4.83946534e-06 -3.339438682e-07 -1.37051678e-08 8.49552056e-21)
5(-3.591553798e-06 -1.801951612e-06 -6.174713285e-09 1.369883103e-20 2.087883073e-20)
5(-1.285996801e-06 -6.429984003e-07 9.629526997e-21 3.274363601e-20 4.972077377e-20)
5(-2.448375664e-07 -1.224187832e-07 2.254492223e-20 7.563605203e-20 1.145481239e-19)
5(-2.307188576e-09 -1.153594288e-09 5.129168364e-20 1.697833201e-19 2.563747208e-19)
5(1.127609161e-20 2.772704708e-20 1.132563569e-19 3.728468021e-19 5.63358893e-19)
5(2.493290758e-20 6.125496938e-20 2.445617923e-19 7.930490543e-19 1.194551555e-18)
5(2.788347589e-20 1.193094051e-19 5.104988557e-19 1.638601716e-18 2.466941056e-18)
5(3.053080699e-21 2.241598515e-19 1.038197303e-18 3.221233015e-18 4.811338047e-18)
5(2.441581393e-19 4.969964931e-19 1.951479157e-18 6.106657048e-18 9.06019063e-18)
5(7.009117895e-19 1.453778728e-18 2.573591669e-18 1.066902705e-17 1.839751643e-17)
5(1.479120785e-18 3.578541534e-18 1.428250308e-17 3.53011896e-17 4.771533532e-17)
)


60
(
5(-4.532550986e-08 -9.817172225e-09 -3.094185245e-09 -1.56017774e-08 6.759811018e-10)
5(-2.014292507e-08 -1.146460221e-08 -9.398476544e-09 -1.298357449e-08 -9.956475229e-09)
5(-8.13211525e-09 -1.203373986e-08 -1.307936638e-08 -1.268097894e-08 -1.513858958e-08)
5(-4.287145562e-09 -1.253766342e-08 -1.533017706e-08 -1.385166709e-08 -1.783116134e-08)
5(-6.984178445e-09 -1.40879719e-08 -1.715048298e-08 -1.598141969e-08 -1.885363876e-08)
5(-1.196705151e-08 -1.667689401e-08 -1.906321186e-08 -1.807183246e-08 -1.940397771e-08)
5(-1.60434744e-08 -1.985942409e-08 -2.180876438e-08 -2.036209464e-08 -2.078203431e-08)
5(-1.773281979e-08 -2.319124432e-08 -2.528884235e-08 -2.296411869e-08 -2.400022153e-08)
5(-1.851046259e-08 -2.694797944e-08 -2.941510378e-08 -2.593670965e-08 -2.842870803e-08)
5(-1.960384272e-08 -3.07148387e-08 -3.397568993e-08 -2.921130077e-08 -3.229705636e-08)
5(-2.475950533e-08 -3.613435064e-08 -3.895939121e-08 -3.362029336e-08 -3.683100025e-08)
5(-2.847013271e-08 -4.126221454e-08 -4.482497619e-08 -3.886694089e-08 -4.213822576e-08)
5(-3.390622521e-08 -4.754001204e-08 -5.136156237e-08 -4.485517836e-08 -4.816103083e-08)
5(-3.997279859e-08 -5.478878138e-08 -5.932985628e-08 -5.22206725e-08 -5.538639663e-08)
5(-4.600966615e-08 -6.296356267e-08 -6.844767282e-08 -6.051344806e-08 -6.404900968e-08)
5(-5.246067548e-08 -7.176367435e-08 -7.82346002e-08 -6.927673654e-08 -7.315094591e-08)
5(-6.325480332e-08 -8.331096009e-08 -8.8977646e-08 -7.868262183e-08 -8.277706853e-08)
5(-7.216360562e-08 -9.452053429e-08 -1.005618275e-07 -8.963878339e-08 -9.503137478e-08)
5(-7.945825493e-08 -1.056962248e-07 -1.129667787e-07 -1.010707923e-07 -1.08142222e-07)
5(-8.594857534e-08 -1.166238199e-07 -1.247165458e-07 -1.127810504e-07 -1.234280735e-07)
5(-8.916830879e-08 -1.258153358e-07 -1.351759777e-07 -1.229098925e-07 -1.379301923e-07)
5(-8.703179885e-08 -1.308447524e-07 -1.425671068e-07 -1.325087339e-07 -1.545409602e-07)
5(-6.612806376e-08 -1.258929873e-07 -1.44039496e-07 -1.36451369e-07 -1.704816567e-07)
5(-1.723082643e-08 -1.025079302e-07 -1.318120349e-07 -1.328960591e-07 -1.899530824e-07)
5(6.128571547e-08 -5.714855606e-08 -9.860786018e-08 -1.114772449e-07 -2.01321597e-07)
5(2.121686355e-07 3.592868894e-08 -2.800656138e-08 -6.051023819e-08 -2.053186113e-07)
5(4.578439636e-07 2.018046664e-07 1.021275574e-07 2.912493694e-08 -2.002398718e-07)
5(8.591824348e-07 4.826845784e-07 3.198373072e-07 1.655441849e-07 -2.023995227e-07)
5(1.480876852e-06 9.300050315e-07 6.626312473e-07 3.87136266e-07 -1.718567522e-07)
5(2.437053327e-06 1.627089004e-06 1.176358423e-06 6.957907657e-07 -1.440106324e-07)
5(3.791567046e-06 2.643790142e-06 1.909787087e-06 1.071550306e-06 -1.804603259e-07)
5(5.716627712e-06 4.066433308e-06 2.866525365e-06 1.503099358e-06 -3.106131092e-07)
5(8.256234833e-06 5.979569244e-06 4.060719224e-06 1.883212065e-06 -6.521106632e-07)
5(1.149235268e-05 8.382708632e-06 5.368005887e-06 1.908152537e-06 -1.646642113e-06)
5(1.537649237e-05 1.12053948e-05 6.498171992e-06 1.276347331e-06 -3.409352095e-06)
5(1.950117846e-05 1.411569872e-05 7.110826905e-06 -5.587847457e-07 -6.609004321e-06)
5(2.342759184e-05 1.661901928e-05 6.526263928e-06 -4.144300489e-06 -1.153068211e-05)
5(2.636879129e-05 1.792719757e-05 3.99664776e-06 -1.004501248e-05 -1.859771662e-05)
5(2.691566397e-05 1.696537659e-05 -1.176598634e-06 -1.896439707e-05 -2.856050766e-05)
5(2.424973934e-05 1.265860259e-05 -9.858935049e-06 -3.126322468e-05 -4.174111343e-05)
5(1.657900025e-05 3.998649645e-06 -2.175268615e-05 -4.606014693e-05 -5.719662254e-05)
5(4.647802458e-06 -8.542707844e-06 -3.659038292e-05 -6.13041603e-05 -7.116077292e-05)
5(-1.258675102e-05 -2.458819384e-05 -5.207895422e-05 -7.318808585e-05 -7.880789994e-05)
5(-3.276002811e-05 -4.148775604e-05 -6.486770172e-05 -7.819526784e-05 -7.687061622e-05)
5(-5.086774182e-05 -5.589746474e-05 -7.194184574e-05 -7.437635397e-05 -6.579620413e-05)
5(-6.367716135e-05 -6.448560574e-05 -7.043263959e-05 -6.233803477e-05 -4.910484048e-05)
5(-6.827420146e-05 -6.522370789e-05 -6.036550844e-05 -4.510312151e-05 -3.164844046e-05)
5(-6.323659845e-05 -5.721577365e-05 -4.476894677e-05 -2.774985216e-05 -1.715675962e-05)
5(-5.089796512e-05 -4.331064049e-05 -2.826571722e-05 -1.422558312e-05 -7.643047662e-06)
5(-3.444223842e-05 -2.726625282e-05 -1.473176606e-05 -6.04825746e-06 -2.723250029e-06)
5(-1.942940236e-05 -1.425117106e-05 -6.167230956e-06 -2.043391492e-06 -8.252608329e-07)
5(-8.231361215e-06 -5.687774066e-06 -2.030783871e-06 -5.651866574e-07 -2.129924896e-07)
5(-2.808555374e-06 -1.818372635e-06 -5.209411613e-07 -1.306851312e-07 -4.767783625e-08)
5(-6.26621761e-07 -3.913609203e-07 -9.689319105e-08 -2.332197987e-08 -8.957657203e-09)
5(-9.224721985e-08 -5.806590091e-08 -1.464061832e-08 -3.381803759e-09 -1.36695285e-09)
5(-8.0538212e-09 -5.059536376e-09 -1.331055332e-09 -3.737573919e-10 -1.506556723e-10)
5(-4.317193793e-10 -2.996420499e-10 -9.96325471e-11 -2.148157312e-11 -1.126277241e-11)
5(-1.236005126e-11 -8.70557136e-12 -2.782493066e-12 -7.026284682e-13 -8.913622655e-13)
5(-8.419159334e-13 6.119137698e-13 -2.980383168e-15 -6.531012874e-13 7.655016645e-13)
5(4.382687387e-18 1.839110686e-09 1.836231507e-17 -1.839110629e-09 7.249798243e-17)
)


60
(
5(-6.751901256e-08 -1.5508014e-08 -5.473544298e-09 -2.732049914e-08 -7.19092512e-09)
5(-3.695130786e-08 -2.277731179e-08 -1.833411151e-08 -2.458285227e-08 -2.110079725e-08)
5(-2.018889543e-08 -2.559532345e-08 -2.625172642e-08 -2.517266638e-08 -2.88436314e-08)
5(-1.608311478e-08 -2.789189649e-08 -3.12649103e-08 -2.817210818e-08 -3.351507395e-08)
5(-2.106625771e-08 -3.157590493e-08 -3.556266303e-08 -3.298079079e-08 -3.692180765e-08)
5(-3.14671405e-08 -3.780565458e-08 -4.058666624e-08 -3.812895884e-08 -3.922875385e-08)
5(-4.01707515e-08 -4.520837188e-08 -4.736913569e-08 -4.386634639e-08 -4.324041366e-08)
5(-4.58550311e-08 -5.332175065e-08 -5.548131232e-08 -5.016061533e-08 -5.014707623e-08)
5(-4.946254304e-08 -6.182416177e-08 -6.510369151e-08 -5.740124696e-08 -5.87808914e-08)
5(-5.696632147e-08 -7.25241073e-08 -7.615130599e-08 -6.669756042e-08 -6.917440201e-08)
5(-6.757476129e-08 -8.54151275e-08 -8.935876471e-08 -7.773565908e-08 -8.000928245e-08)
5(-8.316879835e-08 -1.013328369e-07 -1.045347385e-07 -9.098269578e-08 -9.239279007e-08)
5(-9.921996925e-08 -1.17980435e-07 -1.218080674e-07 -1.068285896e-07 -1.06781945e-07)
5(-1.187629661e-07 -1.383001125e-07 -1.421467712e-07 -1.254926633e-07 -1.24529043e-07)
5(-1.417203772e-07 -1.622714222e-07 -1.660201261e-07 -1.461165781e-07 -1.430153712e-07)
5(-1.728099482e-07 -1.922455525e-07 -1.934785515e-07 -1.698771245e-07 -1.644783028e-07)
5(-1.987160473e-07 -2.214018502e-07 -2.244356643e-07 -1.95825098e-07 -1.868665203e-07)
5(-2.313003958e-07 -2.556665371e-07 -2.583375185e-07 -2.229009349e-07 -2.091595113e-07)
5(-2.713447258e-07 -2.944702728e-07 -2.928262646e-07 -2.50967258e-07 -2.338778066e-07)
5(-3.117735339e-07 -3.339582297e-07 -3.286947616e-07 -2.808256202e-07 -2.604046428e-07)
5(-3.625321797e-07 -3.77563406e-07 -3.622262071e-07 -3.101067148e-07 -2.883556476e-07)
5(-3.981688229e-07 -4.119923063e-07 -3.914694561e-07 -3.30503649e-07 -3.038841754e-07)
5(-4.257815534e-07 -4.424963436e-07 -4.144995533e-07 -3.433966641e-07 -3.170053555e-07)
5(-4.37360565e-07 -4.582127153e-07 -4.192143702e-07 -3.387454988e-07 -3.18127123e-07)
5(-4.128780071e-07 -4.425877615e-07 -3.917456087e-07 -3.047170524e-07 -2.982404033e-07)
5(-3.127469693e-07 -3.656605738e-07 -3.073632535e-07 -2.213342082e-07 -2.465160875e-07)
5(-1.142765637e-07 -2.029661296e-07 -1.431317274e-07 -6.078940678e-08 -1.269710542e-07)
5(2.231436643e-07 8.475782501e-08 1.60605638e-07 2.18244242e-07 6.16491938e-08)
5(8.483269736e-07 6.079698295e-07 6.544689084e-07 6.689047387e-07 3.964843461e-07)
5(1.791093885e-06 1.430458331e-06 1.43373174e-06 1.359495223e-06 9.21349742e-07)
5(3.255654062e-06 2.697321568e-06 2.589024781e-06 2.273781059e-06 1.508501631e-06)
5(5.397832126e-06 4.538392563e-06 4.198735858e-06 3.534632397e-06 2.350746078e-06)
5(8.342961332e-06 7.110448093e-06 6.357269526e-06 5.002517581e-06 3.168430964e-06)
5(1.221351889e-05 1.049861601e-05 8.98616416e-06 6.633957532e-06 4.079299869e-06)
5(1.717775338e-05 1.476533017e-05 1.19993631e-05 8.001247589e-06 4.356675934e-06)
5(2.2995241e-05 1.968173312e-05 1.505969687e-05 8.79329246e-06 3.835416423e-06)
5(2.910915909e-05 2.479416961e-05 1.758647832e-05 8.158989098e-06 1.624201685e-06)
5(3.551546862e-05 2.963548497e-05 1.86799294e-05 5.284831737e-06 -3.034693993e-06)
5(4.028156505e-05 3.262662656e-05 1.720845521e-05 -9.968669827e-07 -1.143895631e-05)
5(4.250548301e-05 3.286434289e-05 1.213825024e-05 -1.163208398e-05 -2.431746567e-05)
5(4.053425578e-05 2.881128334e-05 2.509659508e-06 -2.696765419e-05 -4.18663165e-05)
5(3.275174745e-05 1.916763539e-05 -1.193675983e-05 -4.543031071e-05 -6.140357843e-05)
5(1.86015066e-05 4.032879502e-06 -3.011229602e-05 -6.408377375e-05 -7.847870305e-05)
5(-5.633126087e-07 -1.501148051e-05 -4.957695524e-05 -7.920798256e-05 -8.872170305e-05)
5(-2.348590306e-05 -3.591747301e-05 -6.611552418e-05 -8.651232215e-05 -8.91426389e-05)
5(-4.54764661e-05 -5.43502807e-05 -7.563261475e-05 -8.406654959e-05 -8.0091965e-05)
5(-6.12007003e-05 -6.625395717e-05 -7.582122719e-05 -7.169252587e-05 -6.304981139e-05)
5(-6.867843036e-05 -6.864651384e-05 -6.603098086e-05 -5.336879502e-05 -4.329022565e-05)
5(-6.541638496e-05 -6.110538991e-05 -4.958000959e-05 -3.392835477e-05 -2.549108522e-05)
5(-5.302645352e-05 -4.616536385e-05 -3.172239452e-05 -1.81852426e-05 -1.222997033e-05)
5(-3.632759892e-05 -2.926439759e-05 -1.664404665e-05 -7.995496436e-06 -4.904095819e-06)
5(-1.988400876e-05 -1.490924549e-05 -6.970302175e-06 -2.75507378e-06 -1.504025431e-06)
5(-8.294583867e-06 -5.833857927e-06 -2.241230981e-06 -7.41569389e-07 -3.738088038e-07)
5(-2.408789179e-06 -1.621924065e-06 -5.272709898e-07 -1.446228342e-07 -6.976263974e-08)
5(-4.903500541e-07 -3.149118811e-07 -8.571569016e-08 -2.138668191e-08 -1.081569163e-08)
5(-5.367739673e-08 -3.460464748e-08 -9.240102677e-09 -2.102072288e-09 -1.255837455e-09)
5(-3.697256194e-09 -2.223516017e-09 -4.764971267e-10 -1.436517838e-10 -8.408515444e-11)
5(-1.040498837e-10 -4.127624835e-11 -5.094514037e-12 -4.335024312e-12 2.301636645e-11)
5(-8.394190449e-09 1.152607177e-12 1.794198642e-09 -1.441603844e-12 4.805215172e-09)
5(-1.082618699e-16 4.048768195e-09 3.565160003e-17 -4.048768152e-09 1.226299445e-16)
)


60
(
5(-9.314983887e-08 -2.232479772e-08 -9.228742053e-09 -4.454818154e-08 -2.213863555e-08)
5(-5.724342962e-08 -3.779620161e-08 -3.22989081e-08 -4.338539687e-08 -4.052195114e-08)
5(-3.705896857e-08 -4.529580296e-08 -4.691798578e-08 -4.630964349e-08 -5.231595276e-08)
5(-3.212028137e-08 -4.968901908e-08 -5.6174247e-08 -5.307921983e-08 -6.106770245e-08)
5(-4.136646117e-08 -5.673954552e-08 -6.453230097e-08 -6.24098411e-08 -6.786771013e-08)
5(-5.87697652e-08 -6.831459607e-08 -7.455050447e-08 -7.22001629e-08 -7.31587438e-08)
5(-7.394257267e-08 -8.141466002e-08 -8.659684897e-08 -8.328499228e-08 -8.226303399e-08)
5(-8.363572037e-08 -9.523058388e-08 -1.016670296e-07 -9.644059948e-08 -9.63725871e-08)
5(-9.33444729e-08 -1.118320635e-07 -1.199730783e-07 -1.113987594e-07 -1.131710163e-07)
5(-1.090050394e-07 -1.322627927e-07 -1.413379172e-07 -1.29944094e-07 -1.327328996e-07)
5(-1.297270115e-07 -1.561415278e-07 -1.6607236e-07 -1.520549281e-07 -1.545211802e-07)
5(-1.578486143e-07 -1.844352356e-07 -1.950453125e-07 -1.799660381e-07 -1.808633082e-07)
5(-1.92398789e-07 -2.18117721e-07 -2.29841559e-07 -2.127796402e-07 -2.097128154e-07)
5(-2.265969892e-07 -2.556870359e-07 -2.708888622e-07 -2.495104933e-07 -2.420203449e-07)
5(-2.699263629e-07 -3.014620704e-07 -3.178707451e-07 -2.927887989e-07 -2.828338854e-07)
5(-3.261401011e-07 -3.555216953e-07 -3.694026001e-07 -3.39367956e-07 -3.248340013e-07)
5(-3.947359135e-07 -4.191077542e-07 -4.288750144e-07 -3.921899256e-07 -3.701094171e-07)
5(-4.557540758e-07 -4.817228952e-07 -4.94089722e-07 -4.508813074e-07 -4.212748853e-07)
5(-5.508561421e-07 -5.634742809e-07 -5.610890873e-07 -5.082498128e-07 -4.704138706e-07)
5(-6.258615142e-07 -6.372061468e-07 -6.337968237e-07 -5.720542196e-07 -5.250655712e-07)
5(-7.158096864e-07 -7.243035537e-07 -7.125239484e-07 -6.328169149e-07 -5.733833542e-07)
5(-8.503050813e-07 -8.278564014e-07 -7.827942578e-07 -6.796781881e-07 -5.991755822e-07)
5(-9.560722464e-07 -9.139505214e-07 -8.523680059e-07 -7.316191603e-07 -6.303311053e-07)
5(-9.909007107e-07 -9.57675703e-07 -9.077607975e-07 -7.600255053e-07 -6.28980111e-07)
5(-1.049636044e-06 -1.008714292e-06 -9.275542603e-07 -7.546869701e-07 -6.220579593e-07)
5(-1.058630032e-06 -1.002295075e-06 -8.815959827e-07 -6.781220897e-07 -5.390123318e-07)
5(-9.830405205e-07 -9.043834044e-07 -7.339904019e-07 -5.002008767e-07 -3.581472379e-07)
5(-7.479644274e-07 -6.617571756e-07 -4.354439846e-07 -1.766725311e-07 -5.800701683e-08)
5(-2.742679061e-07 -1.954069668e-07 9.47191434e-08 3.760528235e-07 4.461213327e-07)
5(5.620378883e-07 6.191365552e-07 9.597292478e-07 1.23134291e-06 1.219462547e-06)
5(1.900798877e-06 1.927421754e-06 2.303482153e-06 2.51613927e-06 2.379358865e-06)
5(3.933906146e-06 3.891753329e-06 4.255170674e-06 4.298653225e-06 3.936565616e-06)
5(6.875723928e-06 6.727591177e-06 6.981102036e-06 6.646994282e-06 5.911242919e-06)
5(1.096760106e-05 1.061036551e-05 1.048860212e-05 9.445045327e-06 8.166016384e-06)
5(1.63617968e-05 1.5670712e-05 1.481829176e-05 1.266200564e-05 1.066705496e-05)
5(2.311862474e-05 2.189833525e-05 1.977776338e-05 1.563367253e-05 1.238986406e-05)
5(3.085947855e-05 2.903360681e-05 2.488596838e-05 1.795195562e-05 1.333970956e-05)
5(3.913636674e-05 3.63456537e-05 2.927190975e-05 1.855285467e-05 1.211683051e-05)
5(4.716547767e-05 4.302955633e-05 3.183403741e-05 1.605705657e-05 7.339673318e-06)
5(5.368551283e-05 4.765285378e-05 3.10969333e-05 8.889147043e-06 -2.795377777e-06)
5(5.676864415e-05 4.825141483e-05 2.558588168e-05 -3.809540994e-06 -1.905665985e-05)
5(5.476590155e-05 4.339983737e-05 1.420938477e-05 -2.138923113e-05 -3.916345862e-05)
5(4.556509664e-05 3.164891195e-05 -3.114516279e-06 -4.268215671e-05 -6.140255361e-05)
5(2.904850628e-05 1.332713562e-05 -2.491137323e-05 -6.362924916e-05 -7.982998692e-05)
5(5.521719149e-06 -1.035068523e-05 -4.762687e-05 -8.01419448e-05 -9.125323922e-05)
5(-2.151219213e-05 -3.581595762e-05 -6.667564778e-05 -8.835447721e-05 -9.347738198e-05)
5(-4.698549483e-05 -5.829176269e-05 -7.772917422e-05 -8.558502328e-05 -8.530972869e-05)
5(-6.748191227e-05 -7.277921769e-05 -7.817465822e-05 -7.330774687e-05 -6.834270041e-05)
5(-7.776276006e-05 -7.627443553e-05 -6.802865816e-05 -5.414820618e-05 -4.702520705e-05)
5(-7.544589002e-05 -6.85904532e-05 -5.109885187e-05 -3.385439193e-05 -2.72460965e-05)
5(-6.264692056e-05 -5.221499509e-05 -3.206534024e-05 -1.78762406e-05 -1.340487034e-05)
5(-4.374064656e-05 -3.308663051e-05 -1.631712043e-05 -7.670457148e-06 -5.139287904e-06)
5(-2.361258942e-05 -1.664326051e-05 -6.590243568e-06 -2.52412629e-06 -1.541697049e-06)
5(-9.628711372e-06 -6.366899593e-06 -1.975605301e-06 -5.970451283e-07 -3.47967469e-07)
5(-2.942665193e-06 -1.809948949e-06 -4.066131134e-07 -9.547307322e-08 -5.495262443e-08)
5(-4.979642701e-07 -2.917559439e-07 -5.025022814e-08 -1.033656248e-08 -5.720286458e-09)
5(-3.164468588e-08 -1.968016248e-08 -4.221962731e-09 -5.80848154e-10 -4.334099354e-10)
5(-2.189938248e-09 -1.318916254e-09 -1.482321119e-10 -1.841967482e-11 -1.882693866e-10)
5(4.413964389e-08 -2.254223013e-10 -2.679038643e-09 2.100226411e-10 -3.881236592e-08)
5(8.85347316e-11 -3.658885233e-13 -4.359253763e-11 1.762335818e-16 -2.081080921e-12)
)


60
(
5(-1.210818266e-07 -3.059134625e-08 -1.519627461e-08 -6.742086064e-08 -4.4550038e-08)
5(-8.14884121e-08 -5.723613424e-08 -5.189810795e-08 -6.968130017e-08 -6.855024082e-08)
5(-5.895495717e-08 -7.125133323e-08 -7.546739294e-08 -7.661468323e-08 -8.584228985e-08)
5(-5.436237951e-08 -7.890681376e-08 -9.027012937e-08 -8.869833138e-08 -1.00307652e-07)
5(-6.802887164e-08 -8.961879069e-08 -1.037662711e-07 -1.039109088e-07 -1.114979852e-07)
5(-9.220739683e-08 -1.072016756e-07 -1.203167756e-07 -1.199334688e-07 -1.214293408e-07)
5(-1.147681523e-07 -1.270364956e-07 -1.398637491e-07 -1.382548699e-07 -1.360870804e-07)
5(-1.304521529e-07 -1.484524259e-07 -1.640441482e-07 -1.606644975e-07 -1.596933975e-07)
5(-1.473132516e-07 -1.743036403e-07 -1.925438644e-07 -1.858336734e-07 -1.878736471e-07)
5(-1.718214269e-07 -2.054419279e-07 -2.263302613e-07 -2.176179153e-07 -2.216377369e-07)
5(-2.038654011e-07 -2.421605011e-07 -2.666134168e-07 -2.547620154e-07 -2.567527983e-07)
5(-2.4967726e-07 -2.875526384e-07 -3.142324963e-07 -3.015998271e-07 -3.001626784e-07)
5(-2.973935244e-07 -3.387110124e-07 -3.706290084e-07 -3.550522698e-07 -3.488750232e-07)
5(-3.671439725e-07 -4.042687315e-07 -4.357510026e-07 -4.195825935e-07 -4.090566722e-07)
5(-4.308278428e-07 -4.725338818e-07 -5.105021691e-07 -4.894765966e-07 -4.721887758e-07)
5(-5.128879372e-07 -5.524734336e-07 -5.930575922e-07 -5.686283358e-07 -5.432004172e-07)
5(-6.207557283e-07 -6.52569746e-07 -6.862898246e-07 -6.537606395e-07 -6.193253935e-07)
5(-7.308337466e-07 -7.590641392e-07 -7.889747987e-07 -7.47969835e-07 -7.052846043e-07)
5(-8.609315284e-07 -8.771633659e-07 -9.006535127e-07 -8.468407157e-07 -7.857696095e-07)
5(-1.001065742e-06 -1.00597785e-06 -1.021028492e-06 -9.493886084e-07 -8.676101904e-07)
5(-1.158017609e-06 -1.144239298e-06 -1.14366969e-06 -1.054831495e-06 -9.527845964e-07)
5(-1.316349209e-06 -1.281645496e-06 -1.26974849e-06 -1.151618951e-06 -1.010682704e-06)
5(-1.483911657e-06 -1.426028939e-06 -1.394201179e-06 -1.253110935e-06 -1.085965733e-06)
5(-1.652360641e-06 -1.570627531e-06 -1.510759951e-06 -1.316169086e-06 -1.099712692e-06)
5(-1.801478046e-06 -1.694147779e-06 -1.599772189e-06 -1.367085807e-06 -1.12144475e-06)
5(-1.883583159e-06 -1.754128934e-06 -1.632363694e-06 -1.339516598e-06 -1.038980518e-06)
5(-1.953794485e-06 -1.742542858e-06 -1.542205475e-06 -1.211111966e-06 -8.691042132e-07)
5(-1.903608043e-06 -1.621184857e-06 -1.312183414e-06 -9.127330954e-07 -5.398610351e-07)
5(-1.639958587e-06 -1.285973818e-06 -8.4049221e-07 -3.436588542e-07 6.167766409e-08)
5(-1.020817322e-06 -5.93029445e-07 -9.464902465e-09 5.84503862e-07 1.022695961e-06)
5(5.376935594e-08 5.855024127e-07 1.332756372e-06 2.015739006e-06 2.483200736e-06)
5(1.789477437e-06 2.442363178e-06 3.408613644e-06 4.159871739e-06 4.597765111e-06)
5(4.495805067e-06 5.249370043e-06 6.354251314e-06 6.962531111e-06 7.219494612e-06)
5(8.41658085e-06 9.239252711e-06 1.032503933e-05 1.061588438e-05 1.064361467e-05)
5(1.36629621e-05 1.455206738e-05 1.545825964e-05 1.504411848e-05 1.461289034e-05)
5(2.037792948e-05 2.131871268e-05 2.166104121e-05 1.992051593e-05 1.877844531e-05)
5(2.8716967e-05 2.958156952e-05 2.863906493e-05 2.477668391e-05 2.272141e-05)
5(3.848647526e-05 3.891978453e-05 3.578834556e-05 2.876173648e-05 2.529987564e-05)
5(4.879377425e-05 4.83824959e-05 4.192497632e-05 3.029471832e-05 2.471070154e-05)
5(5.85662316e-05 5.668708622e-05 4.563179634e-05 2.776989493e-05 1.908413802e-05)
5(6.61808162e-05 6.212138872e-05 4.51001177e-05 1.937541201e-05 6.612549856e-06)
5(6.967326735e-05 6.266371366e-05 3.849126131e-05 4.883680364e-06 -1.156100192e-05)
5(6.680410898e-05 5.61890068e-05 2.456890561e-05 -1.548810109e-05 -3.454010877e-05)
5(5.580565473e-05 4.171135844e-05 3.680660983e-06 -3.911147606e-05 -5.796721193e-05)
5(3.60650792e-05 1.885301243e-05 -2.207207651e-05 -6.202483868e-05 -7.826457868e-05)
5(8.865835151e-06 -9.691478214e-06 -4.860182475e-05 -8.005376716e-05 -9.115267641e-05)
5(-2.34977616e-05 -4.080454202e-05 -7.038296069e-05 -8.857104346e-05 -9.448748797e-05)
5(-5.529504285e-05 -6.863845411e-05 -8.365185675e-05 -8.56615398e-05 -8.600123147e-05)
5(-8.041328055e-05 -8.666825633e-05 -8.484737586e-05 -7.27029513e-05 -6.8634383e-05)
5(-9.397727337e-05 -9.148864954e-05 -7.416609761e-05 -5.353917191e-05 -4.77461743e-05)
5(-9.36611545e-05 -8.289417689e-05 -5.561783041e-05 -3.334074296e-05 -2.757302438e-05)
5(-8.085583445e-05 -6.44614223e-05 -3.454692756e-05 -1.698556997e-05 -1.294429496e-05)
5(-5.731679094e-05 -4.214189387e-05 -1.808029239e-05 -7.008910099e-06 -4.824232219e-06)
5(-3.264614333e-05 -2.228761224e-05 -7.434377179e-06 -2.106867779e-06 -1.274062346e-06)
5(-1.40280923e-05 -8.826908633e-06 -2.150357759e-06 -4.550524793e-07 -2.351144008e-07)
5(-4.975618959e-06 -2.865066784e-06 -4.233107169e-07 -6.184049775e-08 -3.157416963e-08)
5(-9.888402141e-07 -5.388405438e-07 -4.719018079e-08 -3.975177492e-09 -2.410866817e-09)
5(-9.328966994e-08 -4.963283804e-08 -3.067651205e-09 -1.716650839e-10 -1.840338935e-10)
5(2.140307758e-08 -3.233462689e-09 -5.807655306e-09 6.697240115e-12 -1.624129786e-08)
5(-7.727354811e-09 1.542501385e-08 -1.329277432e-11 -1.930198393e-08 2.000992935e-16)
)


60
(
5(-1.505877009e-07 -4.035129838e-08 -2.362608593e-08 -9.591363239e-08 -7.468998878e-08)
5(-1.096272505e-07 -8.138355787e-08 -7.765328707e-08 -1.036758371e-07 -1.051849654e-07)
5(-8.419074942e-08 -1.025547788e-07 -1.124951232e-07 -1.166583703e-07 -1.292453025e-07)
5(-8.128514618e-08 -1.145042556e-07 -1.342653388e-07 -1.344955922e-07 -1.481838718e-07)
5(-1.024196469e-07 -1.311760334e-07 -1.537127522e-07 -1.561376431e-07 -1.647822019e-07)
5(-1.356375031e-07 -1.557501852e-07 -1.769444126e-07 -1.798270357e-07 -1.816281135e-07)
5(-1.671998309e-07 -1.836337112e-07 -2.049719929e-07 -2.061975175e-07 -2.025186406e-07)
5(-1.892445905e-07 -2.135337942e-07 -2.396314954e-07 -2.399510561e-07 -2.384621193e-07)
5(-2.1396523e-07 -2.503304575e-07 -2.812515741e-07 -2.783592177e-07 -2.809109723e-07)
5(-2.472797381e-07 -2.929896429e-07 -3.300587485e-07 -3.257515071e-07 -3.30085065e-07)
5(-2.982999788e-07 -3.467731079e-07 -3.876831897e-07 -3.82189911e-07 -3.842596797e-07)
5(-3.52580999e-07 -4.05260226e-07 -4.555637337e-07 -4.513471701e-07 -4.495063258e-07)
5(-4.306276322e-07 -4.810602901e-07 -5.355857895e-07 -5.314352715e-07 -5.23191912e-07)
5(-5.129247487e-07 -5.650502881e-07 -6.275461515e-07 -6.253380958e-07 -6.127597161e-07)
5(-6.225875723e-07 -6.702429228e-07 -7.341861932e-07 -7.276508735e-07 -7.048276338e-07)
5(-7.408942011e-07 -7.861429072e-07 -8.549353644e-07 -8.45140585e-07 -8.118020546e-07)
5(-8.78564809e-07 -9.177113439e-07 -9.878996307e-07 -9.668579483e-07 -9.147745141e-07)
5(-1.040997188e-06 -1.068695549e-06 -1.134838614e-06 -1.106135468e-06 -1.038987619e-06)
5(-1.209456619e-06 -1.226017092e-06 -1.289418479e-06 -1.244446718e-06 -1.152634043e-06)
5(-1.424758952e-06 -1.410224949e-06 -1.454888894e-06 -1.398943653e-06 -1.283800463e-06)
5(-1.646916662e-06 -1.604757857e-06 -1.632005907e-06 -1.55525982e-06 -1.409106876e-06)
5(-1.852364193e-06 -1.792332209e-06 -1.81260886e-06 -1.700164196e-06 -1.507410897e-06)
5(-2.120370122e-06 -2.008345295e-06 -1.999406483e-06 -1.856472041e-06 -1.610451582e-06)
5(-2.385933522e-06 -2.222587354e-06 -2.178004229e-06 -1.990394837e-06 -1.684022403e-06)
5(-2.623828871e-06 -2.40942271e-06 -2.327006122e-06 -2.080568281e-06 -1.702140868e-06)
5(-2.871382457e-06 -2.572466927e-06 -2.42977487e-06 -2.137279247e-06 -1.688560149e-06)
5(-3.07985371e-06 -2.689168233e-06 -2.453052319e-06 -2.078255684e-06 -1.548889484e-06)
5(-3.165347355e-06 -2.683667463e-06 -2.332578842e-06 -1.836776573e-06 -1.210383031e-06)
5(-3.06387181e-06 -2.470137245e-06 -1.971808203e-06 -1.337835357e-06 -6.084569876e-07)
5(-2.730669667e-06 -1.961238172e-06 -1.255127811e-06 -4.661348151e-07 3.861793138e-07)
5(-1.98449136e-06 -1.008621256e-06 -2.718825652e-08 1.001748293e-06 2.025121947e-06)
5(-5.774923339e-07 6.281566465e-07 1.902527763e-06 3.166988181e-06 4.362726463e-06)
5(1.706644031e-06 3.2014913e-06 4.800823407e-06 6.227434869e-06 7.549561493e-06)
5(5.175124688e-06 6.98680444e-06 8.900393354e-06 1.056923894e-05 1.213617536e-05)
5(9.897072276e-06 1.215899679e-05 1.437021646e-05 1.575749053e-05 1.719546945e-05)
5(1.642551499e-05 1.907324573e-05 2.127866166e-05 2.199721494e-05 2.315808303e-05)
5(2.489893977e-05 2.784589526e-05 2.953277069e-05 2.88632161e-05 2.945374158e-05)
5(3.505014974e-05 3.81620635e-05 3.859937936e-05 3.563359684e-05 3.534241222e-05)