/*--------------------------------*- C++ -*----------------------------------*\
| =========                 |                                                 |
| \\      /  F ield         | OpenFOAM: The Open Source CFD Toolbox           |
|  \\    /   O peration     | Version:  2.3.1                                 |
|   \\  /    A nd           | Web:      www.OpenFOAM.org                      |
|    \\/     M anipulation  |                                                 |
\*---------------------------------------------------------------------------*/
FoamFile
{
    version     2.0;
    format      ascii;
    class       dictionary;
    location    "constant";
    object      GRPSI47;
}
// * * * * * * * * * * * * * * * * * * * * * * * * * * * * * * * * * * * * * //

GRPSI47_table
60
(

60
(
5(0.1392852501 0.1205509341 0.1159540261 0.1160999027 0.1021083713)
5(0.1285958676 0.1239429104 0.1204794998 0.1196052577 0.1175414689)
5(0.1232404936 0.1252220861 0.1225862347 0.1212864867 0.1246041826)
5(0.1216831601 0.1251891673 0.1230597833 0.1216744622 0.1259245321)
5(0.122387899 0.1246448598 0.1226856983 0.1213000566 0.1241305372)
5(0.1238168972 0.1243766146 0.1222429691 0.1207053905 0.1218611747)
5(0.1244949212 0.1244739753 0.1221408343 0.1204837416 0.1211388439)
5(0.1243648174 0.1246275128 0.122245208 0.1205590168 0.1215178259)
5(0.1240340632 0.1247691421 0.1223804334 0.1206619566 0.1220672674)
5(0.1238992435 0.1248316794 0.1224237724 0.1206553402 0.122227251)
5(0.1239191012 0.1248263689 0.1224003318 0.1205966078 0.1221261886)
5(0.1240131936 0.1247920231 0.1223568832 0.1205488594 0.121954805)
5(0.1240919506 0.1247663155 0.1223307398 0.1205507814 0.1218807636)
5(0.1241024467 0.1247595918 0.1223215415 0.120563157 0.1218999679)
5(0.1240809734 0.1247548062 0.1223195357 0.120574556 0.1219386797)
5(0.1240673361 0.1247410011 0.1223153871 0.1205784477 0.1219407875)
5(0.124069041 0.1247232232 0.1223039239 0.1205735853 0.1219167282)
5(0.1240751818 0.1247049126 0.1222818035 0.1205605625 0.1218921612)
5(0.1240748058 0.1246885632 0.1222468136 0.1205399179 0.1218885293)
5(0.1240615723 0.1246723237 0.1222067941 0.1205119624 0.1218934118)
5(0.1240378439 0.1246545786 0.1221736651 0.1204769704 0.1218779238)
5(0.1240091701 0.1246338075 0.1221552906 0.1204351185 0.1218181006)
5(0.1239774816 0.1246074623 0.1221414262 0.120385568 0.1217257266)
5(0.1239421315 0.1245724721 0.1221143091 0.1203268873 0.1216279691)
5(0.1239024373 0.1245259645 0.1220573898 0.1202574789 0.12154967)
5(0.1238574404 0.1244676882 0.1219701926 0.1201735001 0.121484551)
5(0.1238058981 0.1243992845 0.121863533 0.1200694444 0.1214044935)
5(0.123746426 0.1243221575 0.1217480296 0.1199400172 0.1212818641)
5(0.1236753466 0.1242335043 0.1216242591 0.1197832024 0.1211095486)
5(0.1235870468 0.1241272782 0.1214827074 0.1195990682 0.1209002312)
5(0.1234759577 0.1239974257 0.1213136352 0.1193879054 0.1206674341)
5(0.1233373555 0.1238391989 0.1211129011 0.1191558319 0.1204269039)
5(0.1231666618 0.1236490406 0.1208823513 0.1189153123 0.1201973414)
5(0.1229595576 0.1234235826 0.1206240913 0.1186786759 0.1199967769)
5(0.1227153264 0.1231607205 0.1203383629 0.1184388586 0.119807106)
5(0.1224342697 0.1228581532 0.1200226563 0.1181625573 0.1195618388)
5(0.1221162014 0.1225133275 0.1196742813 0.1178151668 0.1191922247)
5(0.1217588679 0.1221272571 0.1192955436 0.1174289597 0.1187624787)
5(0.1213551819 0.121707569 0.1188986111 0.1171655852 0.1185939043)
5(0.1208973833 0.1212625837 0.1184968664 0.1172013696 0.1190367905)
5(0.1203878973 0.1207922052 0.1181292947 0.1176349352 0.1202077941)
5(0.1198573804 0.12027611 0.1179026588 0.1183526165 0.121594755)
5(0.119341356 0.1196910036 0.1179347952 0.1192048711 0.1225808029)
5(0.1188573894 0.1190483733 0.1182966117 0.1200372548 0.1227206434)
5(0.1183502693 0.1184889489 0.1188981766 0.1207036841 0.1222386435)
5(0.1177463056 0.1181834719 0.1196153276 0.1210675623 0.1215251076)
5(0.1170243929 0.1182542531 0.1203208292 0.1210272052 0.1208968653)
5(0.1164578417 0.1186122165 0.1208510011 0.1206142098 0.1202930087)
5(0.116422375 0.1191106298 0.1210239484 0.1198898496 0.1195306872)
5(0.1171855462 0.1195996041 0.1206903977 0.1189061972 0.1184452611)
5(0.1183487712 0.1199075635 0.1198953476 0.1176619951 0.1169996508)
5(0.119260307 0.1198538872 0.118755069 0.1161368813 0.115211092)
5(0.1193239467 0.1192728409 0.1173709542 0.1143042695 0.1130883656)
5(0.1184538098 0.118137714 0.1157122328 0.1120833979 0.1105639484)
5(0.1168368768 0.1164974145 0.1136793043 0.1093656371 0.1075306178)
5(0.1146625611 0.1144015271 0.1111719756 0.1060421344 0.1038808107)
5(0.1121194013 0.1118991988 0.1080900533 0.1020040373 0.09950696421)
5(0.1093983395 0.1090405382 0.104333104 0.09714249316 0.09430151521)
5(0.1066894379 0.1058764404 0.09980165565 0.09134838458 0.0881569007)
5(0.1041849997 0.1024564188 0.09439479389 0.08451365378 0.08096555767)
)


60
(
5(0.1363138644 0.1170499814 0.1116006747 0.1129704395 0.100525628)
5(0.1256937129 0.12102109 0.1171334634 0.1166427469 0.1153670342)
5(0.1203785523 0.1223840635 0.1195934387 0.1184972148 0.1221971268)
5(0.1188708217 0.1222881081 0.1201212398 0.1189983345 0.1234595839)
5(0.1196383526 0.1217736735 0.1197954057 0.1186897962 0.1216977754)
5(0.1210863067 0.1215950231 0.1194345753 0.1181173299 0.1194692487)
5(0.1217917894 0.1217356068 0.1193831748 0.117924866 0.1187628066)
5(0.1216857672 0.1219133222 0.1195311341 0.1180327836 0.1191441761)
5(0.1213927625 0.122090223 0.1197049831 0.1181569949 0.1196917071)
5(0.1212870121 0.1221845102 0.1197823421 0.1181727093 0.1198627428)
5(0.1213296851 0.1222069833 0.1197919465 0.1181371173 0.1197746231)
5(0.1214462627 0.1221970105 0.1197779977 0.1181127898 0.1196173427)
5(0.1215446365 0.122195667 0.1197803262 0.1181337722 0.1195535895)
5(0.1215748782 0.1222109545 0.1197957517 0.1181640913 0.1195837101)
5(0.1215735588 0.1222268698 0.1198174728 0.1181923788 0.1196299928)
5(0.1215771471 0.1222318312 0.1198357451 0.1182132316 0.1196414884)
5(0.1215963717 0.1222319518 0.119844151 0.1182243321 0.119627894)
5(0.1216177383 0.1222308702 0.1198425001 0.118226277 0.119611556)
5(0.1216336917 0.1222306174 0.1198256716 0.1182202408 0.1196166814)
5(0.1216348577 0.1222299474 0.1198036334 0.1182061064 0.1196299829)
5(0.1216258143 0.1222264301 0.1197877278 0.1181850967 0.1196217838)
5(0.1216107082 0.1222198251 0.1197848319 0.1181562537 0.1195717855)
5(0.1215935213 0.1222071413 0.1197855351 0.1181193332 0.1194883574)
5(0.1215713864 0.1221845316 0.1197742095 0.1180738546 0.1193969671)
5(0.1215471853 0.1221517898 0.1197316957 0.1180156908 0.1193243845)
5(0.1215143637 0.1221051145 0.1196597934 0.1179447036 0.1192656857)
5(0.1214751178 0.1220492914 0.1195665149 0.1178523791 0.1191951934)
5(0.1214256548 0.1219841817 0.1194649879 0.117735042 0.1190828167)
5(0.1213649641 0.1219070055 0.11935482 0.1175907692 0.1189209453)
5(0.1212874178 0.1218127769 0.1192266442 0.117418935 0.1187227178)
5(0.1211864357 0.1216941736 0.1190710205 0.1172214369 0.1185027441)
5(0.1210576741 0.1215479931 0.1188842788 0.1170024678 0.1182746901)
5(0.120896829 0.1213689882 0.1186672153 0.1167751416 0.1180569999)
5(0.1207000018 0.1211559234 0.1184221502 0.116549463 0.1178664706)
5(0.1204649309 0.1209055284 0.1181510359 0.1163212243 0.1176865029)
5(0.1201978373 0.1206182843 0.1178496897 0.1160554025 0.117450157)
5(0.1198930115 0.1202888719 0.1175147258 0.1157197904 0.1170948613)
5(0.1195458121 0.1199143805 0.1171511213 0.11534998 0.1166806664)
5(0.1191587098 0.1195086059 0.1167687006 0.1150987792 0.1165186594)
5(0.1187137803 0.1190786757 0.1163815175 0.1151405013 0.1169615388)
5(0.1182200058 0.1186241852 0.1160273647 0.115572301 0.1181182373)
5(0.1177066195 0.1181234988 0.1158068429 0.1162841591 0.1194950105)
5(0.1172002189 0.1175529709 0.1158423268 0.117129947 0.1204809633)
5(0.1167278507 0.1169261279 0.1162101478 0.1179561131 0.120616336)
5(0.1162357979 0.1163823273 0.1168139574 0.1186181226 0.120137187)
5(0.1156547191 0.1160847612 0.1175258994 0.1189851887 0.1194333818)
5(0.1149482066 0.1161574551 0.1182281382 0.1189536993 0.1188178259)
5(0.1143865607 0.1165209119 0.1187608903 0.1185472913 0.118228065)
5(0.1143506588 0.1170219845 0.1189407177 0.1178350469 0.1174819687)
5(0.1151066592 0.1175111695 0.118619751 0.1168700794 0.1164163367)
5(0.1162720052 0.1178206099 0.1178352488 0.1156500508 0.1149988184)
5(0.1171814837 0.11777516 0.1167143483 0.1141526729 0.1132454856)
5(0.1172489812 0.1172088282 0.1153577619 0.1123552054 0.1111635622)
5(0.1164032902 0.1160975258 0.1137291847 0.1101760894 0.1086855708)
5(0.1148170873 0.1144894237 0.1117354818 0.1075083224 0.1057074415)
5(0.1126868342 0.1124351565 0.1092737289 0.1042424787 0.1021209786)
5(0.1101922228 0.1099813524 0.10624749 0.1002731817 0.09782186541)
5(0.1075218582 0.1071774828 0.1025593649 0.09549431623 0.09270301018)
5(0.1048712427 0.1040742543 0.09810391936 0.0897974467 0.08666432046)
5(0.1024015936 0.100709671 0.09279348915 0.08308321713 0.07959720446)
)


60
(
5(0.1333424787 0.1135490288 0.1072473233 0.1098409762 0.0989428846)
5(0.1227830045 0.1181024324 0.113785517 0.1136770732 0.1132049729)
5(0.1175164341 0.1195559415 0.1166049601 0.1156980423 0.1197816133)
5(0.1160601825 0.1193881552 0.1171857483 0.1163211006 0.1209868325)
5(0.1168921224 0.1189080815 0.1169062778 0.1160739417 0.1192593682)
5(0.1183560513 0.1188186537 0.1166263992 0.1155240473 0.1170765526)
5(0.1190903759 0.1189936087 0.1166252079 0.1153696202 0.1163856659)
5(0.1190081426 0.1191999308 0.1168174531 0.1155057511 0.1167683149)
5(0.118749229 0.1194099061 0.1170290265 0.115653431 0.117319392)
5(0.1186751552 0.1195375429 0.1171412112 0.1156898765 0.1174972611)
5(0.1187421658 0.1195874369 0.1171832385 0.1156777875 0.1174218062)
5(0.1188788204 0.1196034988 0.1171997281 0.1156752195 0.1172791599)
5(0.118998546 0.1196256941 0.1172289133 0.1157160873 0.1172271903)
5(0.119049091 0.1196630447 0.1172703984 0.1157642981 0.1172647979)
5(0.1190662433 0.1196989428 0.1173155989 0.1158101922 0.1173208289)
5(0.1190885525 0.119722994 0.1173549195 0.1158476829 0.1173429621)
5(0.1191243282 0.1197414429 0.1173851185 0.1158743164 0.1173369534)
5(0.1191622857 0.1197573799 0.1174025673 0.1158914395 0.1173302185)
5(0.1191934922 0.1197738049 0.1174043888 0.1158994305 0.117344201)
5(0.1192092763 0.1197878269 0.1174011013 0.1158999945 0.1173641638)
5(0.1192157236 0.1197998236 0.1174013519 0.1158916811 0.1173645819)
5(0.1192151689 0.1198062002 0.1174130872 0.1158770314 0.1173251198)
5(0.1192108201 0.1198076622 0.1174306217 0.1158522565 0.1172477736)
5(0.1192043418 0.1197988535 0.1174325505 0.1158185595 0.1171653831)
5(0.1191938964 0.1197779918 0.1174065037 0.1157735261 0.1170961321)
5(0.1191763208 0.1197448094 0.1173472554 0.1157136384 0.117046064)
5(0.1191440727 0.1196990148 0.1172702544 0.1156355974 0.1169846429)
5(0.1191097806 0.1196482326 0.117181393 0.1155280401 0.1168799787)
5(0.1190574673 0.119582139 0.1170838165 0.1153967038 0.1167325854)
5(0.1189900228 0.1194987614 0.1169706467 0.115238316 0.1165428386)
5(0.1189029331 0.1193938491 0.1168268949 0.1150520407 0.1163350567)
5(0.1187825328 0.1192571342 0.1166536682 0.1148487569 0.1161219132)
5(0.1186283761 0.1190931829 0.1164518467 0.1146307237 0.1159157436)
5(0.1184472488 0.1188906941 0.116219431 0.1144178201 0.1157309178)
5(0.1182205989 0.1186518513 0.1159642412 0.1142020751 0.1155587714)
5(0.1179664447 0.1183819944 0.1156756836 0.1139446687 0.1153355142)
5(0.1176752679 0.1180646381 0.1153554762 0.113624192 0.1149914399)
5(0.1173466702 0.1177064337 0.1150055195 0.1132660706 0.1145872993)
5(0.1169699502 0.1173181526 0.1146401025 0.1130234636 0.1144330772)
5(0.1165379828 0.116900296 0.1142693497 0.1130741046 0.1148721191)
5(0.1160677201 0.1164608361 0.1139230407 0.1135049961 0.1160178627)
5(0.1155669396 0.1159765586 0.1137197157 0.1142100305 0.1173668074)
5(0.1150798462 0.1154256628 0.1137644668 0.1150442983 0.1183311424)
5(0.1146193194 0.1148176415 0.1141295239 0.1158612125 0.1184793408)
5(0.1141457709 0.1142895151 0.1147266944 0.1165187516 0.1180173736)
5(0.1135753627 0.114007629 0.1154334637 0.1168812365 0.1173354411)
5(0.1128888512 0.114087888 0.1161261887 0.1168529626 0.1167404726)
5(0.1123494489 0.1144475332 0.1166526842 0.1164624468 0.1161651428)
5(0.1123323875 0.114940576 0.1168292664 0.1157730073 0.1154362462)
5(0.1130838506 0.1154253664 0.1165175195 0.1148313302 0.1143945036)
5(0.114220768 0.1157339373 0.1157596414 0.1136378254 0.1130034746)
5(0.115108605 0.1156932996 0.1146694033 0.1121715977 0.111282383)
5(0.115178136 0.1151441727 0.1133415677 0.1104067841 0.1092406422)
5(0.1143469162 0.1140560794 0.1117483458 0.108270039 0.1068086292)
5(0.1127999745 0.1124816769 0.1097905123 0.1056507639 0.1038838824)
5(0.1107120554 0.1104695885 0.1073753317 0.1024419454 0.100360349)
5(0.1082645625 0.1080638608 0.1044052468 0.09854123334 0.09613513204)
5(0.1056455866 0.1053144468 0.1007821714 0.09384458023 0.09110812461)
5(0.1030369613 0.1022679123 0.0964133401 0.08824915469 0.0851704925)
5(0.1006181875 0.0989629233 0.09119218442 0.08165278048 0.07822885125)
)


60
(
5(0.1303710929 0.1100480761 0.1028939719 0.1067115129 0.09736014124)
5(0.1198708995 0.1151699925 0.1104332761 0.110725182 0.1110528973)
5(0.1146539728 0.1167254285 0.1136149312 0.1129012607 0.1173695433)
5(0.1132499217 0.1164887886 0.1142485226 0.1136432803 0.118517171)
5(0.1141453825 0.1160411067 0.114016869 0.1134594697 0.1168220326)
5(0.1156258769 0.1160415593 0.1138198004 0.1129314898 0.1146806205)
5(0.1163883076 0.1162536232 0.113867228 0.1128123616 0.1140092061)
5(0.1163298248 0.1164857396 0.1141030791 0.1129795184 0.114394533)
5(0.1161061517 0.1167298412 0.1143532224 0.113149615 0.114946316)
5(0.1160628731 0.1168902111 0.1145001942 0.1132074082 0.1151319771)
5(0.1161535216 0.1169681367 0.1145746819 0.1132182116 0.1150698113)
5(0.1163121277 0.1170093072 0.1146207474 0.113238329 0.1149416498)
5(0.1164514399 0.1170550944 0.1146778291 0.1132990293 0.1149011494)
5(0.1165220595 0.1171144824 0.1147453517 0.1133651575 0.1149465167)
5(0.1165575097 0.1171704901 0.1148139709 0.1134285313 0.1150125912)
5(0.1165997835 0.117214253 0.1148742082 0.1134820379 0.1150443818)
5(0.116652207 0.1172510237 0.1149257593 0.113524211 0.1150467438)
5(0.1167047083 0.1172827543 0.1149628148 0.1135577374 0.1150506454)
5(0.1167523204 0.117316431 0.1149836361 0.1135791815 0.1150716324)
5(0.1167846152 0.1173447273 0.1149958871 0.1135948617 0.1151027886)
5(0.1168011017 0.1173718778 0.1150174532 0.1135996047 0.1151069569)
5(0.1168189282 0.1173932903 0.115041351 0.113597094 0.1150791384)
5(0.1168267786 0.1174081063 0.1150747866 0.1135852565 0.1150103738)
5(0.1168349077 0.1174090274 0.1150923086 0.1135674124 0.1149333547)
5(0.1168358035 0.1174040201 0.1150818877 0.1135315351 0.1148715314)
5(0.1168345695 0.1173829601 0.1150370346 0.1134841174 0.1148255163)
5(0.1168161539 0.1173502383 0.1149720515 0.1134173156 0.1147748508)
5(0.1167886624 0.1173095794 0.1148981592 0.1133237423 0.1146816626)
5(0.1167493782 0.1172562302 0.1148131496 0.1132036806 0.1145441444)
5(0.1166922979 0.1171846315 0.1147138287 0.1130578114 0.1143649306)
5(0.116611901 0.1170918738 0.1145843632 0.1128842953 0.1141717107)
5(0.1165043893 0.1169637841 0.1144261042 0.1126975371 0.1139660448)
5(0.1163650381 0.1168147964 0.1142316315 0.112488887 0.1137790657)
5(0.1161842633 0.1166237262 0.1140208418 0.112287916 0.1135973373)
5(0.1159753055 0.1163992584 0.1137757097 0.1120818417 0.1134354752)
5(0.1157295787 0.116142654 0.1135029401 0.1118369853 0.1132238199)
5(0.115455448 0.1158376961 0.1131973238 0.1115313019 0.1128879004)
5(0.1151366672 0.1154979251 0.1128629775 0.1111827228 0.1124986736)
5(0.1147758886 0.1151216534 0.1125101666 0.1109541937 0.1123554725)
5(0.1143680646 0.1147196589 0.1121503547 0.1110099654 0.1127904744)
5(0.113902778 0.1142958644 0.111825499 0.1114393137 0.1139165801)
5(0.1134228284 0.1138266666 0.1116278681 0.1121388539 0.1152524763)
5(0.1129484274 0.1132911084 0.1116804047 0.1129658958 0.1162047716)
5(0.1125034775 0.1127025184 0.1120492171 0.1137729486 0.1163490222)
5(0.1120396033 0.1121927078 0.1126433168 0.1144233757 0.1159059302)
5(0.111486869 0.11192299 0.1133440244 0.1147847913 0.1152406448)
5(0.1108274986 0.1120043179 0.1140289951 0.1147662288 0.1146556047)
5(0.1103018168 0.1123691108 0.1145502307 0.1143826461 0.1141012357)
5(0.1102867604 0.1128587406 0.1147324632 0.1137113947 0.1133885838)
5(0.1110375072 0.1133361637 0.1144279325 0.1127959805 0.1123709162)
5(0.1121606376 0.1136474322 0.1136901669 0.1116254324 0.1110047579)
5(0.113030084 0.1136145697 0.1126259423 0.110187392 0.109321955)
5(0.1131041739 0.1130793499 0.1113278923 0.1084585301 0.1073158014)
5(0.1122937104 0.1120158044 0.1097654276 0.1063628173 0.1049326778)
5(0.1107794524 0.1104741144 0.1078472652 0.1037930209 0.1020602879)
5(0.108737424 0.1085035153 0.1054773109 0.1006419172 0.09859881922)
5(0.1063378151 0.1061464365 0.1025626311 0.09680921757 0.09444823089)
5(0.1037636246 0.1034511856 0.0990090341 0.09219506932 0.08951081701)
5(0.101206585 0.10046251 0.0947198643 0.086699923 0.08367855243)
5(0.09883478134 0.09721617555 0.08959087969 0.08022234383 0.07686049804)
)


60
(
5(0.1273997072 0.1065471234 0.09854062046 0.1035820496 0.09577739788)
5(0.1169570961 0.1122366975 0.107081257 0.1077741458 0.1089020764)
5(0.1117920322 0.1138950649 0.1106249048 0.1101043297 0.1149569475)
5(0.1104400665 0.1135894846 0.1113110969 0.1109653975 0.116047504)
5(0.1113989408 0.1131743878 0.1111274494 0.110844742 0.11438442)
5(0.1128962439 0.1132647178 0.1110125409 0.1103386792 0.1122854685)
5(0.1136861859 0.1135137918 0.1111095219 0.110254949 0.1116322519)
5(0.1136509139 0.1137713583 0.1113896235 0.1104534758 0.1120195074)
5(0.1134644577 0.1140496621 0.1116763278 0.1106459133 0.1125740374)
5(0.1134496765 0.1142430684 0.1118595512 0.1107247508 0.1127668594)
5(0.113565733 0.114348724 0.1119652921 0.1107587482 0.1127186272)
5(0.1137451058 0.1144147116 0.1120429571 0.1108018425 0.1126020882)
5(0.1139038932 0.1144856327 0.1121269202 0.1108808333 0.1125751984)
5(0.1139955761 0.1145656888 0.1122196942 0.1109662481 0.1126289092)
5(0.1140495493 0.1146431105 0.1123122116 0.1110457973 0.1127038429)
5(0.1141107266 0.1147040036 0.1123941333 0.1111179013 0.1127448165)
5(0.1141790515 0.1147596525 0.112466743 0.1111750575 0.1127568825)
5(0.1142487779 0.114810352 0.1125213238 0.1112218118 0.1127729021)
5(0.1143123799 0.1148582402 0.1125630357 0.1112597494 0.112797528)
5(0.1143566482 0.1149030446 0.1125951341 0.111288312 0.1128357968)
5(0.1143918533 0.1149445862 0.1126279068 0.1113068741 0.1128552538)
5(0.1144203756 0.1149785668 0.1126733066 0.1113189703 0.1128280855)
5(0.1144437449 0.115006897 0.1127180108 0.11131991 0.1127738475)
5(0.1144655247 0.1150247376 0.1127508935 0.1113107289 0.1127036214)
5(0.1144868044 0.11502954 0.1127533663 0.1112900523 0.1126456478)
5(0.1144826698 0.1150201209 0.1127320764 0.1112555863 0.1126045916)
5(0.1144895938 0.1150003217 0.1126731252 0.1112001738 0.1125651469)
5(0.1144677418 0.1149715869 0.112615471 0.1111187838 0.1124820576)
5(0.1144405526 0.1149302991 0.1125433278 0.1110106798 0.1123547495)
5(0.1143937775 0.1148715854 0.1124579054 0.110876223 0.1121860285)
5(0.1143224027 0.1147873632 0.1123424419 0.1107190852 0.1120056104)
5(0.1142274494 0.1146775611 0.1121947041 0.1105391903 0.1118166453)
5(0.1140975977 0.1145342374 0.1120179056 0.1103492228 0.1116335114)
5(0.1139297421 0.1143547219 0.1118159644 0.1101600482 0.1114678691)
5(0.1137278645 0.1141475105 0.11158723 0.1099607632 0.111314223)
5(0.113495197 0.1139039033 0.1113304885 0.1097287123 0.1111090573)
5(0.1132340032 0.1136154432 0.1110392017 0.1094337227 0.1107859252)
5(0.1129328413 0.1132861796 0.1107163971 0.1091026121 0.1104119478)
5(0.1125825038 0.1129240323 0.1103811947 0.1088860458 0.110275263)
5(0.112187687 0.1125410349 0.1100378996 0.108943813 0.1107062096)
5(0.1117416613 0.1121303043 0.1097221248 0.1093742196 0.111823137)
5(0.1112796754 0.1116752082 0.1095368941 0.1100692436 0.11313544)
5(0.1108197837 0.1111582624 0.109596067 0.110885785 0.114076177)
5(0.1103819612 0.1105875481 0.1099683682 0.1116845318 0.1142254624)
5(0.1099390508 0.1100961132 0.1105584481 0.1123277872 0.1137918539)
5(0.1094044053 0.1098350232 0.1112500222 0.1126916737 0.1131489442)
5(0.1087546735 0.1099253109 0.111935928 0.1126749321 0.1125739564)
5(0.1082523083 0.1102845441 0.1124530009 0.1123089897 0.1120287575)
5(0.1082445642 0.1107747388 0.1126314031 0.1116519484 0.1113460039)
5(0.1089915299 0.1112518725 0.1123421391 0.1107557193 0.1103393757)
5(0.1100988477 0.1115609658 0.1116196362 0.1096130009 0.1090098133)
5(0.1109528864 0.1115338276 0.110585596 0.1082051986 0.1073539739)
5(0.1110296791 0.1110151231 0.109313477 0.1065096801 0.1053929733)
5(0.110241898 0.1099747369 0.1077833941 0.1044563881 0.1030535638)
5(0.1087595855 0.1084655083 0.1059033438 0.1019363215 0.1002373866)
5(0.1067597027 0.1065366545 0.103580419 0.09884267657 0.09683812146)
5(0.1044048337 0.1042277941 0.1007222016 0.09507841996 0.09276319116)
5(0.1018820854 0.1015860949 0.09723544975 0.09054738796 0.08791398082)
5(0.09937795415 0.09865702938 0.09302527201 0.08515076968 0.08218709993)
5(0.09705137522 0.0954694278 0.08798957495 0.07879190718 0.07549214483)
)


60
(
5(0.1244283215 0.1030461707 0.09418726904 0.1004525863 0.09419465453)
5(0.1140414403 0.1093025136 0.1037296066 0.1048239985 0.1067523706)
5(0.1089287838 0.1110641987 0.1076354934 0.1073079015 0.1125444297)
5(0.1076313136 0.1106900458 0.1083733532 0.1082876494 0.1135773705)
5(0.1086538282 0.1103080605 0.1082378982 0.1082296227 0.1119457419)
5(0.110166063 0.1104883832 0.1082052258 0.1077453619 0.1098909755)
5(0.1109837396 0.1107733164 0.1083518747 0.1076981804 0.1092555046)
5(0.1109733612 0.1110578446 0.1086752844 0.1079265656 0.1096448905)
5(0.1108204244 0.1113690055 0.1090011914 0.1081426891 0.110200582)
5(0.1108394108 0.1115963731 0.1092171822 0.108241646 0.1104022628)
5(0.1109756484 0.1117286487 0.1093577376 0.1082999474 0.1103660686)
5(0.1111789586 0.1118211553 0.1094636788 0.1083643167 0.1102646278)
5(0.1113570499 0.1119143213 0.1095762736 0.108464487 0.1102480195)
5(0.1114684228 0.1120182376 0.1096943441 0.1085659962 0.1103113567)
5(0.1115427183 0.1121143654 0.1098090521 0.1086644287 0.1103967658)
5(0.1116193799 0.1121958039 0.1099156927 0.108751715 0.1104442724)
5(0.1117083512 0.1122687854 0.110005368 0.1088254001 0.1104692837)
5(0.1117916432 0.1123356272 0.1100842824 0.1088882089 0.1104874642)
5(0.1118700348 0.1124013216 0.1101407176 0.1089390452 0.1105292634)
5(0.111932908 0.1124608026 0.1101905779 0.1089823215 0.1105721844)
5(0.1119788762 0.1125153373 0.1102437802 0.1090161008 0.1105964397)
5(0.1120228636 0.1125673077 0.1103012868 0.1090373822 0.1105839427)
5(0.1120600523 0.112606014 0.1103637018 0.1090542371 0.1105330462)
5(0.1120946918 0.1126363578 0.1104109576 0.1090581356 0.1104723798)
5(0.1121308392 0.1126563515 0.110427459 0.1090472781 0.1104215021)
5(0.1121536263 0.1126582136 0.1104144219 0.1090261232 0.1103862036)
5(0.1121519474 0.1126509525 0.1103815337 0.1089824847 0.1103518596)
5(0.1121477766 0.1126339118 0.1103317166 0.1089135079 0.1102836297)
5(0.1121323214 0.1126054014 0.1102734797 0.1088166456 0.1101648131)
5(0.112097233 0.1125558542 0.1101998955 0.1086973197 0.1100093238)
5(0.1120341171 0.1124857292 0.1101004674 0.1085509985 0.1098384035)
5(0.1119506611 0.1123852697 0.1099646519 0.1083869118 0.1096643981)
5(0.111826267 0.1122575564 0.1098048459 0.1082056806 0.1094905152)
5(0.1116715417 0.1120883038 0.1096138767 0.1080295941 0.1093365007)
5(0.1114820319 0.1118930188 0.1093997856 0.1078424285 0.1091892917)
5(0.1112629234 0.111664669 0.109155473 0.1076209229 0.1089973144)
5(0.1110140053 0.1113911362 0.1088780489 0.1073381977 0.1086885646)
5(0.1107236708 0.1110780301 0.1085749156 0.1070189052 0.1083203688)
5(0.1103911381 0.110730134 0.1082520508 0.1068141751 0.1081933784)
5(0.1100122861 0.1103582393 0.1079209157 0.1068818322 0.1086260256)
5(0.1095814354 0.1099653745 0.1076189048 0.1073084953 0.1097284946)
5(0.1091336665 0.1095245324 0.107446074 0.1079988507 0.1110209518)
5(0.1086899765 0.109025615 0.1075126012 0.1088054756 0.1119470021)
5(0.1082655993 0.1084708899 0.1078858632 0.109597803 0.1121000602)
5(0.1078346824 0.1079979029 0.1084722226 0.1102338143 0.1116843069)
5(0.1073186256 0.1077483969 0.1091614859 0.1105972157 0.1110496279)
5(0.1066878491 0.1078427154 0.1098349313 0.1105872237 0.1105021665)
5(0.1061980087 0.1082059579 0.1103541383 0.1102293527 0.1099643359)
5(0.1061997975 0.1086891224 0.1105403346 0.1095941167 0.1092860115)
5(0.1069461997 0.1091653916 0.1102496597 0.1087176478 0.1083205598)
5(0.1080241287 0.1094748235 0.1095574218 0.1076002452 0.107011165)
5(0.1088931307 0.1094530181 0.1085343451 0.1062230725 0.1053903602)
5(0.108953189 0.1089531345 0.1072974418 0.1045585919 0.1034753802)
5(0.1081854636 0.107932876 0.1058045331 0.1025507523 0.1011727266)
5(0.1067455948 0.1064574891 0.10395659 0.1000790354 0.09841427407)
5(0.1047835674 0.1045679763 0.1016824527 0.09704525343 0.09507798653)
5(0.1024791488 0.1023094466 0.09887875437 0.09334732753 0.0910768906)
5(0.1000008138 0.09972168352 0.09546326821 0.08889902725 0.08631407125)
5(0.0975476382 0.09685137891 0.09133113384 0.08360178617 0.0806964243)
5(0.09526796909 0.09372268005 0.08638827022 0.07736147053 0.07412379162)
)


60
(
5(0.1214569357 0.09954521805 0.08983391762 0.09732312302 0.09261191117)
5(0.1111240478 0.1063682499 0.1003778654 0.1018739309 0.104604583)
5(0.1060648648 0.1082330831 0.1046460742 0.1045117225 0.1101325979)
5(0.104822999 0.1077912512 0.1054359231 0.1056092572 0.1111061716)
5(0.1059092361 0.1074407665 0.1053472727 0.10561547 0.1095086916)
5(0.1074359115 0.107712332 0.1053992395 0.1051517611 0.1074937958)
5(0.1082821996 0.1080332153 0.1055935136 0.1051410374 0.1068792786)
5(0.1082949134 0.1083438861 0.1059612844 0.1054001003 0.1072704905)
5(0.1081775404 0.1086885198 0.1063250926 0.105639294 0.1078279021)
5(0.1082266633 0.1089497276 0.1065763603 0.1057584914 0.1080370539)
5(0.108387022 0.1091086857 0.1067489687 0.1058410343 0.1080144806)
5(0.1086123021 0.1092276638 0.1068851895 0.1059267261 0.1079260988)
5(0.1088097305 0.1093434486 0.1070254302 0.106047702 0.1079217103)
5(0.1089431991 0.1094703211 0.107168329 0.1061662098 0.1079932047)
5(0.1090333503 0.109585582 0.1073076896 0.1062830985 0.1080886316)
5(0.1091322436 0.1096878153 0.1074346475 0.1063853177 0.1081447272)
5(0.1092336051 0.1097766266 0.1075466912 0.1064770342 0.1081803341)
5(0.1093375451 0.1098629357 0.1076437188 0.1065525726 0.1082060338)
5(0.1094284482 0.1099425341 0.1077193207 0.1066202098 0.1082583983)
5(0.1095037521 0.110018337 0.1077904226 0.1066765547 0.1083051861)
5(0.109572722 0.1100902807 0.107853403 0.1067211353 0.108343304)
5(0.1096230967 0.1101508761 0.1079326305 0.1067609665 0.1083353277)
5(0.1096754473 0.1102070811 0.1080082727 0.1067866142 0.1082953979)
5(0.1097289528 0.1102507959 0.1080676544 0.1068027242 0.1082427787)
5(0.1097703026 0.1102789661 0.1081071854 0.1068087007 0.1081906603)
5(0.1098111219 0.1102984469 0.108102995 0.1067945196 0.1081688213)
5(0.1098258535 0.1103035184 0.1080801462 0.1067628605 0.1081466117)
5(0.1098276487 0.1102931368 0.1080500256 0.106711332 0.1080812376)
5(0.1098215848 0.1102794152 0.1080069077 0.1066236998 0.1079708298)
5(0.1098005221 0.11024347 0.1079385581 0.1065150694 0.1078394404)
5(0.109746381 0.1101825194 0.107857302 0.1063844876 0.1076730291)
5(0.1096692418 0.1100950326 0.1077387754 0.1062325791 0.1075084308)
5(0.1095643672 0.1099785229 0.1075864164 0.1060644909 0.1073488276)
5(0.109413342 0.1098229207 0.1074117802 0.105898105 0.1072051491)
5(0.1092317114 0.1096377756 0.10721395 0.1057248453 0.1070656305)
5(0.1090322698 0.1094268082 0.1069805498 0.10551176 0.1068837669)
5(0.1087914662 0.1091671883 0.1067192714 0.1052423135 0.1065889946)
5(0.1085182867 0.108865728 0.1064278212 0.104939351 0.1062362291)
5(0.108200035 0.1085343087 0.1061216453 0.1047442313 0.1061137545)
5(0.1078318024 0.1081786993 0.105808644 0.1048165959 0.1065414999)
5(0.1074215329 0.1077989267 0.1055165034 0.105244289 0.1076318916)
5(0.1069913828 0.1073762126 0.1053555979 0.1059261019 0.1089020502)
5(0.1065589763 0.1068906129 0.1054256239 0.1067275208 0.1098260432)
5(0.1061486135 0.1063567323 0.1058037831 0.1075085736 0.109974432)
5(0.1057308075 0.1058980272 0.1063894301 0.1081415069 0.1095694004)
5(0.1052290743 0.1056623157 0.1070710494 0.1085022126 0.1089578834)
5(0.1046262602 0.1057627019 0.1077369522 0.1084969334 0.1084191059)
5(0.104147151 0.106118836 0.1082545016 0.1081582515 0.1078980208)
5(0.1041568485 0.1066045695 0.1084372698 0.1075352215 0.1072481939)
5(0.1048927796 0.1070782849 0.1081693269 0.1066802022 0.1062855408)
5(0.1059645712 0.1073889591 0.1074866935 0.1055872116 0.1050143832)
5(0.1068034168 0.1073742718 0.1065022534 0.1042388832 0.1034183865)
5(0.1068770419 0.1068926943 0.1052817473 0.1026059553 0.1015567626)
5(0.106134046 0.1058871604 0.1038230321 0.1006489711 0.09929215277)
5(0.1047251258 0.1044521373 0.1020129382 0.09821908166 0.09659143567)
5(0.1028115707 0.1026068163 0.09978108882 0.09524031205 0.09332050835)
5(0.1005485971 0.1003899994 0.09703652348 0.0916173347 0.08939302404)
5(0.09812351247 0.0978583058 0.09368566576 0.08724963289 0.08472103338)
5(0.09571987515 0.09504444435 0.08963318885 0.08205408678 0.07921080939)
5(0.09348456297 0.0919759323 0.08478696549 0.07593103388 0.07275543841)
)


60
(
5(0.11848555 0.09604426537 0.08548056619 0.09419365974 0.09102916781)
5(0.1082040741 0.1034334377 0.09702715915 0.09892441189 0.1024573069)
5(0.1032015676 0.1054010973 0.1016560275 0.1017164138 0.1077213994)
5(0.1020162851 0.104892392 0.1024969722 0.1029309296 0.1086364136)
5(0.1031633061 0.1045754389 0.1024588814 0.102999351 0.107068511)
5(0.104707437 0.1049346401 0.1025910437 0.102559801 0.1050993579)
5(0.1055798254 0.1052944382 0.1028363825 0.1025825704 0.104501427)
5(0.1056163277 0.105628628 0.103247013 0.1028749345 0.1048967713)
5(0.1055356833 0.1060094602 0.1036491947 0.1031344728 0.1054537933)
5(0.1056142768 0.1063013587 0.1039342154 0.1032770601 0.10567413)