/*--------------------------------*- C++ -*----------------------------------*\
| =========                 |                                                 |
| \\      /  F ield         | OpenFOAM: The Open Source CFD Toolbox           |
|  \\    /   O peration     | Version:  2.3.1                                 |
|   \\  /    A nd           | Web:      www.OpenFOAM.org                      |
|    \\/     M anipulation  |                                                 |
\*---------------------------------------------------------------------------*/
FoamFile
{
    version     2.0;
    format      ascii;
    class       dictionary;
    location    "constant";
    object      GRPSI21;
}
// * * * * * * * * * * * * * * * * * * * * * * * * * * * * * * * * * * * * * //

GRPSI21_table
60
(

60
(
5(-3.082421576e-11 -7.470147036e-12 -1.917096709e-11 -6.511419314e-12 -8.307261778e-12)
5(-2.180885144e-11 -3.148258352e-12 -1.276155795e-11 -4.878965036e-12 -6.360413957e-12)
5(-6.396743557e-12 7.992815424e-13 -3.338069275e-12 -2.11764908e-12 -1.961767278e-12)
5(0 2.359110368e-14 1.297345336e-13 -8.781368577e-14 1.629094422e-13)
5(7.141386834e-13 -3.797886566e-13 -4.690554526e-13 5.450488236e-13 -2.746246202e-15)
5(1.856614541e-12 -3.585481086e-13 -5.273647434e-13 -1.012255932e-13 4.538770931e-13)
5(-8.327611391e-14 -2.33926098e-13 5.364917559e-13 -1.880337617e-13 -1.397088389e-13)
5(-8.523787746e-13 -7.25420969e-14 -1.986238085e-14 1.599401925e-14 -4.384662846e-13)
5(1.951154908e-14 1.561220244e-14 -2.295815781e-13 -1.221697463e-13 6.439313131e-14)
5(-2.767115569e-13 -3.960982568e-14 1.667481014e-14 -1.005694062e-13 -1.886195635e-14)
5(1.91941646e-13 -1.550383346e-13 -2.209337647e-13 -3.55411287e-14 -4.457294481e-14)
5(-1.799246958e-13 -1.455368028e-13 -2.130581306e-13 -2.176969077e-14 -3.915631935e-14)
5(-2.358642062e-13 -1.042319e-13 -1.11774317e-13 -6.783934465e-14 -3.578658978e-14)
5(-1.277027528e-13 -1.407555686e-13 -1.183342401e-13 -7.939346454e-14 -5.476979531e-14)
5(-1.995274372e-13 -7.923288185e-14 -9.202741974e-14 -2.802338946e-14 -3.267477828e-14)
5(-7.366747256e-14 -4.65881159e-14 -5.046010355e-14 -4.10127973e-14 -2.131799291e-14)
5(-1.412732549e-13 -1.110599178e-13 -8.873250981e-14 -4.162833954e-14 -2.003935643e-14)
5(-1.53579785e-13 -1.085515137e-13 -8.428646338e-14 -3.369048028e-14 -1.650975728e-14)
5(-1.030381274e-13 -8.634767751e-14 -4.862278683e-14 -2.446897777e-14 -1.440547214e-14)
5(-7.121520232e-14 -6.157400728e-14 -4.412857549e-14 -1.953937567e-14 -1.637287116e-14)
5(-7.038032162e-14 -4.845646476e-14 -3.63800545e-14 -2.391562952e-14 -1.332636987e-14)
5(-4.681498754e-14 -3.174579732e-14 -2.333952814e-14 -1.430528323e-14 -6.459195467e-15)
5(-3.844482622e-14 -1.907310003e-14 -2.006378512e-14 -5.551085539e-15 -2.977719339e-15)
5(-3.065842805e-14 -1.158818237e-14 -1.244614037e-14 -4.555207226e-15 -2.341637511e-15)
5(-1.850479959e-14 -5.353891357e-15 -5.722515992e-15 -1.686046427e-15 -1.073256623e-15)
5(-1.379985315e-14 -4.516839253e-15 -3.407464787e-15 -1.039116624e-16 -3.750612999e-16)
5(-6.931793017e-15 -6.17122799e-15 -4.606644088e-16 1.267060344e-15 4.00296542e-16)
5(2.472223593e-15 1.723037644e-15 3.474456615e-15 2.676766446e-15 1.118332168e-15)
5(1.093335808e-14 1.239045502e-14 6.306435841e-15 3.671540523e-15 1.690861511e-15)
5(1.98722375e-14 2.034836023e-14 1.269230405e-14 7.063012643e-15 2.553553019e-15)
5(3.196732186e-14 2.782332841e-14 1.691155037e-14 8.27866947e-15 1.568816501e-15)
5(4.55063451e-14 4.003059561e-14 2.359178633e-14 9.820525473e-15 4.006670709e-15)
5(6.742637331e-14 5.891474035e-14 3.710371933e-14 1.260735412e-14 2.446289246e-15)
5(9.599262315e-14 7.170141078e-14 4.14711125e-14 1.249354339e-14 -4.652416877e-16)
5(1.235495165e-13 9.38312182e-14 5.814060355e-14 1.226872397e-14 1.419609745e-15)
5(1.479258535e-13 8.037172194e-14 2.594272657e-14 -1.782538277e-16 -1.227290867e-15)
5(1.604408113e-13 7.242357406e-14 -6.681218272e-15 -6.741010963e-15 -7.534259819e-15)
5(1.585002043e-13 5.766560466e-14 9.197560106e-15 -1.189422622e-14 -4.330959865e-15)
5(1.467909187e-13 9.341475557e-16 -4.884093251e-15 -1.893859424e-14 -2.084795551e-15)
5(5.966905991e-14 -6.848184622e-14 -5.814161832e-14 -1.717359284e-14 -3.806492472e-15)
5(-8.821997293e-14 -1.218753389e-13 -8.131744259e-14 -1.403698481e-14 -4.166459815e-18)
5(-1.829765179e-13 -1.35235622e-13 -5.508175524e-14 -9.216599625e-15 -4.235129483e-18)
5(-2.207112692e-13 -1.134157714e-13 -2.566543809e-14 -4.568132362e-15 3.15037597e-16)
5(-2.243651619e-13 -7.140545563e-14 -1.160339811e-14 2.921814617e-45 3.161258623e-17)
5(-1.942658084e-13 -4.399984905e-14 -1.302239148e-14 1.513271982e-44 -3.15037597e-16)
5(-1.298722068e-13 -1.755884546e-14 -3.422809679e-15 1.094580944e-16 -3.161258623e-17)
5(-5.667152882e-14 -6.531993223e-15 -2.22821421e-16 2.688593117e-43 1.798805595e-42)
5(-2.168820256e-14 -1.33131964e-15 -5.662955748e-17 -1.094580944e-16 7.143158495e-42)
5(-9.449012147e-15 -3.598468826e-17 -3.416214291e-17 3.658211149e-42 2.569913029e-41)
5(-1.180596386e-15 -5.045439234e-18 -8.52964816e-18 1.320257641e-41 8.939569747e-41)
5(-1.398242308e-16 -1.131548931e-19 4.757121873e-42 4.533138392e-41 3.040030244e-40)
5(-1.689298869e-17 1.807191639e-42 1.622298662e-41 1.498189909e-40 9.833423817e-40)
5(-1.882500294e-18 6.042149898e-42 5.343621831e-41 4.692265505e-40 3.082086885e-39)
5(-5.894270134e-22 1.946669356e-41 1.696036555e-40 1.446046425e-39 9.239332789e-39)
5(6.616561472e-41 5.996896875e-41 5.19551335e-40 4.205465758e-39 2.649147801e-38)
5(2.923956723e-40 1.816476676e-40 1.545315699e-39 1.17627848e-38 7.023308264e-38)
5(4.591290753e-40 1.585207855e-39 4.544278137e-39 3.138945146e-38 1.771063745e-37)
5(4.389115154e-40 4.014874399e-39 2.201031241e-38 4.462478868e-38 4.147328735e-37)
5(4.740654801e-40 7.424012084e-39 3.309003104e-37 5.952329487e-37 2.540426771e-36)
5(5.334491845e-40 9.71568859e-39 6.245596639e-37 1.146697339e-36 4.504305388e-36)
)


60
(
5(-7.27389151e-11 2.175928169e-12 -3.763729147e-11 -8.359790697e-12 -9.167597692e-12)
5(-4.880165477e-11 1.909493174e-12 -2.447309216e-11 -5.730414099e-12 -6.315873624e-12)
5(-1.351789269e-11 1.964775953e-12 -6.154076314e-12 -1.7850791e-12 -2.054819667e-12)
5(5.689007448e-12 2.743267526e-12 1.447835306e-12 1.007383357e-13 -2.970878918e-14)
5(1.342659647e-11 2.766624149e-12 3.599849672e-12 6.537815445e-13 5.515958279e-13)
5(1.001833109e-11 1.101144167e-12 2.001669222e-12 -6.940279688e-14 7.430102661e-14)
5(3.791411528e-12 -5.856119441e-13 -7.3891233e-13 -1.087597488e-12 -6.613588312e-13)
5(-4.836459505e-13 -1.105507426e-12 -2.420656757e-12 -1.452290915e-12 -1.034586079e-12)
5(-3.652420711e-12 -1.743147596e-12 -2.533349523e-12 -1.551289988e-12 -1.078913718e-12)
5(-2.347305159e-12 -2.696254763e-12 -2.283270129e-12 -1.605008667e-12 -1.040309966e-12)
5(-2.080738118e-12 -3.011817752e-12 -2.300716584e-12 -1.632457552e-12 -1.047759157e-12)
5(-4.271501171e-12 -3.277273353e-12 -2.516432405e-12 -1.689875229e-12 -1.057332702e-12)
5(-4.17284716e-12 -3.636130855e-12 -2.682422792e-12 -1.752126455e-12 -1.049135495e-12)
5(-5.093034719e-12 -3.720816547e-12 -2.776371056e-12 -1.720097227e-12 -1.003049386e-12)
5(-6.168992487e-12 -3.94591713e-12 -2.797369555e-12 -1.608599072e-12 -9.184683402e-13)
5(-6.329448702e-12 -4.113140179e-12 -2.778703834e-12 -1.499322649e-12 -8.226423926e-13)
5(-6.117751385e-12 -4.07827552e-12 -2.638338055e-12 -1.358478963e-12 -7.153740121e-13)
5(-6.805006618e-12 -3.870289906e-12 -2.426181985e-12 -1.19450199e-12 -6.098577952e-13)
5(-6.963580392e-12 -3.626080142e-12 -2.201545229e-12 -1.03847037e-12 -5.135064986e-13)
5(-6.860044584e-12 -3.466445098e-12 -1.982408032e-12 -8.846541186e-13 -4.173354327e-13)
5(-6.659331333e-12 -3.241313846e-12 -1.761088902e-12 -7.432910484e-13 -3.284186125e-13)
5(-6.193570311e-12 -2.902256503e-12 -1.506438582e-12 -6.066519797e-13 -2.542754232e-13)
5(-6.282086669e-12 -2.565410993e-12 -1.265902667e-12 -4.720828848e-13 -1.891809178e-13)
5(-5.994030857e-12 -2.216613086e-12 -1.030985415e-12 -3.555986099e-13 -1.327703961e-13)
5(-5.208034733e-12 -1.845434502e-12 -8.112767168e-13 -2.577962468e-13 -8.696749061e-14)
5(-4.666729122e-12 -1.515862511e-12 -6.199405461e-13 -1.739908221e-13 -4.736188709e-14)
5(-3.897913827e-12 -1.193818293e-12 -4.387365439e-13 -1.004845124e-13 -1.302073969e-14)
5(-3.198918561e-12 -9.018026449e-13 -2.860720658e-13 -3.535648656e-14 1.86940208e-14)
5(-2.635989493e-12 -6.221594898e-13 -1.537604066e-13 2.434216428e-14 5.138794992e-14)
5(-2.054180963e-12 -3.755696483e-13 -3.340693262e-14 8.480703351e-14 8.77383835e-14)
5(-1.495671315e-12 -1.627336471e-13 8.072531405e-14 1.496135276e-13 1.291165653e-13)
5(-9.945402051e-13 3.375428209e-14 1.94791173e-13 2.207368277e-13 1.765395523e-13)
5(-5.724092804e-13 2.180702139e-13 3.10512122e-13 2.968127706e-13 2.228936502e-13)
5(-1.907341666e-13 3.927017747e-13 4.275981799e-13 3.682362584e-13 2.600180699e-13)
5(1.482242659e-13 5.535675177e-13 5.332183383e-13 4.195299467e-13 2.756042341e-13)
5(4.470325457e-13 6.849024095e-13 6.029581373e-13 4.29718472e-13 2.517272433e-13)
5(6.878183443e-13 7.587454686e-13 6.061390673e-13 3.720762708e-13 1.761370468e-13)
5(8.190768109e-13 7.31103861e-13 5.080574383e-13 2.29584298e-13 4.037773572e-14)
5(8.268534043e-13 5.746198841e-13 2.915983177e-13 1.030657295e-14 -1.402797333e-13)
5(6.582744035e-13 2.719098616e-13 -3.027620651e-14 -2.479771046e-13 -3.13437172e-13)
5(2.965993382e-13 -1.437375235e-13 -3.924303952e-13 -4.827857383e-13 -4.135555572e-13)
5(-2.006405376e-13 -5.85626266e-13 -6.992646681e-13 -6.236308066e-13 -4.047115752e-13)
5(-7.342821438e-13 -9.495314515e-13 -8.671863305e-13 -6.22585435e-13 -3.124206641e-13)
5(-1.171958306e-12 -1.117403494e-12 -8.541411754e-13 -4.963700036e-13 -1.934538448e-13)
5(-1.375885361e-12 -1.055817233e-12 -6.893379461e-13 -3.167819382e-13 -9.466301242e-14)
5(-1.298924683e-12 -8.268847352e-13 -4.559073123e-13 -1.591074184e-13 -3.595417823e-14)
5(-1.012650405e-12 -5.341623048e-13 -2.420222156e-13 -6.214231746e-14 -1.017275685e-14)
5(-6.458231432e-13 -2.794200089e-13 -9.907461619e-14 -1.855513662e-14 -2.090098697e-15)
5(-3.330536987e-13 -1.155689621e-13 -3.042398016e-14 -4.076647191e-15 -3.052981449e-16)
5(-1.363926368e-13 -3.643151641e-14 -6.763247237e-15 -6.338689391e-16 -3.180913178e-17)
5(-4.079381437e-14 -8.153672112e-15 -1.080366365e-15 -6.490838541e-17 -2.586054842e-18)
5(-8.999919953e-15 -1.25025365e-15 -1.090672249e-16 -4.755636307e-18 -1.487292146e-19)
5(-1.195408951e-15 -1.225792238e-16 -7.318827805e-18 -2.504472191e-19 -6.946744263e-21)
5(-1.167526404e-16 -7.544883337e-18 -3.467422947e-19 1.610364109e-21 -2.460831722e-22)
5(-5.019829387e-18 -3.663289674e-18 -8.19131027e-21 3.433737244e-18 -6.891616457e-24)
5(-1.111287757e-19 -3.290381617e-16 -1.187509e-19 9.144208328e-16 -1.307718756e-25)
5(-7.823067364e-22 1.623230577e-14 -7.78158345e-19 2.046474883e-13 -1.680165538e-27)
5(-2.349689827e-24 -5.640990952e-13 -1.681265729e-15 -2.92094386e-13 -6.832445604e-30)
5(-2.430944758e-27 -1.622888176e-14 7.77030822e-19 -2.046509224e-13 -1.226228326e-32)
5(-1.753639573e-31 1.128856311e-12 3.362768617e-15 5.823599064e-13 -8.04018906e-35)
)


60
(
5(-9.18193777e-11 3.614099202e-11 -6.128905275e-11 -1.16960324e-11 -1.215436534e-11)
5(-6.2952417e-11 3.03109468e-11 -3.928863617e-11 -7.675767194e-12 -8.287713414e-12)
5(-4.946095941e-12 2.095948281e-11 -6.865812327e-12 -1.524573809e-12 -2.447467969e-12)
5(4.094914389e-11 1.72390666e-11 7.922465997e-12 1.48706844e-12 2.640711865e-13)
5(6.597614825e-11 1.619932038e-11 1.179821114e-11 2.070298683e-12 9.814277022e-13)
5(6.12845341e-11 1.210836659e-11 7.221016649e-12 4.499415447e-13 2.074991914e-13)
5(3.496014011e-11 5.519111312e-12 1.542576141e-14 -1.668434664e-12 -1.058791273e-12)
5(1.022998789e-11 1.517306574e-14 -4.615893485e-12 -2.919818309e-12 -1.736635001e-12)
5(1.887775205e-12 -3.340779233e-12 -5.912259506e-12 -3.526596908e-12 -1.998187452e-12)
5(6.723777844e-12 -5.861035297e-12 -6.237636905e-12 -3.851447832e-12 -2.047715261e-12)
5(4.307697547e-12 -8.144033291e-12 -6.991291956e-12 -4.187149929e-12 -2.046699997e-12)
5(-7.56884163e-12 -1.135876897e-11 -7.867155844e-12 -4.527364776e-12 -2.14999328e-12)
5(-1.485433367e-11 -1.466327739e-11 -9.063306865e-12 -4.80123756e-12 -2.215671059e-12)
5(-1.983178596e-11 -1.613451753e-11 -1.003682418e-11 -4.86044165e-12 -2.19963676e-12)
5(-2.282203364e-11 -1.726158778e-11 -1.037119131e-11 -4.766196921e-12 -2.083832006e-12)
5(-2.895866832e-11 -1.800979518e-11 -1.031469294e-11 -4.608036175e-12 -1.922297666e-12)
5(-3.557450152e-11 -1.863965336e-11 -1.007086581e-11 -4.310877593e-12 -1.729911935e-12)
5(-3.493455086e-11 -1.920348387e-11 -9.699469797e-12 -3.907536407e-12 -1.523559042e-12)
5(-3.818897801e-11 -1.890206717e-11 -9.228901406e-12 -3.49725532e-12 -1.341135096e-12)
5(-3.643759526e-11 -1.814387839e-11 -8.455227106e-12 -3.081310036e-12 -1.14987199e-12)
5(-4.050095204e-11 -1.722495407e-11 -7.624088125e-12 -2.680942231e-12 -9.557083511e-13)
5(-4.281987459e-11 -1.598546242e-11 -6.747304051e-12 -2.293110883e-12 -7.690678701e-13)
5(-3.943804226e-11 -1.439320888e-11 -5.845884888e-12 -1.883972947e-12 -6.094425697e-13)
5(-3.786847974e-11 -1.268011174e-11 -4.908143402e-12 -1.491866997e-12 -4.655567004e-13)
5(-3.555028177e-11 -1.089251608e-11 -3.993932825e-12 -1.161023753e-12 -3.363357735e-13)
5(-3.421362135e-11 -9.126402759e-12 -3.166639313e-12 -8.670025706e-13 -2.285079488e-13)
5(-2.809635568e-11 -7.517476592e-12 -2.434222068e-12 -6.085442456e-13 -1.329627849e-13)
5(-2.605700375e-11 -5.97872095e-12 -1.780937292e-12 -3.914532488e-13 -4.782058139e-14)
5(-2.385605511e-11 -4.520621531e-12 -1.245402877e-12 -2.017516031e-13 3.272563238e-14)
5(-1.931138218e-11 -3.397452529e-12 -7.907479952e-13 -3.598437268e-14 1.152081868e-13)
5(-1.649577677e-11 -2.394562831e-12 -3.947693643e-13 1.210231574e-13 2.030424176e-13)
5(-1.360587118e-11 -1.480997876e-12 -6.194331946e-14 2.747894484e-13 3.00289481e-13)
5(-1.113041738e-11 -8.165099481e-13 2.23554629e-13 4.270217067e-13 4.0345641e-13)
5(-8.652448748e-12 -2.794017399e-13 4.829609775e-13 5.764065286e-13 5.00382765e-13)
5(-5.925359656e-12 2.027268585e-13 7.132908391e-13 7.098750524e-13 5.706393469e-13)
5(-4.425087656e-12 5.816998028e-13 8.937447694e-13 7.934719107e-13 5.92780208e-13)
5(-3.521730806e-12 8.57379856e-13 9.905816388e-13 7.857721536e-13 5.232180922e-13)
5(-1.890138951e-12 9.94467664e-13 9.517290218e-13 6.47824964e-13 3.320456667e-13)
5(-8.922650595e-13 9.516969547e-13 7.424112734e-13 3.59699972e-13 2.603066317e-14)
5(-2.185199951e-13 6.862804087e-13 3.456786166e-13 -5.842367661e-14 -3.432066292e-13)
5(-8.812232854e-14 2.051327891e-13 -2.002888378e-13 -5.326673084e-13 -6.736675122e-13)
5(-3.393148466e-13 -4.217841659e-13 -7.816916207e-13 -9.439210217e-13 -8.547529981e-13)
5(-7.851703312e-13 -1.058399961e-12 -1.246797841e-12 -1.172568711e-12 -8.453314667e-13)
5(-1.364245783e-12 -1.536536205e-12 -1.47315243e-12 -1.151710151e-12 -6.853707021e-13)
5(-1.808362526e-12 -1.726131763e-12 -1.412801871e-12 -9.198372688e-13 -4.56990783e-13)
5(-1.963016563e-12 -1.588454477e-12 -1.119948187e-12 -6.035290988e-13 -2.469354747e-13)
5(-1.771871594e-12 -1.218380918e-12 -7.298540742e-13 -3.21904082e-13 -1.058467343e-13)
5(-1.339878402e-12 -7.764938524e-13 -3.833834993e-13 -1.359593878e-13 -3.566084819e-14)
5(-8.36866004e-13 -4.017263405e-13 -1.593774489e-13 -4.49153751e-14 -8.841757147e-15)
5(-4.23518205e-13 -1.644991969e-13 -5.041496069e-14 -1.136307019e-14 -1.637702583e-15)
5(-1.689158834e-13 -5.11297909e-14 -1.192637141e-14 -2.006931943e-15 -2.137665266e-16)
5(-5.07182635e-14 -1.142074079e-14 -1.978616922e-15 -2.590462507e-16 -1.87693538e-17)
5(-1.036158114e-14 -1.699097613e-15 -2.123262508e-16 -2.160317619e-17 -1.31904854e-18)
5(-1.325540566e-15 -1.616398346e-16 -1.464612605e-17 -1.877061779e-18 -5.923596125e-20)
5(-8.725129354e-17 -2.406503912e-16 1.301244987e-19 -1.454352672e-16 -1.728254778e-21)
5(-3.537107065e-18 -5.681922769e-14 1.754298443e-16 -3.506472915e-14 -3.903559625e-23)
5(-5.181403593e-20 -1.747775588e-11 4.218357418e-14 -9.841000155e-12 -4.115983366e-25)
5(-3.321019171e-22 -7.50037962e-09 -6.175500394e-14 -3.317979624e-09 -1.792774491e-27)
5(-2.470270631e-25 1.747798786e-11 -4.218426273e-14 9.841145552e-12 -3.518263227e-30)
5(-7.400421763e-29 1.500087288e-08 1.231591183e-13 6.63602938e-09 -3.797665757e-33)
)


60
(
5(8.408569433e-13 1.375774383e-10 -7.731070207e-11 -1.232894118e-11 -1.524535881e-11)
5(2.287707416e-11 1.145462302e-10 -4.661245787e-11 -7.058475168e-12 -1.026153589e-11)
5(7.833376158e-11 7.539502014e-11 2.366318994e-13 1.059184979e-12 -2.64040487e-12)
5(1.602725369e-10 5.642985673e-11 2.384037117e-11 4.934041333e-12 1.221625913e-12)
5(2.261265149e-10 5.160256214e-11 2.862059581e-11 5.02040242e-12 2.273700901e-12)
5(2.073139569e-10 3.82558081e-11 1.719754488e-11 1.848081189e-12 8.607509221e-13)
5(1.299060871e-10 2.05374187e-11 1.923201758e-12 -2.069926964e-12 -1.289252025e-12)
5(7.981190747e-11 9.165624245e-12 -7.995014025e-12 -4.927973724e-12 -2.550179309e-12)
5(6.286395738e-11 -2.813551246e-12 -1.192266818e-11 -6.589098144e-12 -3.042086321e-12)
5(4.156170136e-11 -1.249847805e-11 -1.326802823e-11 -7.461134221e-12 -3.185990103e-12)
5(3.276918081e-11 -2.042047334e-11 -1.555553519e-11 -8.339082941e-12 -3.392781035e-12)
5(2.584854361e-11 -2.917073821e-11 -1.896578765e-11 -9.466702445e-12 -3.786426749e-12)
5(-9.305040243e-12 -3.644991805e-11 -2.250232398e-11 -1.041278686e-11 -3.95663319e-12)
5(-4.976521256e-11 -4.242195507e-11 -2.519242083e-11 -1.069148613e-11 -4.084986997e-12)
5(-6.247158821e-11 -4.741604605e-11 -2.650599906e-11 -1.064126468e-11 -4.068930611e-12)
5(-5.789070317e-11 -5.203809215e-11 -2.666241873e-11 -1.054736268e-11 -3.829992519e-12)
5(-8.386665647e-11 -5.442221009e-11 -2.620190682e-11 -1.008267515e-11 -3.587757711e-12)
5(-9.572003106e-11 -5.534218187e-11 -2.535172585e-11 -9.358346762e-12 -3.253024604e-12)
5(-1.003856955e-10 -5.438661724e-11 -2.406000161e-11 -8.5714782e-12 -2.943616397e-12)
5(-1.18488935e-10 -5.227064048e-11 -2.254674925e-11 -7.714607943e-12 -2.607517496e-12)
5(-1.144389103e-10 -5.086892488e-11 -2.060193581e-11 -6.83609116e-12 -2.228408446e-12)
5(-1.164024234e-10 -4.764625709e-11 -1.826037274e-11 -5.942752589e-12 -1.871785997e-12)
5(-1.368386869e-10 -4.279768905e-11 -1.602563743e-11 -5.037257836e-12 -1.546983294e-12)
5(-1.42073944e-10 -3.830794627e-11 -1.376583933e-11 -4.116726526e-12 -1.263286207e-12)
5(-1.249290564e-10 -3.409354731e-11 -1.155072853e-11 -3.298254282e-12 -9.82877963e-13)
5(-1.201430524e-10 -2.945166942e-11 -9.400238488e-12 -2.589776899e-12 -7.15368081e-13)
5(-1.134018291e-10 -2.481106704e-11 -7.408275762e-12 -1.956061837e-12 -5.059966689e-13)
5(-1.109350519e-10 -2.082004224e-11 -5.687514666e-12 -1.395858375e-12 -3.097106348e-13)
5(-1.115717886e-10 -1.691953415e-11 -4.262662448e-12 -9.360460306e-13 -1.366430898e-13)
5(-9.934476785e-11 -1.356299507e-11 -3.028362873e-12 -5.447548167e-13 2.05833928e-14)
5(-9.028739479e-11 -1.073023418e-11 -1.985408192e-12 -1.975797377e-13 1.852315057e-13)
5(-8.524326014e-11 -8.31371677e-12 -1.184953916e-12 1.044465454e-13 3.490731983e-13)
5(-7.436150262e-11 -6.454110182e-12 -5.512251861e-13 3.812537439e-13 5.189848776e-13)
5(-6.555069302e-11 -4.759720116e-12 6.043820521e-15 6.425628069e-13 6.897130305e-13)
5(-5.776064078e-11 -3.402195315e-12 4.76386096e-13 8.78179506e-13 8.347120643e-13)
5(-4.583436158e-11 -2.258589868e-12 8.583264253e-13 1.060123903e-12 9.210488432e-13)
5(-3.796368119e-11 -1.175204847e-12 1.116475492e-12 1.145665798e-12 9.129888149e-13)
5(-2.931437349e-11 -4.632021953e-13 1.217813647e-12 1.078165417e-12 7.397571198e-13)
5(-2.09167706e-11 1.107237199e-14 1.116536875e-12 8.081933509e-13 3.776929281e-13)
5(-1.566371869e-11 2.088189668e-13 7.594196194e-13 3.30127126e-13 -1.416088471e-13)
5(-1.008382908e-11 5.715934737e-14 1.623450041e-13 -3.117330408e-13 -6.958741262e-13)
5(-5.957949458e-12 -3.870775729e-13 -5.877767762e-13 -9.874947386e-13 -1.139437386e-12)
5(-4.102079107e-12 -1.033145384e-12 -1.326494024e-12 -1.516183575e-12 -1.360789584e-12)
5(-2.979141647e-12 -1.700245312e-12 -1.863001826e-12 -1.747427776e-12 -1.314803225e-12)
5(-2.655066171e-12 -2.160815877e-12 -2.055365716e-12 -1.633555691e-12 -1.059331466e-12)
5(-2.602304302e-12 -2.255814353e-12 -1.872908555e-12 -1.266189191e-12 -7.030733416e-13)
5(-2.495552677e-12 -1.989040917e-12 -1.413747194e-12 -8.1721306e-13 -3.807566522e-13)
5(-2.143838058e-12 -1.485290641e-12 -8.815868444e-13 -4.338223542e-13 -1.662554674e-13)
5(-1.583942962e-12 -9.185031083e-13 -4.519543533e-13 -1.836686138e-13 -5.624897877e-14)
5(-9.780764936e-13 -4.608332037e-13 -1.813697472e-13 -6.057986107e-14 -1.481142355e-14)
5(-4.981662006e-13 -1.831312265e-13 -5.442999336e-14 -1.476801037e-14 -2.853890956e-15)
5(-2.017180948e-13 -5.465652109e-14 -1.219639301e-14 -2.688429885e-15 -3.831833252e-16)
5(-6.033554253e-14 -1.123727473e-14 -1.905201439e-15 -3.198762348e-16 -3.24343457e-17)
5(-1.180590524e-14 -1.558412037e-15 -1.881940014e-16 -1.779285658e-17 -2.109804711e-18)
5(-1.461167795e-15 1.075829065e-15 -2.691736663e-17 1.231064523e-15 -8.335594618e-20)
5(-1.053390684e-16 2.545593578e-13 -3.16814676e-15 2.44131431e-13 -1.730513923e-21)
5(-2.707770589e-18 7.511498535e-11 -8.226251517e-13 6.430616909e-11 -2.794136268e-23)
5(-1.363624623e-20 3.730134872e-08 -3.074864374e-10 2.675858688e-08 -1.133639931e-25)
5(-1.270373725e-22 0.0001440063881 8.241556757e-13 8.691768809e-05 -2.231132909e-28)
5(-8.734440856e-26 0.0002879383232 6.149822392e-10 0.0001737819871 -1.615016017e-31)
)


60
(
5(3.64921392e-10 3.426602603e-10 -7.639722065e-11 -7.839710543e-12 -1.774285599e-11)
5(3.438657089e-10 2.857796157e-10 -3.779894799e-11 -1.97543389e-12 -1.156822836e-11)
5(3.489072266e-10 1.893304185e-10 2.212592141e-11 7.214404057e-12 -1.95070297e-12)
5(4.664713772e-10 1.383375102e-10 5.193560324e-11 1.140790426e-11 3.128708463e-12)
5(5.979670789e-10 1.189510317e-10 5.427346118e-11 1.039315408e-11 4.512197688e-12)
5(5.775644743e-10 9.21611945e-11 3.324206127e-11 4.7834698e-12 2.372723396e-12)
5(4.217404484e-10 5.790397712e-11 6.98527138e-12 -2.145820281e-12 -1.081656521e-12)
5(2.813312773e-10 2.969499714e-11 -1.092602174e-11 -7.097140283e-12 -3.229698248e-12)
5(2.416352132e-10 9.752645014e-12 -1.965496912e-11 -1.006100754e-11 -4.017905496e-12)
5(2.095667672e-10 -1.374291841e-11 -2.446939314e-11 -1.224396087e-11 -4.485140606e-12)
5(1.834730877e-10 -3.524284606e-11 -3.013423289e-11 -1.452951471e-11 -5.104858186e-12)
5(1.492050814e-10 -5.093852277e-11 -3.698399985e-11 -1.677703547e-11 -5.797368257e-12)
5(1.470483982e-10 -7.224814917e-11 -4.369922535e-11 -1.850518089e-11 -6.469153174e-12)
5(4.085202078e-11 -8.767877864e-11 -4.861892205e-11 -1.959974486e-11 -6.838375159e-12)
5(-9.581258895e-11 -9.755866609e-11 -5.098512742e-11 -2.009425781e-11 -6.873608553e-12)
5(-6.144583437e-11 -1.037547502e-10 -5.28827258e-11 -2.002357713e-11 -6.893520359e-12)
5(-7.625035087e-11 -1.091292635e-10 -5.375430171e-11 -1.921822708e-11 -6.624086792e-12)
5(-1.335220066e-10 -1.14064263e-10 -5.16121534e-11 -1.842018796e-11 -6.184788438e-12)
5(-1.612563398e-10 -1.124743423e-10 -4.923334183e-11 -1.733720079e-11 -5.723592627e-12)
5(-1.869771379e-10 -1.088944902e-10 -4.667761094e-11 -1.582242183e-11 -5.207360964e-12)
5(-2.445868573e-10 -1.066365753e-10 -4.293464169e-11 -1.422984876e-11 -4.608772216e-12)
5(-2.58634608e-10 -1.009304602e-10 -3.847554376e-11 -1.248194398e-11 -3.966920647e-12)
5(-2.425452967e-10 -9.338687324e-11 -3.412979732e-11 -1.082315985e-11 -3.455084437e-12)
5(-3.058640891e-10 -8.655003333e-11 -3.008568411e-11 -9.216890646e-12 -2.886857702e-12)
5(-3.281900864e-10 -7.633380024e-11 -2.571151916e-11 -7.637573831e-12 -2.303670224e-12)
5(-3.541132656e-10 -7.14015899e-11 -2.124172689e-11 -6.154370855e-12 -1.829299859e-12)
5(-3.757714191e-10 -6.571458441e-11 -1.730359174e-11 -4.821398922e-12 -1.397664887e-12)
5(-3.587614239e-10 -5.44423776e-11 -1.406272857e-11 -3.675612492e-12 -9.860685277e-13)
5(-3.475932134e-10 -4.867877353e-11 -1.11810341e-11 -2.699446402e-12 -6.353789794e-13)
5(-3.523378034e-10 -4.588452063e-11 -8.497732679e-12 -1.862980768e-12 -3.220326504e-13)
5(-3.970172491e-10 -4.028470847e-11 -6.345506411e-12 -1.157121236e-12 -3.220106955e-14)
5(-3.875593643e-10 -3.486335325e-11 -4.791301577e-12 -5.607211257e-13 2.339662952e-13)
5(-3.547408739e-10 -3.057913869e-11 -3.549684248e-12 -5.366911935e-14 4.941771092e-13)
5(-3.149363513e-10 -2.658510151e-11 -2.374853584e-12 3.960399631e-13 7.601312686e-13)
5(-2.834569792e-10 -2.401935065e-11 -1.355208554e-12 7.842212213e-13 9.967115592e-13)
5(-2.683053181e-10 -1.964811145e-11 -5.63141109e-13 1.112115694e-12 1.183271363e-12)
5(-2.350627821e-10 -1.556274838e-11 8.972302345e-14 1.338472122e-12 1.263416563e-12)
5(-1.931125736e-10 -1.345188068e-11 5.641825558e-13 1.399373553e-12 1.170627632e-12)
5(-1.526489517e-10 -1.037903756e-11 7.950435911e-13 1.235418858e-12 8.356695081e-13)
5(-1.110558253e-10 -6.99697431e-12 7.206465064e-13 8.065754755e-13 2.531096574e-13)
5(-7.820773565e-11 -4.844055344e-12 3.247875845e-13 1.140837999e-13 -4.582480905e-13)
5(-5.17848567e-11 -3.355344048e-12 -3.610361137e-13 -7.447809085e-13 -1.170890799e-12)
5(-3.064324182e-11 -2.712293976e-12 -1.201720754e-12 -1.568230235e-12 -1.704960977e-12)
5(-1.75141982e-11 -2.646638518e-12 -2.006087201e-12 -2.139710795e-12 -1.907358246e-12)
5(-1.002401717e-11 -2.784294803e-12 -2.52028468e-12 -2.308161263e-12 -1.772616353e-12)
5(-5.768445119e-12 -2.915480906e-12 -2.591367412e-12 -2.056971261e-12 -1.387883509e-12)
5(-4.020408649e-12 -2.795266538e-12 -2.251599925e-12 -1.546317861e-12 -9.097400765e-13)
5(-3.196733359e-12 -2.361518609e-12 -1.63456453e-12 -9.766838473e-13 -4.895231908e-13)
5(-2.5461133e-12 -1.719628258e-12 -9.830743182e-13 -5.017764129e-13 -2.118553767e-13)
5(-1.865551353e-12 -1.052771851e-12 -4.820550396e-13 -2.067604105e-13 -7.122531475e-14)
5(-1.184056817e-12 -5.308770836e-13 -1.865316034e-13 -6.69597901e-14 -1.793016894e-14)
5(-6.2250613e-13 -2.098160464e-13 -5.466380188e-14 -1.599869083e-14 -3.395722376e-15)
5(-2.660868336e-13 -6.065336149e-14 -1.147818624e-14 -2.760390874e-15 -4.876569017e-16)
5(-8.907242506e-14 -1.309229646e-14 -1.64087911e-15 -2.956868404e-16 -3.404372543e-17)
5(-2.00196444e-14 -6.859383785e-16 -1.491241564e-16 1.194532945e-15 -2.192673519e-18)
5(-2.521897203e-15 2.325873428e-13 -1.088045348e-15 1.892827057e-13 -6.470675573e-20)
5(-2.689939126e-16 5.946575481e-11 -1.906428523e-13 3.785750575e-11 -5.553783637e-22)
5(-9.173810928e-18 2.266823139e-08 1.466725595e-13 1.05165279e-08 -6.431708682e-24)
5(-8.879423762e-20 -5.946697884e-11 1.906493683e-13 -3.785872128e-11 -7.051218392e-27)
5(1.395395682e-22 -4.533692828e-08 -2.911834074e-13 -2.103343438e-08 -5.18095523e-30)
)


60
(
5(1.298034715e-09 7.041296977e-10 -4.906438259e-11 3.1600276e-12 -1.88328308e-11)
5(1.155196586e-09 5.921863307e-10 -4.969897863e-12 9.139570941e-12 -1.15449594e-11)
5(1.005598583e-09 3.922062905e-10 6.333710076e-11 1.836924012e-11 1.231352162e-13)
5(1.195074055e-09 2.805323437e-10 9.595400963e-11 2.189788127e-11 6.595416412e-12)
5(1.494042528e-09 2.501932351e-10 9.262489848e-11 1.90830103e-11 8.221578713e-12)
5(1.41668596e-09 2.056350727e-10 5.957199692e-11 1.023052087e-11 5.058646031e-12)
5(1.116361636e-09 1.374811993e-10 1.883444688e-11 -3.647426859e-13 3.935345683e-14)
5(8.919117882e-10 8.859578826e-11 -1.065087996e-11 -8.272465136e-12 -3.229273798e-12)
5(7.954203494e-10 4.627486917e-11 -2.687261635e-11 -1.335264572e-11 -4.772705666e-12)
5(7.7974792e-10 1.208241662e-11 -3.637291438e-11 -1.746108256e-11 -5.620126272e-12)
5(7.08110816e-10 -2.237479439e-11 -4.627749741e-11 -2.162134908e-11 -6.773513107e-12)
5(6.723709244e-10 -6.014096274e-11 -5.872722272e-11 -2.576232821e-11 -8.227624852e-12)
5(5.264664903e-10 -8.930529893e-11 -7.080220771e-11 -2.944216339e-11 -9.598432212e-12)
5(4.217655627e-10 -1.17661512e-10 -8.05103283e-11 -3.185005701e-11 -1.05968167e-11)
5(3.730268486e-10 -1.390383606e-10 -8.559212524e-11 -3.306585944e-11 -1.108622774e-11)
5(2.27201549e-10 -1.594653113e-10 -8.823096417e-11 -3.344936476e-11 -1.127390458e-11)
5(2.28375498e-10 -1.680082554e-10 -8.87183847e-11 -3.322284742e-11 -1.104386343e-11)
5(6.739844721e-11 -1.707233231e-10 -8.801017388e-11 -3.219329914e-11 -1.077365965e-11)
5(-5.272140473e-11 -1.748386881e-10 -8.527540363e-11 -3.036383488e-11 -1.0101838e-11)
5(-5.787287372e-11 -1.733123877e-10 -8.055021223e-11 -2.823979702e-11 -9.384555161e-12)
5(-2.824778605e-10 -1.740676928e-10 -7.558816675e-11 -2.575495889e-11 -8.688420444e-12)
5(-2.770384515e-10 -1.678152123e-10 -6.861262236e-11 -2.322625994e-11 -7.721877541e-12)
5(-3.087619605e-10 -1.562618118e-10 -6.148568215e-11 -2.067104834e-11 -6.743344729e-12)
5(-6.154704999e-10 -1.515582699e-10 -5.509022962e-11 -1.779553223e-11 -5.773704168e-12)
5(-6.902066752e-10 -1.513853484e-10 -4.771168676e-11 -1.507650411e-11 -4.848095226e-12)
5(-6.260168093e-10 -1.44083318e-10 -4.085933193e-11 -1.263805035e-11 -3.974214176e-12)
5(-7.870666407e-10 -1.336168843e-10 -3.571275245e-11 -1.021974552e-11 -3.137689097e-12)
5(-1.133700115e-09 -1.322774825e-10 -3.101536222e-11 -8.08422426e-12 -2.426395288e-12)
5(-1.17352691e-09 -1.381825164e-10 -2.578660132e-11 -6.383220838e-12 -1.804317875e-12)
5(-1.1073168e-09 -1.303333093e-10 -2.104310266e-11 -4.812004975e-12 -1.189706136e-12)
5(-1.191078297e-09 -1.16171068e-10 -1.829956945e-11 -3.453791375e-12 -6.764992076e-13)
5(-1.255687736e-09 -1.231156502e-10 -1.609281356e-11 -2.386640365e-12 -2.267733989e-13)
5(-1.351100077e-09 -1.258620185e-10 -1.356360673e-11 -1.4719686e-12 2.245370268e-13)
5(-1.270083511e-09 -1.153895246e-10 -1.129700678e-11 -7.046029448e-13 6.209200375e-13)
5(-1.178838355e-09 -1.061644745e-10 -9.472261776e-12 -2.300586176e-14 9.677754447e-13)
5(-1.085502715e-09 -9.579304369e-11 -8.224034134e-12 5.650865656e-13 1.28235743e-12)
5(-9.590769664e-10 -8.850883978e-11 -6.682525174e-12 9.989152107e-13 1.487947733e-12)
5(-8.553266572e-10 -7.894343727e-11 -4.963327825e-12 1.261778953e-12 1.519907458e-12)