/*--------------------------------*- C++ -*----------------------------------*\
| =========                 |                                                 |
| \\      /  F ield         | OpenFOAM: The Open Source CFD Toolbox           |
|  \\    /   O peration     | Version:  2.3.1                                 |
|   \\  /    A nd           | Web:      www.OpenFOAM.org                      |
|    \\/     M anipulation  |                                                 |
\*---------------------------------------------------------------------------*/
FoamFile
{
    version     2.0;
    format      ascii;
    class       dictionary;
    location    "constant";
    object      GRPSI56;
}
// * * * * * * * * * * * * * * * * * * * * * * * * * * * * * * * * * * * * * //

GRPSI56_table
60
(

60
(
5(-0.01391628456 0.007339434996 0.00991438264 0.00825297568 0.02527234063)
5(-0.01113797885 0.003004764264 0.007588380917 0.003603127111 0.009176999762)
5(0.006311363411 0.004583622452 0.001199028585 -0.004583622452 -0.00870942058)
5(0.007316177586 0.004792946007 -0.002158143347 0.002703129468 0.01199226006)
5(0.006572268522 0.005096918504 0.0009281517074 0.0001665271362 0.002098319344)
5(0.001278347802 7.80212069e-05 0.001612350628 0.00187663822 -0.000593730203)
5(-0.001850206143 -0.0005258733304 0.0006718745706 0.004220055382 0.007894821105)
5(0.0015726068 0.002542516547 0.00124045821 -0.001400069501 -0.001768629128)
5(-0.0002047874558 0.0007875546141 0.001197112576 0.0007128641252 0.0008113997832)
5(0.0005434568886 0.001711677856 0.0006755136423 0.0002468891854 0.00202264991)
5(0.0001589817305 0.001449507042 0.0007821769488 0.0004004148527 0.001976508161)
5(0.0003836640508 0.00104677166 0.0008170272106 0.0005232480779 0.001122321003)
5(0.001294919027 0.001323210851 0.001074371211 0.0009325105632 0.001067781379)
5(0.0005891564793 0.0009881092061 0.0005647494999 0.0005644871708 0.001386537275)
5(0.0009590629378 0.001135473537 0.0009453765829 0.0006846521571 0.0007904352846)
5(0.0008098671818 0.001127989807 0.0009159635094 0.0005964059581 0.0008069973296)
5(0.0007314464012 0.001125976678 0.000958464351 0.0007899811935 0.001183540639)
5(0.0007448304793 0.001146124729 0.001117663963 0.0008596554586 0.001031401969)
5(0.0008794106779 0.00120624894 0.001056911819 0.000857469284 0.001134202132)
5(0.0009846154551 0.001220997034 0.001166429813 0.0006574078901 0.0004393347671)
5(0.0008052689122 0.001094712472 0.001217222443 0.0007977177073 0.0005451465621)
5(0.000743797303 0.001159578199 0.0006996047586 0.0003560956025 0.0008883407821)
5(0.0006173188516 0.0009894712227 0.0009748289419 0.0007469182952 0.0009058023005)
5(0.001093758564 0.001088724603 0.0008113852967 0.0006578045861 0.0007765292201)
5(0.001008267374 0.001117370013 0.000968200312 0.0007183671149 0.0007268062578)
5(0.0009770551353 0.00133591402 0.001233571939 0.0004941709623 0.0002159709518)
5(0.0007629853458 0.001121700039 0.001423164173 0.0007226576136 7.940161333e-05)
5(0.0008729639696 0.001324057518 0.001494051744 0.000572321296 -6.830982971e-05)
5(0.0007550972276 0.001077356056 0.001326573948 0.0007371599152 0.0002207868178)
5(0.000977822903 0.001017430537 0.0009744506366 0.0006824836835 0.0004731042639)
5(0.0009781025328 0.001087878193 0.001075221898 0.0005836944449 0.0002145989473)
5(0.0008553492913 0.0009087831724 0.0007789073909 3.228904558e-05 -0.0005310196371)
5(0.001057001579 0.001039568661 0.0007180101219 0.0006009047021 0.0007879249025)
5(0.001197165411 0.001196258366 0.0004804673982 -0.0004546937612 -0.0006749709984)
5(0.001011851657 0.001048136161 0.0004751629182 -0.0004084329756 -0.0006827711222)
5(0.001497968062 0.001568363648 0.0002528085287 -0.001025800008 -0.0009184578395)
5(0.0006903342749 0.0006235016619 0.0001653425858 -9.7407008e-05 3.116986132e-05)
5(0.001164558821 0.0005775765757 5.338347888e-05 -0.001867421751 -0.00385101613)
5(0.0007874703623 0.0006779469179 -0.0001768402209 -0.0005519143576 -0.0001817247998)
5(0.000301324099 0.0007166896916 -0.0001583253533 -0.007137992507 -0.01282727902)
5(-0.0003634039572 -1.59255099e-05 -0.0002630881737 -0.006561072937 -0.01226441659)
5(-0.0002468016638 -0.0001622479692 -0.002326148203 -0.006659798 -0.008744993868)
5(-0.001194044276 -0.0006656311477 -0.006599058934 -0.00629773271 0.0004654344296)
5(-0.0009539142647 0.001074451833 -0.00695703684 -0.007932175388 0.001152540834)
5(-0.001789829097 0.0002588803584 -0.006688107648 -0.007346465731 0.0009908736481)
5(-0.0006291796468 -0.0006821074413 -0.006772439774 -0.005795684812 0.001218474687)
5(-0.001204056019 -0.005316577598 -0.00595124697 -0.0004416136987 0.001590167367)
5(-0.004552469151 -0.006517591588 -0.003543971977 0.001808767461 0.002222764851)
5(-0.003375960393 -0.006205297354 -0.003337477416 0.002667614865 0.002975550247)
5(-0.0126017358 -0.005432728728 0.00242343292 0.003514499071 0.003918410646)
5(-0.0106204656 -0.004053165719 0.003288972121 0.004577069347 0.005090328615)
5(-0.001378425057 0.0009501680172 0.004255705877 0.005895238895 0.006557827127)
5(0.002568040369 0.003400660469 0.005458109384 0.007525051655 0.00836716511)
5(0.003901570821 0.00468236626 0.00694085975 0.009542031363 0.01066550492)
5(0.00492888666 0.005953294752 0.008771754335 0.01197426466 0.01338272349)
5(0.005491552482 0.007165957275 0.01093983233 0.01486640718 0.01669351177)
5(0.005202904948 0.008149524245 0.01350785502 0.01806694425 0.02021432201)
5(0.007188431274 0.009947957588 0.01584116267 0.0215409101 0.02410697876)
5(0.01077488176 0.01365952724 0.01532940281 0.0243824591 0.0346502853)
5(0.01637891419 0.02019749464 0.03041053252 0.0364222346 0.03603947926)
)


60
(
5(-0.007646662269 0.01125844625 0.01423182474 0.01233866567 0.02637723662)
5(0.001430325163 0.007431874728 0.008994828756 0.008111172294 0.01166611137)
5(0.006074290906 0.005974874007 0.006653885886 0.005963198734 0.004494082804)
5(0.007447768123 0.006030553562 0.006177831061 0.00546638763 0.003190452138)
5(0.006865855071 0.006650432819 0.006538414197 0.005925201683 0.005208585538)
5(0.005626602448 0.006896793905 0.006924138271 0.00668307946 0.00768486774)
5(0.00509127252 0.006795426207 0.007036566973 0.006982863026 0.008392172001)
5(0.005232439712 0.006703523817 0.006952781708 0.006853019312 0.007975083131)
5(0.005501283703 0.006572141836 0.006819362434 0.006718736961 0.007441749023)
5(0.005620450277 0.006507759134 0.006782350645 0.006697430944 0.007225228589)
5(0.005668451168 0.006536697186 0.006796150083 0.006768952389 0.007350547816)
5(0.005581653149 0.006591694404 0.00683565866 0.006824783679 0.007579985697)
5(0.00555078827 0.006630697899 0.00685022057 0.006820981975 0.007652130339)
5(0.005571736034 0.006653798186 0.006882468962 0.006805893344 0.007582709101)
5(0.005597648861 0.006667285536 0.006883667811 0.006795885524 0.007561357637)
5(0.005642884061 0.006698719054 0.006876911769 0.006768844379 0.007538419266)
5(0.005677878524 0.006746189467 0.006896062235 0.00674347166 0.007509319261)
5(0.005721867025 0.006785239266 0.006898319312 0.006722636472 0.007497245826)
5(0.005734333116 0.006817628413 0.006930584119 0.006700685073 0.007441125617)
5(0.005784912968 0.006848180766 0.006953006399 0.006695136617 0.007395709002)
5(0.005826894342 0.006882301028 0.00695595054 0.006652734235 0.007331275103)
5(0.005881671973 0.006906817921 0.006952578442 0.006620452504 0.007267711992)
5(0.005935548379 0.006942868432 0.006926037712 0.006583798691 0.007265710444)
5(0.005994588548 0.006980914351 0.006868089359 0.006509397317 0.00724985607)
5(0.006036487063 0.006996981251 0.006855415702 0.00646184919 0.007170342414)
5(0.006091301611 0.007056073828 0.00684703084 0.006356930065 0.007040644496)
5(0.00609919738 0.007078552435 0.006856656379 0.006269253319 0.00688310137)
5(0.006162967958 0.007096752565 0.006813716735 0.00615900092 0.006721105542)
5(0.006199047996 0.007116984384 0.006746276545 0.006039457549 0.006621282778)
5(0.006200410592 0.007108454577 0.006680180922 0.005888835246 0.006433807209)
5(0.006198864374 0.007098526704 0.006584776435 0.005714578096 0.006257792357)
5(0.006188515591 0.007049205692 0.00646936196 0.005510103677 0.005991379227)
5(0.006152752961 0.0070037235 0.006313932829 0.005221324862 0.005669478104)
5(0.006092209471 0.006914836042 0.006116797319 0.004852647352 0.005209162678)
5(0.006011853159 0.00680028398 0.005847798619 0.004393223491 0.004679564542)
5(0.00584424986 0.006622470454 0.005531845424 0.003865882655 0.00406876551)
5(0.005621885455 0.006398529955 0.005118294367 0.003328874394 0.00359633451)
5(0.005328540059 0.006069863069 0.004628438795 0.002762664133 0.003079636754)
5(0.004849149209 0.005640264777 0.004104821458 0.001957184849 0.002136107128)
5(0.004429708529 0.005124183079 0.003373904608 0.0006739809272 0.0004188102666)
5(0.003737010506 0.004427467857 0.002584651821 -0.001130598702 -0.002312575839)
5(0.003192646283 0.003765697243 0.001412886404 -0.003413268104 -0.005313560814)
5(0.002283567594 0.002988404936 -0.0001054800772 -0.005787853864 -0.007671505296)
5(0.001149310652 0.002268112638 -0.001943427895 -0.008011982043 -0.008750193674)
5(0.0002907840733 0.001444428579 -0.004138141962 -0.009831819759 -0.00878928251)
5(-0.0003839571614 0.0004089507336 -0.006274589096 -0.01104004026 -0.008329043705)
5(-0.0007403050819 -0.001030575765 -0.00814350788 -0.01131930996 -0.007672450617)
5(-0.00119723333 -0.002596151958 -0.009396983056 -0.01080027388 -0.006801652242)
5(-0.002028847939 -0.004059629436 -0.009895437465 -0.009587730708 -0.005474997419)
5(-0.003460277547 -0.00506277055 -0.009341639724 -0.007809180496 -0.003600345096)
5(-0.005054236755 -0.005471193002 -0.007865505379 -0.005579498184 -0.00131613486)
5(-0.005831678437 -0.00501288417 -0.005654325634 -0.002892992343 0.00132857668)
5(-0.005195753239 -0.003595949218 -0.003035065929 0.0001101200097 0.004294226681)
5(-0.00312370505 -0.001263001222 -2.51881631e-05 0.003574976013 0.007798030958)
5(0.0002351389214 0.00183917656 0.003388644415 0.007498864771 0.01166365491)
5(0.004159286321 0.005432519943 0.007303905013 0.01202368714 0.01614531781)
5(0.008420857164 0.009461277781 0.01176610136 0.01718175501 0.0213330057)
5(0.01282900758 0.01374075227 0.01678672975 0.02311317948 0.02730539642)
5(0.01701007347 0.01810537833 0.0225479352 0.03005286701 0.03421054681)
5(0.02166229991 0.02134975209 0.02951371094 0.04023546397 0.04248071031)
)


60
(
5(-0.003880806177 0.01491645675 0.01875788548 0.01612345516 0.02844485903)
5(0.004916288122 0.01090263712 0.01306734289 0.01215415525 0.01506261083)
5(0.009327713215 0.009558595684 0.010619991 0.01015092845 0.008851353041)
5(0.01061393097 0.009742299113 0.0101761142 0.009618387866 0.007755214584)
5(0.01001038093 0.01027716129 0.01051960638 0.01001606107 0.009536851031)
5(0.008899696345 0.01048061366 0.01084239492 0.01067687674 0.01173049461)
5(0.00836579204 0.0104221088 0.01093300292 0.01090131245 0.01241504462)
5(0.008507664939 0.01030511249 0.01081354934 0.01080971026 0.01209488188)
5(0.008782420012 0.01018014616 0.01067779569 0.01068021386 0.01158270864)
5(0.008904657058 0.0101132623 0.01062593775 0.01070823581 0.01148646366)
5(0.008926647524 0.01014778404 0.01064291666 0.01074630313 0.01157569351)
5(0.008864567423 0.01019255634 0.01067891368 0.01079126504 0.01174524798)
5(0.008839555733 0.01023540589 0.01069268504 0.01078378577 0.01181345752)
5(0.008867957016 0.01025931531 0.01069655676 0.01076272813 0.01178301634)
5(0.008914529301 0.01029294807 0.01068668172 0.01072702138 0.01175204616)
5(0.00897119012 0.01032102218 0.01068433403 0.01070793831 0.0117180628)
5(0.008992202579 0.0103688136 0.01070022243 0.01067731502 0.0116996098)
5(0.009038377421 0.01040169787 0.01071169206 0.01065732445 0.01165628311)
5(0.009079034774 0.01045479215 0.01072476799 0.01062533027 0.01163167408)
5(0.009127582275 0.01048728581 0.01075054511 0.01060679632 0.01155949177)
5(0.009205052634 0.01053804824 0.01075367279 0.01057392595 0.01151155015)
5(0.009261360207 0.01056008931 0.01072918144 0.01054116145 0.01148277841)
5(0.009337755899 0.01061647607 0.01071949328 0.01048177754 0.01141976478)
5(0.009398888028 0.0106576128 0.01068414133 0.01041918903 0.01138643296)
5(0.009468306558 0.01071300627 0.01066623045 0.01034055925 0.01130636357)
5(0.009531491653 0.01075631609 0.01066840653 0.01025297537 0.0111502782)
5(0.009570587113 0.01079222896 0.01066060188 0.0101738011 0.01104026925)
5(0.009669961351 0.01084561014 0.01064082965 0.01004795339 0.01083550639)
5(0.009691657806 0.01085819458 0.01058374266 0.009942742044 0.01074273012)
5(0.009722048206 0.01089006627 0.01054398601 0.009786554773 0.01054322186)
5(0.009791265404 0.01090821009 0.01044037515 0.009609609035 0.01036362254)
5(0.009811320298 0.01089561509 0.0103393939 0.00940673365 0.01011458937)
5(0.009788357695 0.01088883971 0.01023506808 0.009106423078 0.009732031728)
5(0.009822645246 0.01086282555 0.01004114491 0.008733073669 0.009286863362)
5(0.0097906915 0.010784157 0.00981936454 0.008287417737 0.008713728897)
5(0.009801092204 0.01073481367 0.009530193945 0.007746772478 0.008101692196)
5(0.00962879502 0.01057073632 0.009187096192 0.007192515926 0.007523517083)
5(0.009500154226 0.01038184252 0.008754387518 0.006568488634 0.006891733052)
5(0.009303203526 0.01008967342 0.008209550832 0.005682839992 0.005822721632)
5(0.009009264667 0.009717045055 0.007566058426 0.004333464407 0.003959637405)
5(0.008733033957 0.009316606602 0.006746406188 0.002359027015 0.001125420901)
5(0.008325667728 0.00876183808 0.00562974117 -1.372283895e-06 -0.002064218475)
5(0.007835553769 0.008236877586 0.004121738752 -0.002585826495 -0.004776929094)
5(0.007254483206 0.007708319095 0.00216715593 -0.005126685111 -0.006425527099)
5(0.006560459878 0.007028106808 2.740892789e-06 -0.00731124682 -0.007132221688)
5(0.006131628693 0.006118522093 -0.002286981133 -0.008973447338 -0.007267516915)
5(0.005974245694 0.004856269364 -0.004360748489 -0.009841460233 -0.007223130453)
5(0.00571490789 0.003395177461 -0.005924607167 -0.009911982908 -0.00689930445)
5(0.004924654501 0.001978313601 -0.006701201832 -0.009242682892 -0.006050989417)
5(0.003649644084 0.000866212972 -0.006618761511 -0.007923207114 -0.004526109347)
5(0.002103337386 0.0002779094114 -0.005581218873 -0.005972768501 -0.002330617819)
5(0.001104027564 0.000408414423 -0.003831212038 -0.003521132169 0.000332961021)
5(0.001259368716 0.001362684892 -0.001522514998 -0.0005326836564 0.003445663751)
5(0.002706196751 0.003134301359 0.001226833344 0.002999526861 0.007107793)
5(0.004988424505 0.00559938835 0.004576021466 0.007144161199 0.01134663166)
5(0.008004216208 0.008658436367 0.008456799242 0.01193133239 0.01626172282)
5(0.01151031637 0.01220822571 0.0129495385 0.01742519909 0.02185745622)
5(0.01522600346 0.01610517102 0.01813149078 0.02373854362 0.02819844427)
5(0.01909137136 0.02035356473 0.02398930829 0.03091049382 0.03545812915)
5(0.02371779656 0.02376039841 0.03106815758 0.04143280788 0.04453230086)
)


60
(
5(-0.000613668006 0.01842607472 0.02314000629 0.01971290434 0.03061161354)
5(0.008032826946 0.0141471812 0.01686004822 0.01583935012 0.01822013925)
5(0.01237377054 0.01283221496 0.01422652925 0.01386161625 0.01256083339)
5(0.01361590606 0.01310883291 0.01377962923 0.01329009459 0.01162269046)
5(0.01300431293 0.01361172494 0.01408841792 0.01362178196 0.01328586505)
5(0.01191157106 0.0137515495 0.01437087663 0.01424321947 0.01533621363)
5(0.01140626384 0.01368560681 0.01441028163 0.01443653977 0.01601746605)
5(0.01153625136 0.01356920726 0.01427720098 0.01434135004 0.01573046128)
5(0.01178990801 0.01343993505 0.01413823898 0.0142234817 0.01526044754)
5(0.01192257808 0.0133752283 0.01407157788 0.0142270859 0.01513889457)
5(0.01191866287 0.01338627814 0.01407274164 0.01426478277 0.01523797565)
5(0.01188213954 0.0134284711 0.01408289214 0.01429944362 0.01540790561)
5(0.01185039434 0.01346699571 0.01409718119 0.01428856459 0.0154663639)
5(0.01187587244 0.01349055758 0.01409601454 0.01425092221 0.01541505806)
5(0.01191564802 0.01351599979 0.01408233436 0.01422129426 0.01539427135)
5(0.01196483876 0.01355496554 0.01406994162 0.01418174046 0.01536869002)
5(0.01201150929 0.01360012301 0.01407805344 0.01415267416 0.01533797818)
5(0.0120434685 0.01363556971 0.01407132113 0.01413213889 0.01534930643)
5(0.01210095691 0.0136871484 0.01409376818 0.01409181016 0.01526942385)
5(0.01215912333 0.01372200167 0.01410052589 0.01407484848 0.01523352521)
5(0.01221723456 0.01377938027 0.01412627645 0.01402350646 0.015135986)
5(0.01230643963 0.01381717439 0.01408950436 0.01398939088 0.0151276822)
5(0.01236998676 0.01387164951 0.01408370734 0.01393517078 0.01507623913)
5(0.01244540437 0.01391399994 0.01406684602 0.01389143672 0.01503177691)
5(0.01250291535 0.01398485012 0.01405930373 0.0138195559 0.01498728924)
5(0.01260790753 0.01404905653 0.01404970489 0.0137393838 0.01486956335)
5(0.0126722332 0.01411365434 0.01406791863 0.01364632625 0.01471189071)
5(0.01276077815 0.01417738755 0.01406728258 0.01356201939 0.01458347057)
5(0.01283612749 0.01423316095 0.01403200493 0.01343635341 0.01443889137)
5(0.01291306358 0.01429252426 0.01401235549 0.01332230084 0.01429187565)
5(0.01300117643 0.01435690406 0.01396409422 0.01315908386 0.01410261096)
5(0.01308597869 0.01438643378 0.01390566658 0.01300782379 0.01389120329)
5(0.01316216215 0.01446336711 0.01383955806 0.01274094093 0.01356733782)
5(0.0132773285 0.01451593531 0.0137252616 0.01243473098 0.01317348088)
5(0.01335045759 0.01455302475 0.01358728317 0.01203142244 0.01264387047)
5(0.01345428569 0.0145829245 0.01340666603 0.01158131073 0.01206085272)
5(0.01350823581 0.01458317209 0.01318785487 0.01111178685 0.01150597232)
5(0.01356134047 0.01458044609 0.01289247353 0.01053487787 0.01088436039)
5(0.01362217912 0.014541998 0.01252047069 0.009731290769 0.00988345705)
5(0.01365534628 0.01446347135 0.01205280681 0.008436519927 0.008039022644)
5(0.01370945547 0.01430912188 0.0114190516 0.006599237117 0.005269159338)
5(0.01378675433 0.01415766847 0.01052194121 0.004336540222 0.002157780637)
5(0.01375626835 0.01398434191 0.009250085467 0.001815211195 -0.0006573330615)
5(0.01365957115 0.01382696225 0.007539018532 -0.0006962758139 -0.002476235347)
5(0.01353001132 0.01352849877 0.005546607478 -0.002971049662 -0.003508328062)
5(0.01346487012 0.01291857684 0.003472263218 -0.004746034084 -0.004064311036)
5(0.01351887672 0.01199908148 0.001566892421 -0.005914400015 -0.004483298626)
5(0.01341614288 0.01071506388 2.589386753e-05 -0.006325466238 -0.004688735324)
5(0.01294069325 0.009499795283 -0.0008849743454 -0.006081890694 -0.004334935386)
5(0.01152165274 0.008354776604 -0.0009770846217 -0.005214064365 -0.003286059019)
5(0.009914724169 0.007606940395 -0.0003031395533 -0.003662143534 -0.001418851341)
5(0.008726128018 0.007431194512 0.001057009371 -0.001496789263 0.00102866374)
5(0.008464289956 0.007916948361 0.002872150462 0.001264844895 0.004154995631)
5(0.009206277042 0.00909219524 0.00522304304 0.004640893851 0.00781381506)
5(0.01071525922 0.0108961951 0.008156718037 0.008711527277 0.01218674945)
5(0.01292003523 0.0132650417 0.01166488593 0.0135204014 0.01732107911)
5(0.01555128979 0.01612814568 0.0158452877 0.01898896477 0.02299235571)
5(0.01851648679 0.01939975097 0.02063224297 0.0252670441 0.02955261741)
5(0.02181364637 0.02313460559 0.02614960159 0.03246748861 0.03709133887)
5(0.02451746173 0.02672150481 0.03361054003 0.04224049688 0.0461854616)
)


60
(
5(0.002431549698 0.02184131783 0.02741210138 0.02316009914 0.03274708149)
5(0.01099822271 0.01725113489 0.0204754824 0.0193126942 0.02117847068)
5(0.01531204445 0.01592870511 0.0176218846 0.01731176267 0.0159251219)
5(0.0165152765 0.01628317165 0.01716215057 0.01668265348 0.01509207262)
5(0.01587535605 0.01676892186 0.0174406085 0.01695896396 0.01669919857)
5(0.01480334388 0.01684305885 0.01765824456 0.0175512645 0.01866881369)
5(0.01428751616 0.01676282702 0.01767071486 0.01771728674 0.01933128163)
5(0.01441177643 0.01664164467 0.01752671508 0.0176129137 0.01904391014)
5(0.01466092729 0.01649958331 0.01735314065 0.01749258653 0.0186171311)
5(0.01474965898 0.01642194038 0.0172855842 0.01748464246 0.01849233829)
5(0.01476907798 0.01642526272 0.01725367748 0.01751181011 0.0185977127)
5(0.01470991916 0.01645675636 0.01726949709 0.01753257703 0.01872975345)
5(0.0146690919 0.01649137332 0.01726019698 0.0175053663 0.01880399337)
5(0.01470575084 0.01650651471 0.01724330217 0.01747335185 0.01876737792)
5(0.01474339544 0.0165311102 0.01722205333 0.01742426376 0.01872324581)
5(0.01479513142 0.0165488562 0.01720580077 0.017396806 0.01868459143)
5(0.01481969052 0.01659716864 0.01720540011 0.01735603035 0.01867590723)
5(0.0148628488 0.01664392511 0.01718501221 0.01731720772 0.01868939244)
5(0.0149121836 0.01667968469 0.01721360366 0.01729185092 0.0186036803)
5(0.01496784979 0.0167269525 0.01721900941 0.01725734983 0.01856273606)
5(0.01503470021 0.01678101444 0.01722391036 0.01721902738 0.01851756269)
5(0.0151146924 0.01682866243 0.01721794418 0.01717623332 0.01845921073)
5(0.01519054025 0.01688395402 0.0171990828 0.01713396515 0.0184471325)
5(0.0152764023 0.01694702849 0.01717584449 0.01708452045 0.0184350066)
5(0.01536120966 0.01701779944 0.01717271095 0.01701772101 0.01836440933)
5(0.01542983801 0.01710325907 0.01720828088 0.01695480703 0.01826973243)
5(0.01554712656 0.01718153866 0.01721598509 0.01689461956 0.0181732197)
5(0.01562564335 0.01726076266 0.01723934964 0.01682246785 0.01806211838)
5(0.01570121598 0.01734243523 0.01725949731 0.01674123406 0.01794712799)
5(0.01583168233 0.01744466014 0.0172586125 0.01664764372 0.01783570039)
5(0.01596280957 0.01753970174 0.01725301502 0.01654104436 0.01769265259)
5(0.016083715 0.01763944359 0.01725339563 0.01641024235 0.01750886562)
5(0.01625406446 0.01776621885 0.01724790696 0.01623724089 0.01725704112)
5(0.01640973805 0.01791507792 0.01723685479 0.01599175569 0.0169302196)
5(0.01662118019 0.0180618028 0.01719652155 0.01569489366 0.01649916962)
5(0.01685281007 0.01823016379 0.01713195525 0.01534017266 0.01602395235)
5(0.01705565331 0.01840106372 0.01705553506 0.01497830469 0.01559201339)
5(0.01733302387 0.01859878819 0.01695074098 0.01455454614 0.01507216281)
5(0.01767658644 0.01880083875 0.01676987585 0.01391454482 0.01421442899)
5(0.01803938854 0.01899492742 0.0165476716 0.0128558291 0.0125667813)
5(0.01847132543 0.01920273965 0.01620972504 0.01124711107 0.01000892592)
5(0.01889928523 0.01943141055 0.01565352647 0.009208153129 0.007072789186)
5(0.01935127739 0.01968119508 0.01475699964 0.006976260788 0.004449635073)
5(0.01978631297 0.01996706251 0.01343595423 0.00469548317 0.002666869937)
5(0.02015572648 0.02009976655 0.01185297884 0.002614715484 0.001567279914)
5(0.02045409565 0.01990883932 0.01014358432 0.0008662641113 0.0008089425636)
5(0.02078900738 0.01928072081 0.008505929921 -0.0002900130821 0.0001805482362)
5(0.02078347261 0.01824192265 0.007137183565 -0.0008213372797 -0.0002166690035)
5(0.0202431838 0.01705610013 0.006311757397 -0.00074590914 -0.0002463166142)
5(0.01886217612 0.01593273596 0.006110641499 -0.0001562262547 0.0004695602981)
5(0.01712636115 0.01500077868 0.006537541031 0.001047553863 0.001895221873)
5(0.01564439076 0.01447176888 0.007494845859 0.002855755547 0.004020966367)
5(0.01501618687 0.01454847745 0.008867855248 0.005241082535 0.006827222603)
5(0.01530212051 0.01524576064 0.01073528519 0.008259519503 0.0102378694)
5(0.01631701618 0.01648754104 0.0131023407 0.01196659176 0.01438656801)
5(0.01792662272 0.01823515751 0.01602330361 0.01643005382 0.0193571927)
5(0.01997528604 0.02046674597 0.01957428501 0.02158875109 0.02498713805)
5(0.02236877724 0.02313329959 0.02380603673 0.0275539155 0.03139357948)
5(0.02506366846 0.02633868394 0.02888505461 0.03440886209 0.03866131437)
5(0.02795596346 0.02853631964 0.0347935808 0.04389006164 0.04730963751)
)


60
(
5(0.005352748302 0.02518769214 0.03159478276 0.026500089 0.03483324847)
5(0.01386485754 0.02025410401 0.02397229795 0.02263814948 0.02397505354)
5(0.01815853418 0.01890685005 0.0208782636 0.02058665667 0.01907195206)
5(0.01934574655 0.01933729083 0.02038979625 0.01988629031 0.01832182323)
5(0.01867202517 0.0198021947 0.02063765122 0.02011121405 0.01987948987)
5(0.01759011859 0.01981524187 0.02079888576 0.02067626411 0.02179512186)
5(0.01706221182 0.01970607706 0.02078198474 0.02082485026 0.02243567333)
5(0.01718828905 0.01958599033 0.02060497109 0.02069531045 0.02216437033)
5(0.01740292696 0.0194203786 0.02042280707 0.02057413309 0.02174048229)
5(0.01750528592 0.01933703013 0.02031665692 0.02054793608 0.02163133265)
5(0.0174824914 0.01931625403 0.02028483279 0.02056886757 0.02171808623)
5(0.01743546271 0.01934511415 0.02026901663 0.02057126477 0.02185926186)
5(0.0173876527 0.01936053555 0.02024944313 0.0205376973 0.02190992674)
5(0.01739644269 0.01937154274 0.02022309466 0.02049368341 0.02188782028)
5(0.01743691989 0.01938324482 0.0201884875 0.0204436772 0.02183994917)
5(0.01747228798 0.01940823019 0.02016963909 0.02040251257 0.02180991936)
5(0.01751450654 0.01944422475 0.02014071709 0.02035794524 0.02180839926)
5(0.01753598582 0.0194761983 0.02014630311 0.020326208 0.02177622055)
5(0.01758286279 0.01952279149 0.02014387931 0.02028843109 0.02175182376)
5(0.01763386695 0.01956276 0.02015466699 0.02025370976 0.02168973859)
5(0.01769112946 0.01960842024 0.02016300999 0.0202188938 0.02163747864)
5(0.01777308447 0.01966993323 0.0201467866 0.02017812528 0.02162945933)
5(0.01785235359 0.01972370397 0.02012966907 0.02014421047 0.02162413714)
5(0.01792342192 0.01979166464 0.02012174563 0.02009961666 0.02161564942)
5(0.01799953643 0.01987361196 0.02013125811 0.02005148229 0.02158813585)
5(0.01810118643 0.01996050724 0.02015955745 0.0200023477 0.02150540855)
5(0.01820008425 0.02005491439 0.02020638269 0.01995421224 0.02140540362)
5(0.0183102267 0.02015990373 0.02023813639 0.01989530165 0.02132391128)
5(0.01842017758 0.02026954339 0.02027332844 0.01984748577 0.02126722387)
5(0.01857337371 0.02039202518 0.02031220863 0.01980070343 0.02118766624)
5(0.0187091725 0.02052407615 0.02035725173 0.01974568262 0.02111584157)
5(0.01888312753 0.02069788273 0.02042073232 0.01966344278 0.02099805886)
5(0.01912063637 0.02088281794 0.02047216149 0.01956250328 0.02082568308)
5(0.01936662407 0.02110076216 0.02054267408 0.01940221278 0.02055397766)
5(0.01966093698 0.02134333432 0.0206143183 0.01922565997 0.02024841499)
5(0.01997987648 0.02162123375 0.02068084051 0.01900748252 0.01991587504)
5(0.02038930293 0.02197737919 0.0207578838 0.01878085392 0.01961139569)
5(0.02086920206 0.02235615695 0.02082558973 0.01854290837 0.01927774911)
5(0.02145262685 0.02280470941 0.02089010626 0.01810608818 0.01858875581)
5(0.02208567779 0.023298252 0.02092819653 0.01728975807 0.01723394928)
5(0.02285720893 0.02382267717 0.02090758136 0.01596563657 0.01490425583)
5(0.02369293162 0.02443224186 0.02071653879 0.01430537416 0.01234922284)
5(0.02454083846 0.0250857056 0.02022676496 0.01241515821 0.01000735923)
5(0.02533724247 0.02576529526 0.01936892302 0.01049827365 0.008452049314)
5(0.02602073354 0.0262440908 0.01825108919 0.008748076478 0.007461422645)
5(0.02663737203 0.02638104601 0.01696917559 0.00732822877 0.006842826347)
5(0.02722586993 0.02605593283 0.01571055675 0.006364141953 0.006193166145)
5(0.02730335572 0.02516857633 0.01460469667 0.0059415519 0.0057075074)
5(0.02674891119 0.02413987719 0.01385405334 0.005900043217 0.005622822952)
5(0.02539042099 0.02298572108 0.01362981906 0.006379976185 0.00608133541)
5(0.02353429453 0.02184967319 0.01379843388 0.007306667949 0.007181520003)
5(0.0218260096 0.02105846004 0.01443583212 0.008814578617 0.009048403475)
5(0.02088677402 0.02070747816 0.01535927199 0.01082129967 0.01145223766)
5(0.0208034052 0.02098626187 0.0166800231 0.01335597692 0.01452102617)
5(0.02136690632 0.02174606429 0.01848363064 0.01654090356 0.0182397681)
5(0.02262624585 0.02307751387 0.02081926417 0.02039584329 0.02268194015)
5(0.02422050308 0.02481941719 0.02374558149 0.02502003147 0.02796723126)
5(0.02622330043 0.0270238469 0.02735542109 0.0304519131 0.03401737738)
5(0.02839455781 0.02962050657 0.03182980861 0.03685576106 0.04089836024)
5(0.03056186199 0.03119110427 0.03697843811 0.04558843985 0.04904035003)
)


60
(
5(0.008194857084 0.02848250999 0.03570929038 0.02975022759 0.03685203731)
5(0.01666145491 0.02318222046 0.02737826616 0.02584794606 0.02664234582)
5(0.02094790542 0.02179989424 0.02402571599 0.02372544854 0.02205134818)
5(0.02211375895 0.02229940572 0.02350922815 0.02295307316 0.02137274252)
5(0.02140018677 0.02274495027 0.02371925808 0.02312282915 0.0228968559)
5(0.02030621636 0.02269184818 0.02382803297 0.02366269087 0.02474679578)
5(0.01977076186 0.02255888405 0.02376865197 0.0237901624 0.02539002711)
5(0.01987724518 0.02242713158 0.02357303465 0.02363806713 0.02510708293)
5(0.02007932378 0.0222430594 0.02335595475 0.02350926645 0.0247134184)
5(0.02015296348 0.02214019746 0.02323945867 0.02346931048 0.02458713506)
5(0.02012578733 0.02210340606 0.02317588733 0.02347752213 0.02468429437)
5(0.02006261281 0.02211899334 0.02314492667 0.02346058404 0.02480668862)
5(0.0199941046 0.02211637252 0.02310948659 0.02342262785 0.02486492297)
5(0.02000856604 0.02211985835 0.02306045238 0.02335938277 0.02482901145)
5(0.02002376562 0.02211556521 0.02301755974 0.02330992093 0.02479208718)
5(0.02006048151 0.02213309795 0.02297763407 0.02325750596 0.02476545818)
5(0.02006966818 0.02215668363 0.02295088385 0.02321199277 0.02476591693)
5(0.02009968676 0.02218500321 0.02293975649 0.02317362245 0.02473805157)
5(0.02013005354 0.02221845365 0.02292722336 0.02312824202 0.02470889107)
5(0.02017185351 0.02225220471 0.02293837435 0.02310095974 0.02465772669)
5(0.02024226515 0.0223030228 0.02292708218 0.02305636838 0.02462235283)
5(0.02028669654 0.02234297231 0.02292170609 0.02302650143 0.02460883876)
5(0.02036917897 0.02240835863 0.02290589232 0.02298462453 0.02460500271)
5(0.02043307781 0.02246912132 0.02288946876 0.02294763505 0.02462149742)
5(0.02052110234 0.02255208059 0.02290678274 0.02291136115 0.02459221565)
5(0.02059704021 0.02264873394 0.0229458542 0.02287424412 0.02455720752)