/*--------------------------------*- C++ -*----------------------------------*\
| =========                 |                                                 |
| \\      /  F ield         | OpenFOAM: The Open Source CFD Toolbox           |
|  \\    /   O peration     | Version:  2.3.1                                 |
|   \\  /    A nd           | Web:      www.OpenFOAM.org                      |
|    \\/     M anipulation  |                                                 |
\*---------------------------------------------------------------------------*/
FoamFile
{
    version     2.0;
    format      ascii;
    class       dictionary;
    location    "constant";
    object      GRPSI6;
}
// * * * * * * * * * * * * * * * * * * * * * * * * * * * * * * * * * * * * * //

GRPSI6_table
60
(

60
(
5(0.02136757029 0.05212881126 0.02726670004 0.02586035218 0.02979306763)
5(0.04899106964 0.01342196063 0.02214838686 0.02458015047 0.06473229628)
5(0.06490053687 -0.01629932595 0.003370086979 0.02324136307 -0.004168729155)
5(0.007726179718 -0.0005011876711 -0.001809030144 0.0004906288603 -0.03698139857)
5(-0.04661721369 0.006690074797 0.02339347054 -0.00945535588 0.0300275371)
5(-0.03441094872 0.0056788098 0.0180112214 0.008682319865 0.001285588737)
5(0.003872390639 0.002138837971 -0.01015794024 0.003712268902 0.006981452368)
5(0.003734712112 -0.001152800852 -0.005954804488 -0.004707952355 0.01007305234)
5(-0.00557649487 -0.002373151477 -0.002339828744 -4.41213441e-05 -0.01057697966)
5(0.0002864644737 -0.001104376134 -0.003938317002 0.001005275636 -0.00192886533)
5(-0.0007326750463 0.0001555276306 0.003651764371 -0.0002683867179 0.002476850307)
5(0.002269341515 -0.0002896296967 0.00398412636 -0.00138171809 0.001369945695)
5(-0.0005660780186 -0.0007424194714 0.0003877522978 0.0006501059339 0.0001971552634)
5(-0.0006133564487 0.0004312150289 0.0004543762408 0.0009468524917 0.001452267754)
5(0.001137713541 0.0004588022623 0.0002297694199 -0.001335979849 -2.208711132e-05)
5(-0.0009810435001 -0.0002659163492 -0.0007548685045 -0.000261941242 -0.001070147077)
5(-7.748417925e-05 0.0001425128066 -5.27321577e-05 -0.0007692561324 -0.001175336514)
5(0.0002134037994 -0.0001510935051 -8.960305965e-05 -0.0004685431364 -0.0002701996066)
5(-0.0006778310991 -0.001249534015 -0.000825503573 -0.001121862599 0.0002980828556)
5(-0.0007185704557 -0.0004331195045 3.194805995e-05 -0.0009720438155 0.0004572604121)
5(-7.423530605e-05 0.0006629276315 0.0003552866819 0.003009561485 0.001971628523)
5(-0.001145472603 -0.0004616421404 -0.0003049688114 0.0009798874496 0.0003287051723)
5(-0.0007290506561 -0.001503056435 -5.55425501e-05 -0.001645199233 -0.001079554426)
5(-0.0004155744915 -0.001303597768 -0.0007157895761 -0.0007768556511 -0.0001319223733)
5(-0.0009188398267 -0.0003761002825 -0.001631307146 -0.001830433246 -0.0002598894751)
5(-0.0008392798306 2.614188215e-05 -0.0003724540583 -0.001428730534 0.0003406640256)
5(-0.0006138669674 -0.0001590597725 -4.48811415e-06 -0.0005350204882 0.0004412729418)
5(-0.001265328748 -0.0009887185519 -0.0003668145346 0.0003596440081 0.0005041106801)
5(-0.001744467254 -0.001609344208 0.0004823070769 0.001666583262 0.001071086226)
5(-0.001586994333 -0.00168415129 -0.000695440061 0.0005232931461 0.001252531018)
5(-0.001641160858 -0.0008784040487 -0.0001052493772 0.001103485846 0.004092179863)
5(-0.001072655376 -0.0006971552074 0.0003287981839 0.002136630621 0.001799629104)
5(-0.001291730087 -0.001361539819 -0.001100117607 0.001377520841 0.002394505585)
5(-0.001683871653 -0.0008535674849 -0.0001812246601 0.001749619396 0.00556232104)
5(-0.001506419109 -0.001247507289 -0.001187332849 0.001326903547 0.002682037651)
5(-0.001302322301 0.0001085631376 0.001955827611 0.003219666861 0.00282125381)
5(-0.001131031267 0.0003801076159 0.004297661932 0.003148824396 0.01103244278)
5(-0.001244591668 -0.0005253874769 0.0005369206436 0.002821881168 0.004554322002)
5(-0.00202842883 0.0003582226883 -0.0006142100068 0.003249874934 0.02615872218)
5(-0.001370298254 0.001483573939 0.002768551965 0.004143692426 0.03091304226)
5(0.0004698234521 0.002442289703 0.005666187432 0.01513358392 0.0002542941469)
5(0.000892293375 0.003265687452 0.005794098324 0.03566349275 1.272417606e-05)
5(0.0006448068138 0.002628570395 -0.0004926989342 0.02415441603 -0.002383917634)
5(0.0009796877632 0.002720116024 0.001141296795 -0.000954591123 -0.0006782138321)
5(0.002965815926 0.00384493602 0.01156556618 -0.001557091441 0.0009533515885)
5(0.004620160329 0.006211254636 0.03271078121 -0.0007035653488 -0.0004547403627)
5(0.005899139457 0.01488773623 0.0352069272 -0.0007959496132 -0.0003514094032)
5(0.005883888879 0.01129544439 0.00974346516 -0.0004764360488 0.0001061844453)
5(0.00591367433 0.03046781867 0.0003651455525 -0.0006383857746 0.000228041268)
5(0.009765088631 0.02899742695 -0.0007922950368 -0.0001431086492 0.0007573814863)
5(0.03002135513 -0.0007677251416 -0.0007263336012 0.0003788556129 0.001413305889)
5(0.03219241403 -0.0008109796768 -0.0005163829974 0.0002973125295 0.001437715194)
5(0.009613934145 -0.0008095456716 7.92069757e-05 0.000659704348 0.002211101734)
5(-0.0001734748514 -0.0009158184028 0.0003449602593 0.001417733338 0.003216692315)
5(-0.003740970226 -0.0008206968593 0.0002218228189 0.002014137138 0.003907017172)
5(-0.007785127397 -0.0008741845297 2.66464307e-05 0.002756016458 0.007276552892)
5(-0.01094564486 -0.003911377176 -0.0002401546523 0.00565747997 0.008633838699)
5(-0.00995014279 -0.008294706699 -0.00341987884 0.02251702332 0.01417442998)
5(-0.01007844495 -0.0170527217 -0.01703100155 -0.02247813496 -0.008963838996)
5(-0.01112948501 -0.02434180038 -0.02745533869 -0.0821519335 -0.03914497617)
)


60
(
5(0.003247280657 -0.0005389038809 0.004638016344 0.003365478968 0.0060845194)
5(0.002588354177 -0.0005563604892 0.003789376314 0.00242834973 0.005362765391)
5(0.001034751516 -0.0005653322108 0.001481858055 0.0007015697575 0.002596851985)
5(-0.0003900287319 -0.0006116455176 -0.0007836405796 -0.0005299611078 -0.0007850548375)
5(-0.001230275552 -0.0006503371985 -0.00154328302 -0.0008244444126 -0.002076573278)
5(-0.00120232953 -0.0006423344528 -0.0009590922105 -0.0007226294915 -0.00141981816)
5(-0.0005915319708 -0.0005291726335 -0.0004076350218 -0.0006075946886 -0.0004474979236)
5(-0.0002568628303 -0.0003060022512 -0.0002504280785 -0.0002682373854 -3.995972855e-06)
5(-0.000371603837 -0.0003123786615 -0.0002058720371 -0.0002272935457 2.763245169e-05)
5(-0.0003936233675 -0.0004478019413 -0.0003171119723 -0.0003485519742 -0.0001875042692)
5(-0.0004141871651 -0.0004049570719 -0.0004107706009 -0.0003018646718 -0.0003831398549)
5(-0.0005055914359 -0.0003657569245 -0.0004205220889 -0.0002289771293 -0.000262267424)
5(-0.0003999481158 -0.0003630326427 -0.0003099977656 -0.0002654821318 -0.0001157796731)
5(-0.0003690403024 -0.0003041231536 -0.0002409980637 -0.0002366063521 -7.158204135e-05)
5(-0.0004069146676 -0.0003334622082 -0.0002683442276 -0.0001364395774 -1.40385598e-06)
5(-0.0004051245926 -0.0003830530489 -0.0003388443264 -0.0001788917591 3.380874136e-05)
5(-0.0003902477495 -0.0003946007117 -0.000326071403 -0.000152852602 6.793954138e-05)
5(-0.0004506670426 -0.0003697715762 -0.0002912756892 -0.0001025990443 0.0001164023874)
5(-0.0004791175652 -0.0003708443077 -0.0002740909038 -0.0001085731568 0.0001288064185)
5(-0.0004991157827 -0.0004270964365 -0.0002878272278 -5.447140253e-05 0.0002175328968)
5(-0.0005158841419 -0.0004630590358 -0.0002759622881 -5.511863639e-05 0.0003289452578)
5(-0.0005494884516 -0.0004639999679 -0.0002563420941 -4.875412843e-05 0.0003408849564)
5(-0.0006554383879 -0.0004827401143 -0.000296472937 8.862460879e-05 0.0004295388577)
5(-0.0006983973589 -0.00050887131 -0.0002522490956 0.0001256125365 0.0005431361084)
5(-0.0007348299422 -0.0005300172235 -0.0002924844974 0.0001018434847 0.0006328156069)
5(-0.0008089616282 -0.0005206470655 -0.0003063628886 0.000158387187 0.0007618287307)
5(-0.0008252790725 -0.0005542186133 -0.0001737615319 0.0002619592311 0.000932280575)
5(-0.0008576876774 -0.0006234917701 -0.0001536506516 0.0004041193361 0.001031577243)
5(-0.0009224263821 -0.0005709548614 -0.0001110248949 0.0005076998977 0.001202711846)
5(-0.0009585076821 -0.0005168744816 -2.150819476e-05 0.0006321372798 0.001410436868)
5(-0.0009629623987 -0.0004851290962 0.0001202737008 0.0007994056013 0.001592362028)
5(-0.0009693644747 -0.0004313433244 0.0002252888392 0.0009856032063 0.001863932084)
5(-0.0009698078582 -0.00035260801 0.000338728781 0.001200904786 0.002118748071)
5(-0.0009322428127 -0.0002554297202 0.0005304821603 0.001426260043 0.002371436954)
5(-0.0009095297453 -0.0001394760571 0.0007137768709 0.001656935935 0.002681340475)
5(-0.00081950665 3.556174973e-05 0.0009412931803 0.001997777554 0.003025402006)
5(-0.0007096923349 0.0002071560943 0.001214937915 0.002336876554 0.003345125176)
5(-0.0006132301039 0.000475259229 0.00153256165 0.002573799102 0.003698885495)
5(-0.0003869907704 0.000737364968 0.001864331546 0.002968207426 0.004087494892)
5(-0.0001246727037 0.001104459118 0.002345616858 0.00343101886 0.004549981802)
5(0.0002225252223 0.001448954173 0.00275332807 0.003886956637 0.005032535391)
5(0.0005819600529 0.001832399724 0.00319784877 0.004411639555 0.005541163667)
5(0.001019782814 0.002574530816 0.00382993583 0.004921738958 0.006068619594)
5(0.001646090897 0.003112437785 0.004465431021 0.005467362142 0.006548730283)
5(0.002366447243 0.003654581806 0.005094582065 0.006075127773 0.007016319536)
5(0.00316206723 0.004439442649 0.005708001856 0.006672449745 0.007483894876)
5(0.00399896413 0.005273297471 0.006363549077 0.007242146767 0.00795075569)
5(0.004852244202 0.006001346786 0.007059637606 0.007779234468 0.008304968252)
5(0.005841415664 0.00668038304 0.007792443533 0.008243564365 0.008597309016)
5(0.006863706789 0.007505920148 0.008512031828 0.008708819668 0.00889600068)
5(0.00788813217 0.008369829522 0.009247587239 0.00918826717 0.009125448651)
5(0.0089413342 0.009221209927 0.009902814139 0.009620609851 0.009492792855)
5(0.01004211617 0.01018575602 0.01055763199 0.01008300983 0.00985096803)
5(0.0113771595 0.01113050247 0.01132913613 0.01062252247 0.01037595518)
5(0.01281440737 0.01213027285 0.01221280418 0.01139427237 0.01134241618)
5(0.01444655237 0.01346120457 0.0133192017 0.01256260442 0.01274399899)
5(0.01651912311 0.01517277063 0.01499568165 0.01436084616 0.01493063983)
5(0.01985150556 0.01804835009 0.01785875449 0.01751625182 0.01862711063)
5(0.042796326 0.03716546042 0.05251478831 0.0433238541 0.03563118543)
5(0.06356886451 0.05439018876 0.08536370494 0.06708401653 0.05024850254)
)


60
(
5(0.0003244925667 -0.0007368595418 0.0003679690674 0.0003569458481 0.0003726985168)
5(0.0001868738219 -0.0005228060485 0.000279913276 0.0001954537928 0.0005251717378)
5(-3.2123686e-06 -0.0002468254142 4.082901633e-05 -4.624577208e-05 0.0003709143381)
5(-0.0001926716654 -0.0001715886996 -0.0002498545694 -0.0001776249071 -0.0002574019552)
5(-0.0002816505747 -0.0001410851942 -0.0002948115797 -0.0001498602822 -0.0004420785019)
5(-0.0001698688098 -7.491676915e-05 -0.0001235050742 -9.384867739e-05 -0.000191066747)
5(-7.570400325e-05 -4.468713902e-05 -3.957920046e-05 -5.989532186e-05 1.430293975e-06)
5(-8.113416865e-05 -6.037289149e-05 -4.340343799e-05 -1.015414706e-07 0.0001264246443)
5(-8.595479415e-05 -4.329431298e-05 -9.016013072e-06 2.981419042e-05 0.0001010140367)
5(-3.012048615e-05 -2.151834145e-05 -7.635606464e-06 5.82990853e-05 0.0001054203068)
5(-1.238377005e-05 1.497998086e-05 1.342843085e-06 0.0001059320015 0.0002184615175)
5(-5.051240295e-05 6.753541943e-06 5.47544148e-05 0.0001546298114 0.0002831676947)
5(-4.96296568e-05 -1.425528808e-05 8.255353401e-05 0.000179830409 0.0003398385642)
5(-3.01479659e-05 2.356268331e-05 9.154544604e-05 0.000228670717 0.0004050382301)
5(-6.39970545e-06 4.221065072e-05 0.000123973178 0.0002754106622 0.0004789306962)
5(-2.915212005e-05 6.049280908e-05 0.0001424085565 0.000289516918 0.0005318456306)
5(-6.510882695e-05 6.225444106e-05 0.0001624239939 0.0003166087168 0.0006152356557)
5(-4.35703085e-05 3.474145008e-05 0.000171626109 0.0003894502764 0.0006997344842)
5(-6.08145697e-05 4.311501463e-05 0.0001859751699 0.0004347450668 0.0007450018339)
5(-4.929094085e-05 4.176764996e-05 0.0002226129084 0.0004708796434 0.0007906182792)
5(-9.77372247e-05 1.437099086e-05 0.0002469385879 0.0005422209008 0.0008909096586)
5(-0.0001468428453 1.241718354e-05 0.0002502896898 0.0005512779003 0.0009926025985)
5(-0.0001475534984 1.990472663e-05 0.000240791907 0.0005908926852 0.001054586293)
5(-0.0001688993682 2.603849376e-05 0.0002872028834 0.000692092412 0.001149475915)
5(-0.0002093813187 2.168712597e-05 0.0003333719623 0.0007455762859 0.001289857851)
5(-0.0002530397245 5.054720644e-05 0.0004081795275 0.000838891472 0.001401663405)
5(-0.0002274759983 3.011935962e-05 0.0004205630096 0.0009027402473 0.001523030369)
5(-0.0002801599909 3.600053566e-05 0.0004709096125 0.001024175779 0.001669125206)
5(-0.0003150728257 0.0001055295912 0.0005603929351 0.001143471586 0.001841139124)
5(-0.0003048612131 8.27485023e-05 0.0006119721098 0.001245382538 0.002013165572)
5(-0.0003184731454 0.0001357272978 0.0007528553177 0.001439983379 0.0021819383)
5(-0.0003028692827 0.000271166998 0.0008588322658 0.001588992202 0.002407794039)
5(-0.0002917188215 0.0002836242644 0.0009562725827 0.001747310545 0.002620236643)
5(-0.0002562822336 0.0003513395 0.001172145246 0.001952942729 0.002834737898)
5(-0.0001584387399 0.0004986120064 0.001305439022 0.002181882911 0.003061043785)
5(-0.0001208495002 0.0006208310225 0.001455660341 0.002420992522 0.003347416107)
5(-0.0001267392768 0.0007637307536 0.001709477881 0.002655555471 0.003631983571)
5(-2.52948138e-05 0.0009088770675 0.001947155591 0.002899613057 0.003881346573)
5(0.0001196145137 0.001148016063 0.002234170756 0.003201103732 0.004092313578)
5(0.0003068425094 0.001388370126 0.00248942538 0.003535435241 0.004213106717)
5(0.0004704506181 0.001609122247 0.00280737327 0.003822162911 0.004373844269)
5(0.0007069996001 0.001942045884 0.003249424606 0.004100943431 0.004665187638)
5(0.00108536815 0.00234535084 0.00372820888 0.004375292031 0.005084146449)
5(0.001527555479 0.00285567565 0.004246837897 0.004634008866 0.005531394135)
5(0.002071407476 0.003408588611 0.004641461763 0.005033440932 0.005993884782)
5(0.00274929028 0.003992929832 0.004976306353 0.005567285003 0.0064815133)
5(0.003552387283 0.004685492032 0.005422608462 0.006125883861 0.006938054596)
5(0.004443249439 0.005371519586 0.005951133218 0.0067078265 0.00742512265)
5(0.005409606557 0.00588033614 0.006524003597 0.007300339014 0.0079624009)
5(0.00639551039 0.006410545273 0.007198773459 0.007901417372 0.008555356392)
5(0.007333680665 0.007149937507 0.007984076745 0.008546320786 0.009174746985)
5(0.008195008124 0.008002446922 0.008786646924 0.009278812769 0.009841194567)
5(0.009080228793 0.008962543061 0.009695459395 0.01010827916 0.01068828046)
5(0.01010697621 0.01010844771 0.01077477923 0.01104230081 0.01167162316)
5(0.01146098757 0.01149405895 0.01203881333 0.01221955617 0.01291515353)
5(0.01332729336 0.0131608783 0.01368578462 0.01376701046 0.01463798482)
5(0.01603318582 0.01555553159 0.01598217244 0.01602694779 0.01709781675)
5(0.02140133132 0.02005628271 0.02011387675 0.01989234055 0.02114475602)
5(0.05340073921 0.04839609246 0.06421549002 0.05785796788 0.04630481332)
5(0.08167018225 0.0736942694 0.1055276392 0.09334934828 0.06890351978)
)


60
(
5(5.561960001e-07 0.0004940195375 -0.0009624457918 -0.0003682441378 -0.001807024628)
5(4.475473215e-05 0.0005281399772 -0.0006167342373 -0.0002071937497 -0.001110176149)
5(0.0001610526506 0.000491519494 6.882291169e-06 0.0001162452049 -0.0001293433013)
5(0.0003531178473 0.0004265308829 0.0004312282596 0.0003654388973 0.0003441758715)
5(0.0005407395205 0.0004615429672 0.0005991692264 0.0004790482392 0.0006215193791)
5(0.0005504334243 0.0004454689954 0.0005438950012 0.0004823370519 0.0006285453179)
5(0.0004184209817 0.0003949227466 0.0004025918409 0.000433982494 0.0004798749729)
5(0.0003400212096 0.0003990183835 0.0003117195871 0.0003906930879 0.000429353902)
5(0.0003443449481 0.0003830952416 0.0003311007798 0.0004068131582 0.0004858151943)
5(0.0003562822096 0.0003955273974 0.0004095738623 0.0004956493409 0.0006113146197)
5(0.0003897674436 0.0004239956762 0.0004780168678 0.0005877122895 0.000724891001)
5(0.0004178463344 0.0004330661928 0.0005229940239 0.0006173111063 0.0007803543587)
5(0.0003911953766 0.0004501649009 0.0005354500646 0.0006264807793 0.000863339962)
5(0.000360769383 0.0004695812106 0.0005401582537 0.0006923935595 0.0009062515486)
5(0.0003740482504 0.0004731668273 0.0005545933713 0.0007603449921 0.0009622270862)
5(0.0004103753848 0.0004686006547 0.0005915578265 0.000774595431 0.001061254957)
5(0.0003904903278 0.0005031498897 0.0006571754754 0.0008391042181 0.001134538215)
5(0.0003911188158 0.0005030386111 0.0006735576254 0.0009120436327 0.001233131136)
5(0.000394054708 0.0005054053311 0.0007061660836 0.0009713977432 0.001304539048)
5(0.0003660769439 0.0005470016443 0.0007248468059 0.0009977487741 0.001363247986)
5(0.0003884187995 0.000516801024 0.0007324375584 0.001054512052 0.00148532244)
5(0.0003831949836 0.0005119391705 0.000782576636 0.001108516453 0.001578724458)
5(0.0003166793554 0.0005522611913 0.0008507483162 0.001130440178 0.001651761677)
5(0.000293598524 0.0005698608844 0.0008596544085 0.001238257652 0.001721354016)
5(0.0003135204451 0.0005517376294 0.0008583350719 0.001332229208 0.001839810166)
5(0.000301302188 0.0005470548811 0.0009426615812 0.001414283327 0.002008898638)
5(0.0002889494767 0.0005872307355 0.001003877413 0.001502800932 0.002108344477)
5(0.000275057247 0.0006071124387 0.001064758876 0.001627365217 0.002270874343)
5(0.0002646706492 0.0006431229195 0.001133559926 0.001716629727 0.002412958802)
5(0.000268458215 0.0006902241912 0.001217336099 0.001830237979 0.002572188923)
5(0.0002727830101 0.0007421627168 0.001372056781 0.00200326221 0.002763701769)
5(0.0002776274769 0.0008020010352 0.001431401165 0.002160763364 0.002933653772)
5(0.0002935513783 0.0008642040849 0.001501788426 0.002307044921 0.003118888906)
5(0.0003091485232 0.0009351433097 0.001690533085 0.002463056948 0.003326595812)
5(0.0003300661822 0.00100901881 0.001819653245 0.002645557192 0.003521951905)
5(0.0003610768839 0.001096776271 0.001992563596 0.002832833235 0.003728282035)
5(0.000384159171 0.001191807271 0.002130672774 0.003046966139 0.004029637659)
5(0.000419580085 0.001289181017 0.002272529603 0.003265189588 0.004199375396)
5(0.0004732278257 0.001415113037 0.002475147107 0.003482846258 0.004275827301)
5(0.0005327099834 0.001549552814 0.002669092998 0.003698768326 0.004262524679)
5(0.000646617148 0.001708989477 0.002918896369 0.003906486274 0.004252789335)
5(0.0008152139254 0.001923209162 0.003239959593 0.004052149509 0.004450624186)
5(0.001056746984 0.002199218504 0.003608033711 0.004142862664 0.004779306242)
5(0.001413103139 0.002555934284 0.003966852275 0.004300360692 0.00517630341)
5(0.001907655659 0.003037744143 0.004308805812 0.004613980373 0.005574371417)
5(0.002582010547 0.003658398093 0.00456807193 0.005061186973 0.005967402397)
5(0.003381557993 0.004310613388 0.004876528548 0.005572069083 0.006406524398)
5(0.004373482568 0.004921735704 0.005334883413 0.006119003999 0.006869341334)
5(0.005415049178 0.00548406094 0.005884374578 0.006668102257 0.007411275213)
5(0.006465583172 0.006070434998 0.00654997582 0.007251795026 0.008049322255)
5(0.007567738705 0.006785485892 0.007292748073 0.007891225116 0.008724054685)
5(0.008466094611 0.007611004034 0.008094563313 0.008629421678 0.009520520262)
5(0.009268538993 0.008587770248 0.009003812005 0.009536556792 0.01048146031)
5(0.01020911193 0.00978716532 0.01015353073 0.01065140077 0.01163147456)
5(0.01146408821 0.01121622589 0.01158440591 0.01205288605 0.01310407776)
5(0.01326345142 0.01313809615 0.0134361347 0.01382989637 0.01500828012)
5(0.01628574419 0.0160668442 0.01624896199 0.01649306343 0.01770613088)
5(0.0225232525 0.02156912504 0.02163025779 0.02123277154 0.02239426384)
5(0.05724032262 0.06639887802 0.07140227447 0.05951265244 0.058585913)
5(0.08768124814 0.1075066804 0.1175338131 0.09472180913 0.0917210792)
)


60
(
5(0.0007778660897 0.002185205051 -0.001081421535 -0.0002276051302 -0.002554564936)
5(0.0007360199999 0.001920288977 -0.0005244582476 4.515763933e-05 -0.001561958635)
5(0.0007538852697 0.001411047838 0.0004862349424 0.0005877740236 2.333413179e-05)
5(0.001000569 0.00110975775 0.001149369215 0.0009825775828 0.0009837752613)
5(0.001266836168 0.00105441505 0.001345950294 0.001116590368 0.001443989309)
5(0.001224973228 0.00100732003 0.001176194434 0.00105526189 0.001345767009)
5(0.0009674606289 0.0009184981038 0.0009056367442 0.0009030627289 0.0009962597914)
5(0.0007901003437 0.0008539881247 0.0007461265291 0.0008367513541 0.0008435019772)
5(0.0007751245322 0.0008589479877 0.0007537631335 0.0008728306133 0.0009286137393)
5(0.0008087018168 0.000858713312 0.0008495885169 0.0009579495049 0.001096643132)
5(0.0008417137444 0.0008665351545 0.000939490122 0.001029866128 0.001227159084)
5(0.0008506928323 0.0009036562234 0.0009769664654 0.001081543892 0.001303976652)
5(0.0008561282534 0.0008857215729 0.0009961682079 0.00112553355 0.001345660013)
5(0.0008238793803 0.000894896854 0.001009400866 0.001166461812 0.001403834411)
5(0.0007873771624 0.0009104689604 0.001053980004 0.001223898714 0.00149615513)
5(0.0008274084583 0.0009344397428 0.001085846489 0.001271428714 0.001573052476)
5(0.0008433016188 0.0009616841622 0.001089546001 0.001373230057 0.001655778383)
5(0.000837695355 0.0009560360186 0.001160625421 0.001400046635 0.001743956429)
5(0.0008418869904 0.0009861347525 0.00120316052 0.001435063131 0.001833822365)
5(0.0008418242761 0.001013260476 0.001214200212 0.001529401262 0.001911874862)
5(0.0008266752578 0.001006084462 0.001255404521 0.001566900746 0.002010128502)
5(0.0008259821047 0.001022967274 0.001307112448 0.00163080186 0.002096378214)
5(0.0008330630711 0.001046289099 0.001333956251 0.001699318718 0.002180131101)
5(0.0008159656926 0.001046163798 0.001363060263 0.001760103167 0.002281510333)
5(0.0007997255861 0.001102739404 0.001426242522 0.001844284875 0.002401247133)
5(0.0007882747126 0.001076487026 0.001490667999 0.001951113207 0.002527719782)
5(0.0007932942281 0.001065158727 0.001536723618 0.002051875497 0.00263810623)
5(0.0007974315223 0.001147939391 0.00158985774 0.002138762479 0.002792578033)
5(0.0007922483461 0.001170753137 0.001660464245 0.00223779443 0.002953332252)
5(0.000785625867 0.001196427987 0.001754382352 0.002361868379 0.003104262269)
5(0.0007719736215 0.001235944622 0.001848472179 0.002506545491 0.003297830457)
5(0.0007716343713 0.001276570834 0.001936250426 0.002645885198 0.003430523744)
5(0.0007739596391 0.001339800347 0.002028861235 0.002782001918 0.003566590202)
5(0.0007827717138 0.001398906557 0.002128828875 0.002923355019 0.003763982474)
5(0.000786561411 0.001430010133 0.002224863216 0.00306677189 0.003933233169)
5(0.0007694190387 0.001477969674 0.002342945824 0.003229207343 0.004141676879)
5(0.0007557784208 0.001519101747 0.002468717537 0.003388179405 0.004368515437)
5(0.0007421865824 0.001543999741 0.002567906576 0.003538028321 0.004508667927)
5(0.0007302894137 0.001589161667 0.002664895756 0.003685853984 0.004502167109)
5(0.0007410863949 0.001655832075 0.002771440507 0.003836491799 0.004409686307)
5(0.0007900260031 0.001741674635 0.002913752404 0.003957051381 0.00435138905)
5(0.0009116584524 0.001862597368 0.003135052803 0.003989256986 0.004417301104)
5(0.001132938587 0.002037203552 0.003405269108 0.003987232831 0.004658428526)
5(0.001476826305 0.002325303405 0.003688798537 0.004059264766 0.005013300169)
5(0.001935834665 0.002756547892 0.003921343985 0.004297298519 0.005375791842)
5(0.002585038217 0.003350187513 0.004125555371 0.004698009113 0.005726040982)
5(0.003417961779 0.004044200456 0.004446923252 0.005206373582 0.006093976328)
5(0.004424037415 0.004747339855 0.004929937469 0.005719868758 0.006528520981)
5(0.005599257565 0.005415883812 0.005538602545 0.006253677867 0.007037287057)
5(0.006806930575 0.006100653083 0.006260372332 0.006837627782 0.007613902298)
5(0.00797882539 0.006970427915 0.007075505958 0.007467937864 0.008278046528)
5(0.009067107025 0.007984196405 0.007931210095 0.008231155673 0.009063311711)
5(0.01009469444 0.009070690465 0.008869044927 0.009107509073 0.009986032574)
5(0.01118866198 0.01029676132 0.01004412718 0.01021762942 0.01118110072)
5(0.0125035738 0.01177070125 0.01152610931 0.01170956681 0.01275706245)
5(0.0143547648 0.01376560937 0.01353823704 0.01371345838 0.01483675401)
5(0.01738530425 0.01685421243 0.016844176 0.01672700767 0.01780809386)
5(0.02379181045 0.02314051481 0.02332784205 0.0223499898 0.02311398649)
5(0.06031383291 0.06670561644 0.07951386297 0.06784717323 0.07010139835)
5(0.0923387758 0.1058989466 0.1313179299 0.1095718896 0.1135532993)
)


60
(
5(0.002139586708 0.004154233066 -0.000550054339 0.0003123884294 -0.002542360845)
5(0.001860342417 0.00352938171 7.63836081e-05 0.0006238410087 -0.001414212048)
5(0.001541220988 0.002405802924 0.001192689595 0.001219927515 0.0004745572331)
5(0.001712931879 0.001795471286 0.001896153851 0.001629124991 0.001675430005)
5(0.001999496776 0.001691543187 0.002048515313 0.001751685682 0.002190298762)
5(0.001872624899 0.001604445509 0.001801176561 0.001628696279 0.002004445946)
5(0.001510366962 0.001439425497 0.001429573374 0.001413630663 0.001531721834)
5(0.001287600335 0.001360400042 0.001216421921 0.001312949636 0.001312690962)
5(0.001246810982 0.001325581037 0.001209622274 0.001344223062 0.001394001427)
5(0.001285642 0.001334019792 0.00131783294 0.001430426117 0.001589753794)
5(0.001304542036 0.001346681455 0.001416479805 0.001509138106 0.001734904437)
5(0.001308621824 0.00134218008 0.001454279033 0.001561422415 0.001806047329)
5(0.001281131344 0.001351098616 0.001464017951 0.001594081319 0.001843315706)
5(0.001264123117 0.001352049416 0.001467826477 0.001642072843 0.001899147731)
5(0.00126771501 0.001374826413 0.001509271651 0.001693758541 0.001978665486)
5(0.001266613827 0.001380166736 0.001546817519 0.001759711277 0.002072693735)
5(0.001286356198 0.001407834105 0.001600174014 0.001822306413 0.002168204383)
5(0.001283392621 0.001435058668 0.00163392958 0.001889410738 0.002250731886)
5(0.001288636752 0.001442780111 0.00166983322 0.001965679615 0.002341714374)
5(0.001300541511 0.001472553342 0.001719901478 0.002009800671 0.002413691398)
5(0.001281418132 0.001480796502 0.001733144238 0.002074172209 0.002507083632)
5(0.001290460885 0.001491481167 0.001784773898 0.002120542369 0.002598578963)
5(0.001298839932 0.001521593962 0.001840418901 0.002170294091 0.002685773554)
5(0.001274008049 0.001530645866 0.001857087914 0.002268362063 0.002796391331)
5(0.001270900647 0.001527849511 0.001917765083 0.002352224046 0.002899895056)
5(0.001281882329 0.001563265756 0.001984181066 0.00242805524 0.00301268781)
5(0.001270712043 0.001598538051 0.002020471836 0.002536062407 0.003147351406)
5(0.001244245612 0.001603878262 0.002065373242 0.002633364243 0.003279331539)
5(0.001242659737 0.001614255352 0.002144452547 0.002708263563 0.003412872581)
5(0.001250501504 0.001661070253 0.002229076559 0.00282329665 0.003575269663)
5(0.001235861406 0.001709828861 0.002284759233 0.00295665921 0.00373520548)
5(0.001215181788 0.001717090256 0.00235008561 0.003075926064 0.003871427311)
5(0.001188033072 0.001726921923 0.002440657709 0.003191071492 0.004011600808)
5(0.001168026487 0.001755154864 0.002528474341 0.003298925628 0.004159234669)
5(0.00114966338 0.001783406582 0.002589688939 0.00342784263 0.004314593251)
5(0.001121392694 0.001792814336 0.002636488024 0.003551098402 0.004485115736)
5(0.001074272215 0.001776627826 0.002696057333 0.003640511068 0.004659203752)
5(0.001025362314 0.001757246891 0.002752797092 0.00372434345 0.004759747041)
5(0.0009873710412 0.001752065704 0.002779700675 0.003833164493 0.004702822031)
5(0.000968080482 0.001747863921 0.002808634097 0.003914483651 0.004527477776)
5(0.001008108858 0.001757661013 0.002867321113 0.003918901729 0.004384116472)
5(0.001118150748 0.001815577187 0.002983171098 0.003874551223 0.004398420672)
5(0.00132342189 0.001942388705 0.003161362775 0.003788995304 0.004591769673)
5(0.001652262568 0.002186257397 0.003373794873 0.003769809618 0.00489395206)
5(0.002123215539 0.002599151649 0.003569803395 0.003962024425 0.005213229059)
5(0.002786006474 0.003207954646 0.003758902905 0.004341328774 0.005531631917)
5(0.003603380232 0.003962181343 0.00412587767 0.004843223613 0.005893582687)
5(0.004587352823 0.004750516165 0.004646020969 0.005417475626 0.006319966435)
5(0.005781892082 0.005529928206 0.005376964549 0.006009794586 0.006814561821)
5(0.007035277301 0.006373673005 0.006338108742 0.006657892658 0.007390465884)
5(0.008297743316 0.007403631942 0.007325599913 0.007364794993 0.008022823755)
5(0.00953341518 0.008650979966 0.008368587472 0.008166453268 0.008754306657)
5(0.01082592326 0.01005117856 0.009511661408 0.009116324849 0.009674955752)
5(0.0122096253 0.01151332293 0.01079344694 0.01026834567 0.01085871996)
5(0.01384966575 0.01319768295 0.01235907599 0.01181557533 0.01245750349)
5(0.01597384909 0.01539722353 0.01460262788 0.01403288551 0.01465244489)
5(0.01919433456 0.01860489719 0.01820818072 0.01750373756 0.01802837122)
5(0.02563615779 0.02497925393 0.0257678309 0.02444086572 0.02429794823)
5(0.06268777873 0.07041403863 0.07988032427 0.0728534373 0.07212006702)
5(0.09535518478 0.1114326349 0.1286765035 0.1164844765 0.1157800929)
)


60
(
5(0.00382475881 0.006288452255 0.0003597807887 0.001110235504 -0.00208756277)
5(0.003243174125 0.005257159078 0.0009681853423 0.001402860921 -0.0009110956428)
5(0.00246553414 0.003466652948 0.00204406701 0.001945532799 0.001071293087)
5(0.002457730423 0.002521447626 0.002683023382 0.002311816082 0.00237287064)
5(0.00271056286 0.002339090326 0.002741245142 0.002379693925 0.00292455986)
5(0.002524573715 0.002206635658 0.002410217902 0.002204113024 0.002637264401)