/*--------------------------------*- C++ -*----------------------------------*\
| =========                 |                                                 |
| \\      /  F ield         | OpenFOAM: The Open Source CFD Toolbox           |
|  \\    /   O peration     | Version:  2.3.1                                 |
|   \\  /    A nd           | Web:      www.OpenFOAM.org                      |
|    \\/     M anipulation  |                                                 |
\*---------------------------------------------------------------------------*/
FoamFile
{
    version     2.0;
    format      ascii;
    class       dictionary;
    location    "constant";
    object      GRPSI16;
}
// * * * * * * * * * * * * * * * * * * * * * * * * * * * * * * * * * * * * * //

GRPSI16_table
60
(

60
(
5(-5.358652881e-13 -4.138976606e-13 -7.706271041e-13 -4.026624373e-13 -8.093806519e-13)
5(1.414565331e-10 -1.519965445e-13 -5.501943794e-13 -3.093104649e-13 -5.746729511e-13)
5(4.207170144e-10 8.531189507e-14 -1.559308576e-13 -1.714575547e-13 -1.192950867e-13)
5(3.778342715e-10 3.337660061e-14 4.253762938e-14 1.074382211e-14 3.684724994e-14)
5(6.23969354e-12 8.019499212e-15 -5.230575017e-14 1.036940751e-13 -6.297941481e-15)
5(-5.195926126e-10 1.732957429e-14 -3.403262231e-14 9.957589363e-15 9.103778081e-14)
5(-4.2708466e-10 5.03573108e-14 1.661970492e-13 2.790442161e-14 -4.080162514e-15)
5(4.946379133e-10 1.088148373e-13 1.99950773e-13 8.934802516e-14 -3.581380609e-14)
5(8.579551748e-10 7.385354759e-13 2.861350134e-13 8.72997627e-14 9.794241158e-14)
5(4.532039569e-10 1.22191032e-12 2.89637584e-13 1.484179641e-13 9.535697655e-14)
5(-5.797902018e-10 -2.96876231e-13 8.479842649e-14 1.622412875e-13 1.16845498e-13)
5(-9.474106537e-10 -6.257959336e-13 1.099033819e-13 2.607128333e-13 1.632986302e-13)
5(-2.772565504e-10 5.41353361e-13 3.899762719e-13 2.891490284e-13 1.848783004e-13)
5(5.435740769e-13 6.237265069e-13 5.3792841e-13 4.201274568e-13 2.350309127e-13)
5(2.199373279e-11 3.158094552e-12 1.632801091e-12 1.053350647e-12 4.647710725e-13)
5(2.036327648e-11 3.321359944e-12 2.550336184e-12 1.122841058e-12 6.899006106e-13)
5(-1.231882043e-11 9.974406768e-13 8.614451641e-13 1.166095421e-12 9.545001217e-13)
5(-1.743430696e-11 1.137541892e-12 9.534757844e-13 1.894513216e-12 1.98791471e-12)
5(-4.723857023e-12 2.425140605e-12 3.559056468e-12 3.45997706e-12 2.547608208e-12)
5(4.058603837e-12 4.620718826e-12 4.786361586e-12 4.942236502e-12 2.351358419e-12)
5(5.626656749e-12 7.019667898e-12 8.038760083e-12 4.685596403e-12 2.955503488e-12)
5(9.190282025e-12 1.151184615e-11 1.190000477e-11 9.866263453e-12 7.212549874e-12)
5(1.310097111e-11 1.998155711e-11 1.666824423e-11 1.80030876e-11 1.234139691e-11)
5(2.192824715e-11 4.089276843e-11 2.897617216e-11 2.995167057e-11 2.070823818e-11)
5(3.441169923e-11 7.961975918e-11 5.398674199e-11 5.615353835e-11 3.562064166e-11)
5(5.128919592e-11 9.451882934e-11 8.190294071e-11 9.654689065e-11 6.105052573e-11)
5(8.301372405e-11 9.618689553e-11 1.409978102e-10 1.620512317e-10 1.051199725e-10)
5(1.526835116e-10 1.994519668e-10 2.366930028e-10 2.607805577e-10 1.844584221e-10)
5(2.595433365e-10 4.03147753e-10 3.873031116e-10 3.923123485e-10 2.921442264e-10)
5(4.438543643e-10 6.878302177e-10 6.997316202e-10 7.046478534e-10 4.790409422e-10)
5(7.420921963e-10 1.075825833e-09 1.065087432e-09 9.939683597e-10 5.220818719e-10)
5(1.184689035e-09 1.73479737e-09 1.693227734e-09 1.446972697e-09 1.062161165e-09)
5(1.937149666e-09 2.801957238e-09 2.830289299e-09 2.093595551e-09 1.060433721e-09)
5(3.079388549e-09 3.988624224e-09 3.876961897e-09 2.73230161e-09 8.315320379e-10)
5(4.579817281e-09 6.022707661e-09 6.148145939e-09 3.552690234e-09 1.369862819e-09)
5(6.514467593e-09 7.023437801e-09 5.412691779e-09 2.899179803e-09 1.456093163e-09)
5(8.736871655e-09 9.021566412e-09 4.810245585e-09 2.851372295e-09 -1.334040096e-09)
5(1.139396595e-08 1.082037315e-08 7.641955142e-09 1.928461774e-09 -1.181601139e-10)
5(1.499296313e-08 1.054254678e-08 8.448500121e-09 1.847693295e-10 -2.051702301e-09)
5(1.57234644e-08 7.159926664e-09 1.280424682e-09 -1.826192526e-09 -3.956626583e-09)
5(1.187423963e-08 2.258092346e-09 -5.73234633e-09 -5.021146791e-09 -1.922461113e-11)
5(7.702217248e-09 -4.174953584e-09 -8.149880426e-09 -8.291480492e-09 -3.308527789e-11)
5(2.995678124e-09 -7.656979019e-09 -2.391837092e-09 -5.294806013e-09 8.508401615e-11)
5(-4.192125077e-09 -1.051513524e-08 -4.193836912e-09 3.359202749e-26 5.911703899e-12)
5(-1.483519634e-08 -1.298264457e-08 -1.333904939e-08 1.221251942e-25 -8.508401615e-11)
5(-2.117780281e-08 -1.145435285e-08 -7.973185985e-09 1.927213832e-11 -5.911703899e-12)
5(-1.701930115e-08 -1.082467079e-08 -2.313786116e-09 1.246219573e-24 4.76862754e-24)
5(-1.503761465e-08 -5.246381299e-09 -6.423356981e-10 -1.927213832e-11 1.445156455e-23)
5(-1.215588732e-08 -8.646756016e-10 -1.392920744e-10 1.041361039e-23 4.071136695e-23)
5(-5.059641915e-09 -3.811063093e-10 -1.477296237e-11 2.91468433e-23 1.115473949e-22)
5(-2.092272527e-09 -7.439810873e-12 1.544186358e-23 7.83355768e-23 2.958268128e-22)
5(-8.166844173e-10 8.415282744e-24 4.126560981e-23 2.042249465e-22 7.618181259e-22)
5(-1.578469704e-10 2.19256464e-23 1.073586503e-22 5.124408974e-22 1.907608144e-21)
5(-1.462695975e-12 5.559117333e-23 2.701381039e-22 1.258895848e-21 4.608905738e-21)
5(1.176486733e-22 1.368995116e-22 6.617805969e-22 2.966603968e-21 1.076330498e-20)
5(4.72331211e-22 3.32585602e-22 1.585923646e-21 6.77964953e-21 2.372266641e-20)
5(7.275619096e-22 1.641787178e-21 3.764122525e-21 1.496248033e-20 5.006620268e-20)
5(7.019720733e-22 3.760964081e-21 1.264181087e-20 2.00949586e-20 1.005997043e-19)
5(7.407762697e-22 6.306281006e-21 3.317751478e-20 1.580580451e-19 4.322783465e-19)
5(8.098901815e-22 7.903220345e-21 4.636593053e-20 2.964374882e-19 7.310730467e-19)
)


60
(
5(-5.560370959e-13 5.826344955e-14 -1.078576709e-12 -4.858513299e-13 -1.422319008e-12)
5(-3.45020967e-13 1.243628008e-13 -6.691287586e-13 -2.666804395e-13 -8.91951322e-13)
5(1.227762989e-14 2.698686548e-13 -2.318114873e-14 1.193248718e-13 -1.014859066e-13)
5(3.202594104e-13 4.593289463e-13 4.224345258e-13 4.530132996e-13 3.863078013e-13)
5(6.131435816e-13 7.022425989e-13 8.010979952e-13 7.938928932e-13 8.384512386e-13)
5(8.559930921e-13 9.827588079e-13 1.087513835e-12 1.110803587e-12 1.183344784e-12)
5(1.090515208e-12 1.330083819e-12 1.355968635e-12 1.45591996e-12 1.434577956e-12)
5(1.412664661e-12 1.809924989e-12 1.750820203e-12 1.958611324e-12 1.818513707e-12)
5(1.889366133e-12 2.474084329e-12 2.407629748e-12 2.69788572e-12 2.571161512e-12)
5(2.690823068e-12 3.378480191e-12 3.418533083e-12 3.742595135e-12 3.625251111e-12)
5(3.715236944e-12 4.617222488e-12 4.786985385e-12 5.14451158e-12 4.929017987e-12)
5(5.004984131e-12 6.273467773e-12 6.542618185e-12 6.977833503e-12 6.724030476e-12)
5(6.835362466e-12 8.458305737e-12 8.813161047e-12 9.333165378e-12 8.906890457e-12)
5(9.224970685e-12 1.140244277e-11 1.18056802e-11 1.244704862e-11 1.169353427e-11)
5(1.230725546e-11 1.53004856e-11 1.581716144e-11 1.666004476e-11 1.570431637e-11)
5(1.686511188e-11 2.052194982e-11 2.129933715e-11 2.24488216e-11 2.138053707e-11)
5(2.29003086e-11 2.773394393e-11 2.886451174e-11 3.051284694e-11 2.894494346e-11)
5(3.072064552e-11 3.765256157e-11 3.934688311e-11 4.184566432e-11 3.97756259e-11)
5(4.161211851e-11 5.125112982e-11 5.389185692e-11 5.801459343e-11 5.548575956e-11)
5(5.689510043e-11 7.040353667e-11 7.475226599e-11 8.158291535e-11 7.951681058e-11)
5(7.842333758e-11 9.774755665e-11 1.053276972e-10 1.166396967e-10 1.151167088e-10)
5(1.075716675e-10 1.378743452e-10 1.507332279e-10 1.703496606e-10 1.702370396e-10)
5(1.491536098e-10 1.986106361e-10 2.211387537e-10 2.560122224e-10 2.594806361e-10)
5(2.150911477e-10 2.918781423e-10 3.320864465e-10 3.945329971e-10 4.071457886e-10)
5(3.126894319e-10 4.399769204e-10 5.11789786e-10 6.242402046e-10 6.562754193e-10)
5(4.654925338e-10 6.796998643e-10 8.105397209e-10 1.009119842e-09 1.072488431e-09)
5(7.132073124e-10 1.075056609e-09 1.308800224e-09 1.649748069e-09 1.752373119e-09)
5(1.121480842e-09 1.729675136e-09 2.139579332e-09 2.707391831e-09 2.885659292e-09)
5(1.783045112e-09 2.80089221e-09 3.506772737e-09 4.425460434e-09 4.727468338e-09)
5(2.883886536e-09 4.532645171e-09 5.717946635e-09 7.145048566e-09 7.554754241e-09)
5(4.667062499e-09 7.281459112e-09 9.162039201e-09 1.128186056e-08 1.177648647e-08)
5(7.452814002e-09 1.147357649e-08 1.437192246e-08 1.731262116e-08 1.786613498e-08)
5(1.173210831e-08 1.768074456e-08 2.193075394e-08 2.569632555e-08 2.578497459e-08)
5(1.812827754e-08 2.655100047e-08 3.238382243e-08 3.657070372e-08 3.555190044e-08)
5(2.726731058e-08 3.84401731e-08 4.589803563e-08 4.96403195e-08 4.648134857e-08)
5(3.971911916e-08 5.345047926e-08 6.202386787e-08 6.370333739e-08 5.695721814e-08)
5(5.547110074e-08 7.107511305e-08 7.93147971e-08 7.659901612e-08 6.464288024e-08)
5(7.403834162e-08 8.911005029e-08 9.476565186e-08 8.488893887e-08 6.494216864e-08)
5(9.367181929e-08 1.049197291e-07 1.041052734e-07 8.384880389e-08 5.266419738e-08)
5(1.108853617e-07 1.131482247e-07 1.016575019e-07 6.943181084e-08 2.620862071e-08)
5(1.201009157e-07 1.092105715e-07 8.434921105e-08 3.910829651e-08 -9.962764321e-09)
5(1.166032234e-07 8.795994691e-08 5.006019401e-08 -5.642638269e-09 -4.619325595e-08)
5(9.541583853e-08 4.59780742e-08 5.364825066e-10 -5.562324996e-08 -7.230022209e-08)
5(5.246153514e-08 -8.867528235e-09 -5.614034159e-08 -9.651883632e-08 -8.309694255e-08)
5(-7.581051957e-09 -6.762248202e-08 -1.077919983e-07 -1.157900456e-07 -7.800968186e-08)
5(-7.263564475e-08 -1.189486511e-07 -1.402952136e-07 -1.098081409e-07 -6.063269465e-08)
5(-1.290237662e-07 -1.492099249e-07 -1.431678153e-07 -8.601771607e-08 -3.883561277e-08)
5(-1.609862187e-07 -1.510353496e-07 -1.178677572e-07 -5.634475673e-08 -2.038371735e-08)
5(-1.617596058e-07 -1.267489128e-07 -7.896697308e-08 -3.064595177e-08 -8.79162267e-09)
5(-1.340813353e-07 -8.750712414e-08 -4.315259779e-08 -1.360608989e-08 -3.179708923e-09)
5(-9.109315963e-08 -4.830271793e-08 -1.917078497e-08 -4.88423797e-09 -1.006649778e-09)
5(-4.962333965e-08 -2.097046935e-08 -6.662061465e-09 -1.493799149e-09 -2.805082524e-10)
5(-2.054296229e-08 -7.076327019e-09 -1.88812073e-09 -3.931617892e-10 -7.038361128e-11)
5(-6.668971388e-09 -1.836851773e-09 -4.450354027e-10 -9.016093154e-11 -1.573740796e-11)
5(-1.435752361e-09 -3.458663348e-10 -8.104307357e-11 -1.76076436e-11 -3.13532276e-12)
5(-2.103953721e-10 -5.248679795e-11 -1.201337161e-11 -2.79477485e-12 -5.031424724e-13)
5(-1.815366173e-11 -4.835810985e-12 -1.357819121e-12 -3.261563449e-13 -6.461165722e-14)
5(-1.045166922e-12 -3.626180055e-13 -7.76560135e-14 -2.67284393e-14 -4.73983411e-15)
5(-2.97473927e-14 -1.109450001e-14 1.573003962e-11 -1.837981715e-15 -1.609137957e-16)
5(-2.53072778e-16 2.358382617e-15 3.145993418e-11 2.995373272e-15 -1.666901981e-18)
)


60
(
5(-4.588348062e-13 5.17962563e-13 -1.530416512e-12 -6.350501886e-13 -2.302625019e-12)
5(-1.927066619e-13 6.34098925e-13 -8.304764373e-13 -1.881674365e-13 -1.3461551e-12)
5(3.679073885e-13 9.302999281e-13 3.819905274e-13 6.697758241e-13 2.422561503e-13)
5(1.007843903e-12 1.41053999e-12 1.413908563e-12 1.557660499e-12 1.457082697e-12)
5(1.759763522e-12 2.118818395e-12 2.454734638e-12 2.565505439e-12 2.737967142e-12)
5(2.536505971e-12 3.013513223e-12 3.430107646e-12 3.61272509e-12 3.886601404e-12)
5(3.354969132e-12 4.145268006e-12 4.441771879e-12 4.828717475e-12 4.903699232e-12)
5(4.407887478e-12 5.687147075e-12 5.86102022e-12 6.510264391e-12 6.378805664e-12)
5(6.086207065e-12 7.829156624e-12 8.071731894e-12 8.90405657e-12 8.550977973e-12)
5(8.591882225e-12 1.078509702e-11 1.12757393e-11 1.216684421e-11 1.16815423e-11)
5(1.204495328e-11 1.470870994e-11 1.551497265e-11 1.639315054e-11 1.581821379e-11)
5(1.626362074e-11 1.974246445e-11 2.088790604e-11 2.167236813e-11 2.070606282e-11)
5(2.174167154e-11 2.6343999e-11 2.766566172e-11 2.833420375e-11 2.653433635e-11)
5(2.943366883e-11 3.508181039e-11 3.64546729e-11 3.693756142e-11 3.443560947e-11)
5(4.014672245e-11 4.661865204e-11 4.803620843e-11 4.82639445e-11 4.492574358e-11)
5(5.287735049e-11 6.163176572e-11 6.323979076e-11 6.319996738e-11 5.87247508e-11)
5(6.935895905e-11 8.131899766e-11 8.318407269e-11 8.30962941e-11 7.801285829e-11)
5(9.272161404e-11 1.07096147e-10 1.096726451e-10 1.102766531e-10 1.04569157e-10)
5(1.229208333e-10 1.411359396e-10 1.453560407e-10 1.474611569e-10 1.40708351e-10)
5(1.634334899e-10 1.863516514e-10 1.937367106e-10 1.988499968e-10 1.913869418e-10)
5(2.154569388e-10 2.472330207e-10 2.600777329e-10 2.712238239e-10 2.695304775e-10)
5(2.828913561e-10 3.310393944e-10 3.519297571e-10 3.745779445e-10 3.798889943e-10)
5(3.787642666e-10 4.475381128e-10 4.836867799e-10 5.279485797e-10 5.435059161e-10)
5(5.094088556e-10 6.133215402e-10 6.793871318e-10 7.632783724e-10 8.04023865e-10)
5(6.870264891e-10 8.574400012e-10 9.776097881e-10 1.135601506e-09 1.222248395e-09)
5(9.476039999e-10 1.226486527e-09 1.44188491e-09 1.724130659e-09 1.899567834e-09)
5(1.344296221e-09 1.795650696e-09 2.173063435e-09 2.675957694e-09 2.986569775e-09)
5(1.925407536e-09 2.697156406e-09 3.357536772e-09 4.221479275e-09 4.780627724e-09)
5(2.850939709e-09 4.131550622e-09 5.280920452e-09 6.712360683e-09 7.714607151e-09)
5(4.300598286e-09 6.411048521e-09 8.336189513e-09 1.064973437e-08 1.210867483e-08)
5(6.572280096e-09 1.000651016e-08 1.310940686e-08 1.669772639e-08 1.885885654e-08)
5(1.017026802e-08 1.551210399e-08 2.041216825e-08 2.569533244e-08 2.865121409e-08)
5(1.569084811e-08 2.373228546e-08 3.115034181e-08 3.836970755e-08 4.220530564e-08)
5(2.382422252e-08 3.559577918e-08 4.621152901e-08 5.547000369e-08 5.954419665e-08)
5(3.563257781e-08 5.196699783e-08 6.632554685e-08 7.727791797e-08 8.059973389e-08)
5(5.235727431e-08 7.332569526e-08 9.154953778e-08 1.027709516e-07 1.037051232e-07)
5(7.305554381e-08 9.954244468e-08 1.205183747e-07 1.2945592e-07 1.246400587e-07)
5(9.917891136e-08 1.291986176e-07 1.499259424e-07 1.527314173e-07 1.374083247e-07)
5(1.287074136e-07 1.582633791e-07 1.746804699e-07 1.658298309e-07 1.343864751e-07)
5(1.566716855e-07 1.810246609e-07 1.87391981e-07 1.607472919e-07 1.075185972e-07)
5(1.798506213e-07 1.903984826e-07 1.788216105e-07 1.300237919e-07 5.686410136e-08)
5(1.882453351e-07 1.770072087e-07 1.423420442e-07 7.003251967e-08 -9.305810174e-09)
5(1.729887167e-07 1.344182715e-07 7.662344204e-08 -1.360198213e-08 -7.941765005e-08)
5(1.30051645e-07 6.216036943e-08 -1.421982105e-08 -1.033833213e-07 -1.378165963e-07)
5(5.787051487e-08 -3.129546652e-08 -1.150838484e-07 -1.768881908e-07 -1.716639121e-07)
5(-3.717054746e-08 -1.285071626e-07 -2.031172826e-07 -2.166401711e-07 -1.730313106e-07)
5(-1.356124957e-07 -2.107106558e-07 -2.534230453e-07 -2.148594113e-07 -1.456585205e-07)
5(-2.146793485e-07 -2.570388278e-07 -2.526885237e-07 -1.776988116e-07 -1.030851424e-07)
5(-2.567887322e-07 -2.546869959e-07 -2.081053243e-07 -1.245441822e-07 -6.069041954e-08)
5(-2.506760223e-07 -2.100533452e-07 -1.420745466e-07 -7.300743571e-08 -2.97481542e-08)
5(-2.037537236e-07 -1.430732529e-07 -8.033915891e-08 -3.49141698e-08 -1.198489951e-08)
5(-1.362399681e-07 -7.84818165e-08 -3.664082015e-08 -1.378820115e-08 -3.963210606e-09)
5(-7.183268798e-08 -3.371046456e-08 -1.306142327e-08 -4.298493214e-09 -1.143970781e-09)
5(-2.852907416e-08 -1.102306896e-08 -3.597480793e-09 -1.085331437e-09 -2.755823564e-10)
5(-7.968086726e-09 -2.611047293e-09 -7.180438887e-10 -2.10138328e-10 -5.507781592e-11)
5(-1.532684934e-09 -4.297808712e-10 -1.090361696e-10 -3.423077209e-11 -9.560913908e-12)
5(-1.686639555e-10 -4.688770643e-11 -1.102856575e-11 -4.14455941e-12 -1.15691699e-12)
5(-1.072943722e-11 -1.905889326e-11 -7.577700375e-13 -1.084664909e-11 -8.654225743e-14)
5(-2.054118246e-13 1.995743561e-14 3.461118542e-11 4.904331703e-14 -3.58552024e-15)
5(-2.525792379e-15 3.316195913e-11 6.925504206e-11 2.111934151e-11 -3.668332751e-17)
)


60
(
5(-2.932260508e-14 1.53251829e-12 -1.842440598e-12 -6.1522923e-13 -3.28463249e-12)
5(3.379562444e-13 1.741348572e-12 -7.012533253e-13 2.422133257e-13 -1.660195352e-12)
5(1.180945787e-12 2.307931222e-12 1.453383762e-12 1.977486837e-12 1.186670922e-12)
5(2.391789338e-12 3.340504718e-12 3.586007209e-12 3.928685236e-12 3.767743006e-12)
5(4.036154948e-12 4.978420583e-12 5.900244468e-12 6.257800428e-12 6.705967565e-12)
5(5.820198974e-12 7.108472325e-12 8.288484622e-12 8.887650235e-12 9.502970392e-12)
5(7.763590502e-12 9.850555591e-12 1.097526644e-11 1.198186949e-11 1.207547648e-11)
5(1.046967919e-11 1.358291241e-11 1.460528986e-11 1.605940381e-11 1.563181977e-11)
5(1.463158865e-11 1.870991052e-11 1.996104821e-11 2.170226814e-11 2.087454671e-11)
5(2.044947856e-11 2.560089185e-11 2.746981192e-11 2.924217766e-11 2.805420228e-11)
5(2.822467289e-11 3.463179665e-11 3.731537452e-11 3.875812781e-11 3.677759831e-11)
5(3.853157084e-11 4.631347554e-11 4.972764017e-11 5.040987348e-11 4.723543808e-11)
5(5.120787019e-11 6.134791219e-11 6.495773737e-11 6.482213713e-11 6.038050304e-11)
5(6.79980321e-11 8.063708655e-11 8.41143191e-11 8.31435039e-11 7.596710754e-11)
5(9.066501032e-11 1.051258797e-10 1.088126401e-10 1.068010054e-10 9.700366544e-11)
5(1.207345591e-10 1.370285235e-10 1.411011374e-10 1.375838085e-10 1.2572182e-10)
5(1.569808841e-10 1.787196564e-10 1.833470925e-10 1.782999905e-10 1.633816841e-10)
5(2.070954288e-10 2.315150758e-10 2.374082366e-10 2.324853204e-10 2.161027687e-10)
5(2.676364007e-10 2.99767306e-10 3.080432103e-10 3.036929058e-10 2.853626781e-10)
5(3.455565488e-10 3.897088406e-10 4.006912301e-10 3.978335954e-10 3.786954854e-10)
5(4.62277626e-10 5.045097019e-10 5.225762219e-10 5.257677132e-10 5.194506225e-10)
5(6.011063753e-10 6.550309353e-10 6.881040246e-10 7.000117275e-10 7.012600447e-10)
5(7.485416461e-10 8.572799096e-10 9.134483176e-10 9.425396253e-10 9.606523555e-10)
5(9.759624849e-10 1.127450703e-09 1.217256099e-09 1.292863943e-09 1.343283415e-09)
5(1.289328062e-09 1.491468551e-09 1.646959065e-09 1.808362769e-09 1.926977796e-09)
5(1.684453403e-09 1.998930242e-09 2.281581209e-09 2.58733101e-09 2.851590417e-09)
5(2.228281715e-09 2.738205242e-09 3.22860845e-09 3.78914834e-09 4.272031201e-09)
5(3.009334489e-09 3.843636929e-09 4.680523041e-09 5.675002573e-09 6.521362729e-09)
5(4.145186771e-09 5.519142676e-09 6.953985076e-09 8.647671762e-09 1.009625095e-08)
5(5.819399429e-09 8.089466392e-09 1.05157094e-08 1.330934893e-08 1.573652289e-08)
5(8.396429188e-09 1.206321992e-08 1.602500713e-08 2.04852747e-08 2.428572421e-08)
5(1.231933904e-08 1.811070864e-08 2.440950754e-08 3.12416585e-08 3.683078116e-08)
5(1.819614853e-08 2.718325143e-08 3.681957229e-08 4.668261378e-08 5.427414494e-08)
5(2.699977792e-08 4.041432558e-08 5.453936816e-08 6.806608702e-08 7.81767359e-08)
5(3.962067533e-08 5.891751217e-08 7.868097763e-08 9.625002686e-08 1.074150375e-07)
5(5.726018195e-08 8.35729787e-08 1.099632141e-07 1.307392476e-07 1.416766976e-07)
5(8.140185513e-08 1.150145537e-07 1.477403271e-07 1.696292995e-07 1.782751919e-07)
5(1.11476519e-07 1.522282946e-07 1.894087275e-07 2.084411311e-07 2.077923937e-07)
5(1.461035662e-07 1.920572971e-07 2.296561555e-07 2.393572527e-07 2.208577069e-07)
5(1.837408516e-07 2.294248092e-07 2.593860789e-07 2.521279993e-07 2.061585996e-07)
5(2.178363045e-07 2.552213967e-07 2.677626219e-07 2.345280861e-07 1.587719944e-07)
5(2.407903278e-07 2.582996587e-07 2.439216834e-07 1.769606239e-07 7.806415828e-08)
5(2.424408177e-07 2.285520678e-07 1.798772732e-07 7.870768706e-08 -2.534049703e-08)
5(2.134669107e-07 1.597000868e-07 7.44638147e-08 -4.675895965e-08 -1.324412329e-07)
5(1.477011071e-07 5.370162673e-08 -6.202977914e-08 -1.743521289e-07 -2.25865952e-07)
5(4.565260282e-08 -7.56123171e-08 -2.03832808e-07 -2.751975022e-07 -2.796277515e-07)
5(-7.624594217e-08 -2.063240785e-07 -3.145025274e-07 -3.283227075e-07 -2.82010572e-07)
5(-1.975135964e-07 -3.107583277e-07 -3.678270634e-07 -3.239065243e-07 -2.388580696e-07)
5(-2.933057216e-07 -3.609509872e-07 -3.559980788e-07 -2.693964566e-07 -1.704221446e-07)
5(-3.386360879e-07 -3.460897006e-07 -2.850915988e-07 -1.87657695e-07 -1.029192634e-07)
5(-3.260307017e-07 -2.78622862e-07 -1.885116845e-07 -1.088659272e-07 -5.148257557e-08)
5(-2.658900463e-07 -1.837511401e-07 -1.03654216e-07 -5.243282084e-08 -2.100173205e-08)
5(-1.77866575e-07 -9.631020525e-08 -4.57426209e-08 -1.977969832e-08 -6.818696646e-09)
5(-9.220543913e-08 -3.969590632e-08 -1.542849238e-08 -5.930232677e-09 -1.84412381e-09)
5(-3.609244986e-08 -1.202483232e-08 -3.719801181e-09 -1.350565987e-09 -3.94440165e-10)
5(-1.026410958e-08 -2.471855973e-09 -6.092162766e-10 -2.205091776e-10 -6.601792293e-11)
5(-1.647702588e-09 -3.063074955e-10 -6.825186954e-11 -2.469530261e-11 -8.776718981e-12)
5(-1.102542271e-10 8.150392159e-11 -5.048314975e-12 9.946499328e-11 -6.228154296e-13)
5(-7.200127908e-12 -1.350393639e-12 -1.306471619e-13 -5.433279128e-13 -2.372574646e-14)
5(-1.595457264e-13 -2.141929089e-10 2.133061017e-12 -2.026983454e-10 -4.371921685e-16)
)


60
(
5(9.534610753e-13 3.367044235e-12 -1.756123819e-12 -1.906330921e-13 -4.068222569e-12)
5(1.449912404e-12 3.724521623e-12 1.256684682e-14 1.315060398e-12 -1.533225955e-12)
5(2.697886555e-12 4.721086606e-12 3.578939934e-12 4.480412888e-12 3.166313375e-12)
5(4.739027037e-12 6.654654751e-12 7.499344565e-12 8.214649689e-12 7.996602907e-12)
5(7.754932055e-12 9.884953166e-12 1.195794783e-11 1.279900739e-11 1.369058743e-11)
5(1.126319862e-11 1.414075761e-11 1.681564815e-11 1.811050192e-11 1.937666337e-11)
5(1.527000528e-11 1.963400722e-11 2.248367388e-11 2.448293909e-11 2.476469424e-11)
5(2.072476305e-11 2.701047431e-11 2.992215903e-11 3.276006313e-11 3.191782907e-11)
5(2.874085377e-11 3.694410893e-11 4.053210353e-11 4.37873767e-11 4.196005479e-11)
5(3.997573069e-11 5.031765663e-11 5.519878467e-11 5.813576749e-11 5.566215073e-11)
5(5.51988112e-11 6.762497154e-11 7.403044796e-11 7.596754058e-11 7.198305465e-11)
5(7.419358547e-11 8.966336535e-11 9.714702547e-11 9.767959228e-11 9.111858787e-11)
5(9.953110459e-11 1.174907746e-10 1.255004805e-10 1.242007691e-10 1.13656306e-10)
5(1.304230432e-10 1.526347204e-10 1.608525796e-10 1.573618257e-10 1.428107974e-10)
5(1.691843948e-10 1.970451476e-10 2.058026288e-10 1.998963481e-10 1.816381079e-10)
5(2.241984614e-10 2.538258319e-10 2.631888395e-10 2.547182934e-10 2.318206553e-10)
5(2.912959804e-10 3.267326663e-10 3.364141998e-10 3.25585307e-10 2.968758924e-10)
5(3.749998944e-10 4.189612456e-10 4.309117707e-10 4.176130012e-10 3.852068442e-10)
5(4.849605848e-10 5.37171536e-10 5.533364818e-10 5.385792697e-10 5.059701514e-10)
5(6.239596208e-10 6.879228286e-10 7.115573388e-10 6.983591371e-10 6.650486495e-10)
5(7.987166597e-10 8.799875487e-10 9.168074875e-10 9.068589011e-10 8.853092991e-10)
5(1.019258565e-09 1.127676875e-09 1.182165702e-09 1.18197879e-09 1.165760526e-09)
5(1.308647489e-09 1.448129006e-09 1.527526981e-09 1.549271503e-09 1.570520751e-09)
5(1.679366988e-09 1.861185213e-09 1.985089297e-09 2.047919438e-09 2.107549538e-09)
5(2.117690594e-09 2.393142458e-09 2.601753754e-09 2.740343957e-09 2.879811105e-09)
5(2.692619865e-09 3.075833288e-09 3.440223206e-09 3.724941347e-09 4.045146528e-09)
5(3.478682227e-09 4.010836477e-09 4.603946552e-09 5.157878822e-09 5.730309785e-09)
5(4.511752252e-09 5.330468459e-09 6.29110326e-09 7.308141541e-09 8.365429006e-09)
5(5.831053317e-09 7.206497e-09 8.817761409e-09 1.058431535e-08 1.244408855e-08)
5(7.719482513e-09 9.957132949e-09 1.264424091e-08 1.560249342e-08 1.870583944e-08)
5(1.049036904e-08 1.402891754e-08 1.841524752e-08 2.330705306e-08 2.844768121e-08)
5(1.442326329e-08 2.014781182e-08 2.714994822e-08 3.484303073e-08 4.235981715e-08)
5(2.024185059e-08 2.929380743e-08 4.016476742e-08 5.159017351e-08 6.231616794e-08)
5(2.890973893e-08 4.254751431e-08 5.876638068e-08 7.512336919e-08 8.998780661e-08)
5(4.159059519e-08 6.131573032e-08 8.46171181e-08 1.06783655e-07 1.255425358e-07)
5(5.925914235e-08 8.693543179e-08 1.191402673e-07 1.471134798e-07 1.69470865e-07)
5(8.268961272e-08 1.203671103e-07 1.623108665e-07 1.953267057e-07 2.194918493e-07)
5(1.136063519e-07 1.618037852e-07 2.125318918e-07 2.476034404e-07 2.666465636e-07)
5(1.516171568e-07 2.089911966e-07 2.651468595e-07 2.965064582e-07 3.00310313e-07)
5(1.944350557e-07 2.573576205e-07 3.123977077e-07 3.311402513e-07 3.084464478e-07)
5(2.375422982e-07 2.989906103e-07 3.426679065e-07 3.362830115e-07 2.777309506e-07)
5(2.740617146e-07 3.228900601e-07 3.411705421e-07 2.969847511e-07 2.012331482e-07)
5(2.940279021e-07 3.16247755e-07 2.954427233e-07 2.051332836e-07 8.40909979e-08)
5(2.86507605e-07 2.673823576e-07 1.956251917e-07 6.521676801e-08 -6.171125739e-08)
5(2.423612824e-07 1.720146566e-07 4.695261064e-08 -1.021326559e-07 -2.122530773e-07)
5(1.579144403e-07 3.493224675e-08 -1.317995052e-07 -2.639266804e-07 -3.348765603e-07)
5(3.864332612e-08 -1.260529195e-07 -3.073232344e-07 -3.893477101e-07 -4.02425838e-07)
5(-1.04472984e-07 -2.835266372e-07 -4.336660948e-07 -4.504626659e-07 -4.000102486e-07)
5(-2.45746366e-07 -4.034565102e-07 -4.81272996e-07 -4.320754914e-07 -3.366286014e-07)
5(-3.543785767e-07 -4.565909405e-07 -4.466876283e-07 -3.520171996e-07 -2.387662541e-07)
5(-4.088058089e-07 -4.345791599e-07 -3.50169454e-07 -2.426656864e-07 -1.409927255e-07)
5(-3.995232403e-07 -3.425829173e-07 -2.282124659e-07 -1.389235569e-07 -6.986837697e-08)
5(-3.334522158e-07 -2.216341348e-07 -1.208324478e-07 -6.461780268e-08 -2.816160592e-08)
5(-2.336258387e-07 -1.195080883e-07 -5.033997156e-08 -2.3141798e-08 -8.548481506e-09)
5(-1.279795164e-07 -4.991418389e-08 -1.551450047e-08 -6.240384137e-09 -2.199299748e-09)
5(-5.290663863e-08 -1.453213507e-08 -3.371013652e-09 -1.160099605e-09 -3.900294997e-10)
5(-1.760950036e-08 -2.854702375e-09 -4.541176041e-10 -1.473829292e-10 -4.211852741e-11)
5(-3.324337654e-09 -2.389029834e-10 -3.062402696e-11 3.752810559e-11 -3.789517439e-12)
5(-2.840689516e-10 -2.058058073e-11 1.638166896e-10 -7.469571131e-13 -1.398608746e-13)
5(5.429664147e-12 -1.584832869e-10 3.303326727e-10 -9.905679979e-11 -2.340862722e-15)
)


60
(
5(2.739086518e-12 6.302497735e-12 -9.649835633e-13 8.500987147e-13 -4.372065639e-12)
5(3.301195801e-12 6.870708948e-12 1.670750413e-12 3.29193636e-12 -6.847660766e-13)
5(5.089088718e-12 8.517727403e-12 7.245235065e-12 8.585914796e-12 6.893806943e-12)
5(8.483614417e-12 1.180788769e-11 1.371906974e-11 1.506995527e-11 1.520490179e-11)
5(1.349863615e-11 1.736848301e-11 2.136987705e-11 2.317468075e-11 2.471806678e-11)
5(1.955405664e-11 2.483465105e-11 3.00478061e-11 3.26471409e-11 3.498468114e-11)
5(2.662568749e-11 3.452541627e-11 4.028530533e-11 4.396927703e-11 4.469880603e-11)
5(3.6329301e-11 4.749864371e-11 5.363931401e-11 5.857060352e-11 5.706396534e-11)
5(5.014975193e-11 6.47120288e-11 7.226179128e-11 7.766615441e-11 7.480720517e-11)
5(6.966230757e-11 8.731263388e-11 9.731324978e-11 1.020622076e-10 9.78206566e-11)
5(9.420513102e-11 1.162720825e-10 1.288633534e-10 1.31934191e-10 1.248226794e-10)
5(1.264906348e-10 1.527543772e-10 1.673409856e-10 1.678501594e-10 1.563765193e-10)
5(1.672616471e-10 1.982088646e-10 2.138875478e-10 2.11399195e-10 1.934742079e-10)
5(2.196403978e-10 2.553862616e-10 2.715154994e-10 2.65286404e-10 2.415593067e-10)
5(2.857389838e-10 3.272189028e-10 3.439815494e-10 3.330213937e-10 3.027112559e-10)
5(3.675629921e-10 4.173492464e-10 4.355569253e-10 4.198025244e-10 3.845579651e-10)
5(4.755863996e-10 5.316856874e-10 5.521142053e-10 5.324472702e-10 4.896836684e-10)
5(6.076001368e-10 6.758107942e-10 7.011323647e-10 6.791617135e-10 6.331257927e-10)
5(7.787101263e-10 8.580584655e-10 8.923045314e-10 8.68990727e-10 8.200542556e-10)
5(1.000179152e-09 1.090668682e-09 1.136761809e-09 1.114150582e-09 1.061720192e-09)
5(1.254789233e-09 1.384137798e-09 1.448657194e-09 1.431781466e-09 1.398068387e-09)
5(1.598507825e-09 1.755751995e-09 1.851474483e-09 1.841939343e-09 1.825678208e-09)
5(2.043482955e-09 2.226736875e-09 2.366311882e-09 2.376633258e-09 2.389551696e-09)
5(2.560041308e-09 2.815191063e-09 3.020501281e-09 3.078028153e-09 3.174535795e-09)
5(3.213462938e-09 3.555264658e-09 3.866987383e-09 3.999414767e-09 4.17761223e-09)
5(4.060744368e-09 4.500232086e-09 4.964056036e-09 5.237932969e-09 5.572377898e-09)
5(5.092211981e-09 5.712899762e-09 6.411632655e-09 6.944559685e-09 7.624589951e-09)
5(6.355212835e-09 7.281936053e-09 8.383709437e-09 9.359679657e-09 1.059128508e-08)
5(7.995552452e-09 9.387688843e-09 1.116747524e-08 1.288130815e-08 1.495657539e-08)
5(1.023089892e-08 1.232528163e-08 1.518741134e-08 1.812247026e-08 2.171699456e-08)
5(1.316329264e-08 1.650052588e-08 2.108451917e-08 2.592661283e-08 3.180454065e-08)
5(1.712677451e-08 2.252573992e-08 2.980932703e-08 3.754707327e-08 4.649064489e-08)
5(2.274208917e-08 3.124975879e-08 4.257114079e-08 5.455821571e-08 6.845174492e-08)
5(3.101263456e-08 4.38681344e-08 6.097555494e-08 7.869972523e-08 9.806752563e-08)
5(4.291275647e-08 6.189828538e-08 8.689176426e-08 1.118293356e-07 1.370507577e-07)
5(5.910255366e-08 8.687034504e-08 1.220974028e-07 1.554076452e-07 1.874560798e-07)
5(8.167104407e-08 1.201597161e-07 1.674744831e-07 2.091971324e-07 2.470449179e-07)
5(1.115075546e-07 1.622199941e-07 2.222877854e-07 2.709716926e-07 3.102769775e-07)
5(1.491142917e-07 2.122722184e-07 2.838253625e-07 3.348710017e-07 3.65949757e-07)
5(1.934072549e-07 2.67810714e-07 3.452520431e-07 3.903351e-07 3.955898315e-07)
5(2.41142715e-07 3.220762434e-07 3.9594624e-07 4.216581168e-07 3.925770096e-07)
5(2.878751561e-07 3.647010536e-07 4.211525745e-07 4.107740522e-07 3.390550475e-07)
5(3.237083623e-07 3.833088639e-07 4.041525775e-07 3.429119748e-07 2.275379652e-07)
5(3.394413415e-07 3.647520128e-07 3.295841987e-07 2.126982753e-07 6.696641363e-08)
5(3.243148511e-07 2.984645918e-07 1.926238338e-07 3.010981562e-08 -1.267513137e-07)
5(2.630123044e-07 1.802497717e-07 2.636647707e-09 -1.779920172e-07 -3.177846404e-07)
5(1.693828517e-07 1.652920305e-08 -2.139125438e-07 -3.724766641e-07 -4.678516836e-07)
5(4.122167504e-08 -1.710555559e-07 -4.09317659e-07 -5.154008187e-07 -5.396775348e-07)