/*--------------------------------*- C++ -*----------------------------------*\
| =========                 |                                                 |
| \\      /  F ield         | OpenFOAM: The Open Source CFD Toolbox           |
|  \\    /   O peration     | Version:  2.3.1                                 |
|   \\  /    A nd           | Web:      www.OpenFOAM.org                      |
|    \\/     M anipulation  |                                                 |
\*---------------------------------------------------------------------------*/
FoamFile
{
    version     2.0;
    format      ascii;
    class       dictionary;
    location    "constant";
    object      GRPSI8;
}
// * * * * * * * * * * * * * * * * * * * * * * * * * * * * * * * * * * * * * //

GRPSI8_table
60
(

60
(
5(-0.06289444877 -0.1112860437 -0.08200652667 -0.0676540158 -0.09250510343)
5(-0.1147867592 -0.0310408296 -0.06454326066 -0.06090259115 -0.1526060031)
5(-0.1391698293 0.031843352 -0.01430447684 -0.05100100343 -0.001542220042)
5(-0.01642122882 0.001112022371 0.003964201884 -0.001017428174 0.07315036168)
5(0.09759314601 -0.01298339499 -0.04416613273 0.02054232874 -0.05498317995)
5(0.07257694644 -0.01110512407 -0.0343225308 -0.01615083022 0.0004570953334)
5(-0.00732682098 -0.004269319127 0.02065662053 -0.007320327208 -0.01347529265)
5(-0.008290554085 0.002267867523 0.01129633203 0.008987197263 -0.0208438664)
5(0.01069833699 0.004830596902 0.00418858941 -0.0002081113572 0.02008924029)
5(-0.0008039151239 0.002372732195 0.007933821672 -0.001978870219 0.003768072582)
5(0.001872819703 -0.0002174109583 -0.00715016145 0.0007202134912 -0.004537038378)
5(-0.003920637638 0.0006902223135 -0.00779600742 0.002941417433 -0.002384375869)
5(0.001626914415 0.001668510305 -0.0006499691687 -0.001215021237 -0.0002369950768)
5(0.001404449661 -0.0007420770121 -0.0008276870644 -0.001848799382 -0.00282920843)
5(-0.002265069387 -0.0007824323164 -0.0003539048757 0.002775633013 0.0001090318736)
5(0.002107859282 0.0006974137899 0.001610708971 0.0006308659317 0.002241293436)
5(0.0003592318832 -0.0001665151463 0.0002125908159 0.001621344509 0.002375662866)
5(-0.0002139284651 0.0004363109228 0.0002969653911 0.0009870426241 0.0005360285292)
5(0.001584811478 0.002682160687 0.001758537526 0.002253649425 -0.0006098134613)
5(0.001623673836 0.0009595830875 -2.389842885e-05 0.0018826388 -0.0009291944111)
5(0.0002521715654 -0.001328432855 -0.0007322361904 -0.006009466041 -0.00387192685)
5(0.002436795238 0.000948260302 0.0005768620175 -0.001974198907 -0.0007082740061)
5(0.00154254625 0.003013194886 4.797605175e-05 0.003142124888 0.001926708306)
5(0.000844547351 0.002511955872 0.001300519022 0.001341413573 -8.0334127e-06)
5(0.001839829463 0.0005177621184 0.003046141436 0.003306123334 0.0002033702231)
5(0.001624728743 -0.0003203348103 0.0004246915896 0.002412441497 -0.001022875855)
5(0.001086327562 7.089928605e-05 -0.000400101244 0.0005557573199 -0.001309972095)
5(0.002333207253 0.001650276595 0.0002717021391 -0.001273243053 -0.001512574725)
5(0.003221193904 0.002751443706 -0.001501796753 -0.003875503395 -0.002640124904)
5(0.002785316689 0.002784580496 0.0007361775912 -0.001729412994 -0.003012029096)
5(0.002775829557 0.001046021352 -0.0004929597072 -0.002907014297 -0.008321976444)
5(0.001483609558 0.0005651019115 -0.001427634502 -0.004911051455 -0.004055595923)
5(0.001796028805 0.001781668951 0.001255838151 -0.003435960925 -0.00509967337)
5(0.002451381594 0.0006614738321 -0.0006095286504 -0.004164801091 -0.01084154072)
5(0.001947254019 0.001313628326 0.001209088786 -0.003380930505 -0.005418990602)
5(0.001392682187 -0.001424127602 -0.0048400054 -0.006881226055 -0.005994662295)
5(0.000915433418 -0.002059754253 -0.009310968716 -0.006736901601 -0.02063193121)
5(0.0009990227497 -0.0003431195993 -0.002126021406 -0.006079792807 -0.008904649463)
5(0.002356761379 -0.002097457428 -5.079878755e-05 -0.006860071863 -0.04121598467)
5(0.0009503655059 -0.004181146882 -0.006291973402 -0.008252883181 -0.04995624342)
5(-0.002619371898 -0.005906607681 -0.01143458224 -0.02595108594 -0.00145765819)
5(-0.0034230025 -0.007269761025 -0.01147614584 -0.05882786211 -0.001411926563)
5(-0.002960152754 -0.0060835239 -0.0002897815434 -0.03993327554 0.001587177183)
5(-0.003559170624 -0.006160963531 -0.003106604394 -0.001299640013 -0.00098491057)
5(-0.006994267902 -0.008149131912 -0.02150089354 -0.0005277315756 -0.003964219212)
5(-0.009749611719 -0.01215069049 -0.05698002259 -0.0006353099006 -0.002601349286)
5(-0.01213929373 -0.02693987755 -0.06151169143 -0.00179653039 -0.002507333436)
5(-0.01166051074 -0.02075513642 -0.01917214969 -0.002785281628 -0.002962540942)
5(-0.01121632717 -0.05561672253 -0.003981353948 -0.00327843237 -0.003878163265)
5(-0.01851136876 -0.05518612493 -0.002857229352 -0.003557494202 -0.004868515364)
5(-0.05560521295 -0.003216964959 -0.003350311842 -0.003918190016 -0.00567725046)
5(-0.06137911181 -0.001952238583 -0.003922414013 -0.004681449489 -0.006635425793)
5(-0.02061547631 -0.002626606115 -0.004214978979 -0.005709174133 -0.007302627596)
5(-0.004234120473 -0.003423717329 -0.004541510312 -0.00638404466 -0.008300398404)
5(0.002958055583 -0.003563836763 -0.005079403125 -0.007745586717 -0.01014197483)
5(0.01393610126 -0.002958393285 -0.005451048704 -0.009589726678 -0.01320904811)
5(0.01842036873 0.002506678927 -0.004982924163 -0.01113622607 -0.01839148434)
5(0.01449051013 0.0115543322 0.002504814311 -0.04253748617 -0.02272855469)
5(0.01637163793 0.03341698248 0.033593375 0.04401097502 0.02293771646)
5(0.02074474875 0.05118708279 0.0578098862 0.1608700073 0.06983893942)
)


60
(
5(-0.0188618392 0.002439490134 -0.03087898995 -0.01862843733 -0.04082974223)
5(-0.01414047375 0.002481322819 -0.02281524293 -0.0132331944 -0.03127003033)
5(-0.005003079173 0.002626969055 -0.007369567107 -0.003716208341 -0.01204453955)
5(0.002213163496 0.00308684467 0.003691812296 0.002564888466 0.003265469211)
5(0.00610796894 0.003432522813 0.007379672079 0.004461681853 0.009128807066)
5(0.005737191674 0.003153713693 0.005176267104 0.003643870656 0.006625491762)
5(0.003008784458 0.00245405203 0.002136384273 0.00234993061 0.002160107156)
5(0.001431502143 0.001755562152 0.0008725517035 0.001177637774 6.106092385e-05)
5(0.001643288332 0.001728469627 0.0008656902362 0.00113529467 0.0001654338216)
5(0.001965837195 0.002049066584 0.001545646708 0.001622541332 0.001218977595)
5(0.002182202251 0.002012198696 0.002037481649 0.001668528586 0.00194473187)
5(0.002388505041 0.00191426727 0.002100558224 0.001519465073 0.001671124656)
5(0.002058967292 0.001844445537 0.001743373785 0.001508810255 0.001173619184)
5(0.001901683792 0.001676658446 0.001472718728 0.001369675464 0.0009718230487)
5(0.001954458499 0.001707829785 0.00148864458 0.00113052518 0.0007985889791)
5(0.001941832896 0.001782783984 0.001617882141 0.001164091805 0.0007003411797)
5(0.001898108047 0.00176760626 0.001568972736 0.00108093568 0.0005914338577)
5(0.001997123622 0.001677701927 0.001435827387 0.0009327100732 0.0004060215148)
5(0.002003143087 0.001606546996 0.001298624775 0.0008396475992 0.0002830196485)
5(0.001986874373 0.001611743608 0.001200997909 0.0005951585695 -2.97926778e-05)
5(0.001947942283 0.001560976828 0.001040741018 0.0004067078274 -0.0004258680454)
5(0.001886823986 0.001442826348 0.0008443162991 0.0001664648181 -0.0006314041179)
5(0.001963454158 0.001327497114 0.0007363176178 -0.0003101581385 -0.001023602897)
5(0.001908879523 0.001186653038 0.0004639959522 -0.0005784295357 -0.001465701983)
5(0.001813192537 0.001007526777 0.0003089643289 -0.0007279464852 -0.001857712658)
5(0.001767263071 0.000754971077 6.93185192e-05 -0.001072859515 -0.002348455957)
5(0.001564496973 0.0005638572687 -0.0004467240944 -0.001569057859 -0.002931691108)
5(0.001364000918 0.0004048147098 -0.000792102315 -0.002147550932 -0.00338211899)
5(0.001206144518 -1.389364487e-05 -0.00120803465 -0.002648567522 -0.003984140886)
5(0.0009522084344 -0.000471213066 -0.001735967373 -0.003183736291 -0.004649546795)
5(0.0005932832893 -0.0009029899361 -0.002350468806 -0.003805413482 -0.005253017408)
5(0.0002068954698 -0.001382585885 -0.002912346912 -0.004468882803 -0.006051922739)
5(-0.0002287586486 -0.001939194949 -0.003505368186 -0.005193142172 -0.006822284082)
5(-0.0007858770867 -0.002562604269 -0.004244182799 -0.005935702937 -0.007571622042)
5(-0.001343599366 -0.003256751816 -0.005002468601 -0.006685142776 -0.008361783368)
5(-0.002078235528 -0.004062443179 -0.005829810208 -0.007580856889 -0.009103953961)
5(-0.002876149409 -0.004872996664 -0.006697964627 -0.008445051527 -0.009762334765)
5(-0.003669651988 -0.005848874033 -0.007644263253 -0.009118821725 -0.01061184639)
5(-0.004751663398 -0.006818185694 -0.008638821206 -0.01001583063 -0.01173813525)
5(-0.005895164301 -0.007911370081 -0.009800492719 -0.01103397996 -0.01311037851)
5(-0.007151751827 -0.008916358875 -0.01074305368 -0.01205799936 -0.01437869486)
5(-0.008361950118 -0.009943556122 -0.01159377757 -0.01321293762 -0.01528577369)
5(-0.009632117104 -0.01144812747 -0.01264475214 -0.01435928727 -0.01580451869)
5(-0.01110094282 -0.01251605271 -0.01371914271 -0.01540807375 -0.01615557998)
5(-0.01257728328 -0.01341475044 -0.01479618834 -0.01622070673 -0.01661872305)
5(-0.01395448544 -0.0145464885 -0.01589384053 -0.01675144215 -0.01703108644)
5(-0.01519696119 -0.01566911895 -0.01699851628 -0.01717155371 -0.01736888756)
5(-0.01628505109 -0.01663524921 -0.01787364134 -0.01762317619 -0.01753211509)
5(-0.01744843085 -0.0174874956 -0.01857667031 -0.01804277075 -0.01757457455)
5(-0.01855449023 -0.01848516853 -0.01924199357 -0.01841916784 -0.01769657788)
5(-0.01955853398 -0.01943500493 -0.01998120815 -0.0187515842 -0.01772789054)
5(-0.02057305408 -0.02026791577 -0.02068583518 -0.01917627715 -0.01802483216)
5(-0.02167981764 -0.02136963952 -0.02152137441 -0.01989142979 -0.01838279214)
5(-0.02326972588 -0.02261858151 -0.02268967152 -0.02074415872 -0.0190361027)
5(-0.02521014854 -0.0242541447 -0.02427126308 -0.02206450062 -0.02050294326)
5(-0.02784550572 -0.02681112276 -0.02646596432 -0.02434835969 -0.02284489962)
5(-0.03183535234 -0.03039086702 -0.03002090528 -0.02804205147 -0.02686432673)
5(-0.03912126777 -0.03693342939 -0.03667715077 -0.03493236899 -0.03437340648)
5(-0.09023160487 -0.08087315034 -0.1116987832 -0.09257544038 -0.07264584606)
5(-0.1364492928 -0.120369404 -0.1823664539 -0.1456250532 -0.1059131967)
)


60
(
5(-0.006562348791 0.008691974535 -0.01722027461 -0.009109967657 -0.02529179333)
5(-0.004249627174 0.007022991028 -0.01159033995 -0.005767450957 -0.0181672202)
5(-4.841907795e-05 0.004615482821 -0.00183002364 -0.0001236135113 -0.005353313451)
5(0.003596321686 0.003869353275 0.004346733616 0.003308967499 0.003679549099)
5(0.005615013495 0.003790410441 0.006084881226 0.004268119404 0.006979921886)
5(0.004918787718 0.003275976688 0.004523258231 0.003465008519 0.005200380277)
5(0.003168677894 0.00264657318 0.002499975124 0.00229306816 0.00227680102)
5(0.002240759889 0.002353528033 0.001540260498 0.001622273747 0.0007877502671)
5(0.002154615008 0.002214140461 0.001469652416 0.001555513599 0.0009705669052)
5(0.002241907604 0.002171207632 0.001853746702 0.001701052032 0.001523411683)
5(0.002324254403 0.002087749872 0.002089489268 0.001708963141 0.001570089415)
5(0.002384184115 0.002038523987 0.001991855177 0.00156333924 0.001391708236)
5(0.002249961511 0.001988477102 0.001778111143 0.001392159632 0.001058337382)
5(0.002080441801 0.001852161895 0.001603904787 0.001178629609 0.0007643369186)
5(0.001963584554 0.001754279996 0.001470028426 0.001024785802 0.0005516451672)
5(0.001980568083 0.001653913558 0.001388508532 0.0009403789459 0.0004019175693)
5(0.002014718824 0.001584182046 0.001286156327 0.0008013908258 0.0001626519447)
5(0.001912993733 0.001534320001 0.00116300054 0.0005733078538 -9.71701866e-05)
5(0.001865679418 0.001420058307 0.0009995225475 0.0003533054076 -0.0003296606302)
5(0.001730626439 0.001316050159 0.0007645183405 9.830377009e-05 -0.0006243619561)
5(0.001710706305 0.001200685145 0.0005270906886 -0.0002660632497 -0.001047191597)
5(0.001656064239 0.001007518991 0.0003091706495 -0.0005578677157 -0.001488111142)
5(0.001476823671 0.0007831107161 8.443745488e-05 -0.000909987984 -0.001877414915)
5(0.0013186488 0.0005306698229 -0.0002618605601 -0.001357567378 -0.002360686907)
5(0.001167592912 0.0002505693141 -0.000655971314 -0.00174749934 -0.002925034212)
5(0.0009884234591 -0.0001044996056 -0.001124198278 -0.002233510532 -0.003449517424)
5(0.0006245815137 -0.0004103273052 -0.001524393922 -0.002730641032 -0.004023405666)
5(0.0003972419397 -0.0008068173535 -0.002013918898 -0.003349591877 -0.004665330421)
5(8.76747123e-05 -0.001339343935 -0.002594977954 -0.003988979125 -0.005359351448)
5(-0.0003572959572 -0.001761053289 -0.003156781639 -0.004618162604 -0.006037889384)
5(-0.0007840823005 -0.002342375019 -0.003873705441 -0.005389914463 -0.006743694632)
5(-0.001337517179 -0.003083041509 -0.004567812848 -0.006111629498 -0.007583352547)
5(-0.00193128486 -0.003674465167 -0.005282700052 -0.006860594441 -0.008397368279)
5(-0.002622311802 -0.004388703337 -0.006191821997 -0.007695209 -0.009207365755)
5(-0.003542766363 -0.005273068548 -0.00700981528 -0.00857821891 -0.009988777254)
5(-0.004370829065 -0.006167587464 -0.007862619695 -0.009474088252 -0.01080180947)
5(-0.005089038391 -0.007126505727 -0.008884443372 -0.01034572145 -0.01156940793)
5(-0.006139634056 -0.008127884679 -0.009904925477 -0.01122166359 -0.01240534967)
5(-0.007328057996 -0.009267563062 -0.01099061522 -0.01217156166 -0.01342733081)
5(-0.008576566591 -0.01038183441 -0.01200953222 -0.01314634306 -0.01439469809)
5(-0.009820082817 -0.01145784308 -0.01303260248 -0.01406292426 -0.01523734559)
5(-0.01110442239 -0.01266965831 -0.01412081825 -0.0149930779 -0.01590851319)
5(-0.01253540706 -0.01389864359 -0.0151653311 -0.01589429822 -0.01643647418)
5(-0.01395095235 -0.01513490552 -0.01621944266 -0.0165809264 -0.0168195334)
5(-0.01537648926 -0.01625925983 -0.01708557454 -0.01714594987 -0.0171725228)
5(-0.01678228087 -0.01721893447 -0.0178070591 -0.0176361292 -0.01754160015)
5(-0.01811153687 -0.01819660828 -0.01848000229 -0.01802144978 -0.01784270059)
5(-0.01934732307 -0.01908885224 -0.01902868147 -0.01843428586 -0.01817649444)
5(-0.02047514044 -0.01960858769 -0.0194656759 -0.01887103344 -0.01850952891)
5(-0.02145863441 -0.0199733006 -0.01989474863 -0.01928975757 -0.01885750196)
5(-0.02224256712 -0.02044666396 -0.02043372169 -0.01981491452 -0.01939606893)
5(-0.02280997274 -0.02101994135 -0.02114980192 -0.02055420496 -0.02014939058)
5(-0.02329597306 -0.02178390147 -0.02215128087 -0.02153431678 -0.0211427343)
5(-0.02404173445 -0.02302304003 -0.02352980276 -0.02283628604 -0.02238920942)
5(-0.02550987042 -0.02493469838 -0.02546722966 -0.02472856192 -0.02421223996)
5(-0.02824864753 -0.02770288764 -0.02835885832 -0.02745367794 -0.02705868296)
5(-0.03319406679 -0.03229248055 -0.03287007167 -0.03168369901 -0.03153757303)
5(-0.04460259986 -0.04206059678 -0.04171412823 -0.03976123847 -0.03978666552)
5(-0.1120144078 -0.1038891299 -0.1348003757 -0.1220014249 -0.09560622304)
5(-0.1712062017 -0.1588648706 -0.2217942178 -0.1988152762 -0.1459796887)
)


60
(
5(0.000167315876 0.01187251675 -0.009915224534 -0.004335807854 -0.01697292889)
5(0.0008002896794 0.009370313473 -0.005883387194 -0.002109531973 -0.01159110219)
5(0.002324863221 0.005679247026 0.0008354516933 0.001570955987 -0.002161055283)
5(0.004212872347 0.004282372742 0.004666792855 0.003687200889 0.003946667708)
5(0.00535766274 0.003945474796 0.005513663617 0.004189742436 0.005988897577)
5(0.004734478226 0.003480904502 0.004280003882 0.00339406092 0.004611807549)
5(0.00335289099 0.002900072172 0.002709066257 0.002345883994 0.002342039052)
5(0.002507376141 0.002504983232 0.001872766272 0.001813916171 0.0011636839)
5(0.00233098028 0.002359137034 0.00175140571 0.001712708815 0.001121826806)
5(0.002450402003 0.002276747603 0.00192551539 0.001695934957 0.001384461048)
5(0.002449977265 0.002162768692 0.001996153876 0.001585653811 0.001401825465)
5(0.002317136786 0.002042593271 0.001875438642 0.001442623309 0.00120229771)
5(0.002210665367 0.001889160077 0.001666737239 0.001268356491 0.0007885009825)
5(0.002124927485 0.001752465672 0.00148152046 0.001017581302 0.0005221820752)
5(0.002001007044 0.001647584236 0.001350559707 0.0007869153101 0.0003133717343)
5(0.001861485673 0.001557701986 0.001205072284 0.0006474965078 4.777877255e-05)
5(0.001837808155 0.001412953867 0.0009927133627 0.0004038958382 -0.000189650885)
5(0.001746778192 0.001291260988 0.0008128289669 0.0001574275975 -0.0005349105473)
5(0.001624022681 0.001140760827 0.0005826211181 -9.580944467e-05 -0.0008630644455)
5(0.001544087198 0.0009174293887 0.0003494766565 -0.000390286805 -0.00121446749)
5(0.001330893896 0.0007719970318 0.0001025665988 -0.0007554460711 -0.001694613634)
5(0.001160586625 0.0005506910034 -0.0002424566313 -0.00115907789 -0.002128540076)
5(0.001098238874 0.0002084742651 -0.0006415470107 -0.001538183442 -0.0025885707)
5(0.0008909644125 -0.0001151323018 -0.0009785887907 -0.002042751927 -0.003067834248)
5(0.0005620804479 -0.0003944621491 -0.00134150912 -0.002555352213 -0.003655095138)
5(0.0002791977349 -0.0007540123785 -0.001871159313 -0.003079396776 -0.004366721739)
5(-5.87580945e-05 -0.00122802116 -0.002415409267 -0.003669238638 -0.004954592945)
5(-0.0004399286895 -0.001710970392 -0.002996422667 -0.004356949876 -0.005683703754)
5(-0.0008690146544 -0.002257613417 -0.003623615065 -0.005023288879 -0.00639167547)
5(-0.001374996531 -0.002860908519 -0.004312816554 -0.005736078096 -0.007146758198)
5(-0.001939549896 -0.003519159942 -0.005127338594 -0.006552954927 -0.007978157891)
5(-0.002564939536 -0.004234822049 -0.005840659833 -0.007376456869 -0.008779753864)
5(-0.003269307916 -0.005005088538 -0.006611758562 -0.008212745079 -0.009642298945)
5(-0.004042969593 -0.005849431173 -0.00759368519 -0.009091175923 -0.01058192161)
5(-0.004885851729 -0.006751689677 -0.008537372957 -0.01002289784 -0.01143728895)
5(-0.005816468614 -0.007715227672 -0.00956262501 -0.01097404875 -0.01224040857)
5(-0.006830749678 -0.008744611443 -0.01055844581 -0.01196855656 -0.01322242987)
5(-0.007919644317 -0.009818306623 -0.01158617817 -0.01297768671 -0.01407893103)
5(-0.009080379637 -0.01095449687 -0.01273507809 -0.01397213029 -0.01502004668)
5(-0.01032149729 -0.01213903686 -0.01385536896 -0.01494918968 -0.01594169786)
5(-0.01164047074 -0.01335452253 -0.01499082084 -0.01594741032 -0.01666969431)
5(-0.01302211121 -0.01459230347 -0.01614706395 -0.01688953799 -0.01733646819)
5(-0.01445436482 -0.01583986486 -0.01724461074 -0.01769469151 -0.01786138797)
5(-0.01595111166 -0.01708610196 -0.01825181539 -0.01835666875 -0.01829645565)
5(-0.01748944916 -0.01832369712 -0.01920571581 -0.01890350295 -0.01866125848)
5(-0.01909391676 -0.01950934585 -0.01995239158 -0.01935565392 -0.01892945156)
5(-0.02063950811 -0.02059153523 -0.02049210689 -0.01971084621 -0.01920557254)
5(-0.02223806148 -0.02149443743 -0.02092313079 -0.02000256943 -0.01941259265)
5(-0.02367116267 -0.0221237386 -0.02124200493 -0.02025775278 -0.01966602238)
5(-0.02491561339 -0.02255682941 -0.02153929214 -0.02055948656 -0.02006495272)
5(-0.02611792307 -0.02295107558 -0.0218620457 -0.02091754699 -0.02052303951)
5(-0.02687428698 -0.02332665026 -0.02232623866 -0.02150722245 -0.02126229876)
5(-0.02730291571 -0.02389229432 -0.02310485258 -0.02245596443 -0.02237197657)
5(-0.02784026394 -0.02495289682 -0.02434381056 -0.0238006124 -0.02382581546)
5(-0.02897803205 -0.02663238493 -0.02625878335 -0.02580449265 -0.02584440899)
5(-0.0313638852 -0.02954866155 -0.02927989632 -0.02870605917 -0.02897514898)
5(-0.03658502499 -0.03500911656 -0.03456537905 -0.03363583594 -0.03395202545)
5(-0.04925650776 -0.04676529293 -0.0459480197 -0.04352181542 -0.04331325135)
5(-0.1198960345 -0.1392968013 -0.1498321307 -0.125609495 -0.1220464744)
5(-0.1814762561 -0.2236267641 -0.2457632122 -0.2010438353 -0.1944721932)
)


60
(
5(0.004500561654 0.01403345766 -0.00520296083 -0.001364487928 -0.01160519945)
5(0.004034996522 0.01095781275 -0.002290675287 0.0001744127019 -0.007447994143)
5(0.003761230263 0.006346584209 0.002418454552 0.002620573307 -0.0003036167249)
5(0.004598572909 0.004515618626 0.004909119866 0.003917386883 0.00414514153)
5(0.005298546053 0.004101438388 0.00525302106 0.004108306444 0.005500567663)
5(0.004640486246 0.003595545736 0.004122848778 0.003339844312 0.004238408687)
5(0.003409585506 0.002987314423 0.002787911323 0.002428467776 0.002334371476)
5(0.002703400877 0.002635815641 0.002033890224 0.001890568541 0.001313883881)
5(0.002501320081 0.002394584872 0.001861080068 0.001695210355 0.001154965)
5(0.002506852526 0.002280676794 0.001938446667 0.001636735388 0.001284388568)
5(0.00244971472 0.002154754786 0.001930310472 0.001519827341 0.001224991413)
5(0.002321504653 0.00195090952 0.001782465636 0.001302996443 0.0009566806609)
5(0.002109880221 0.001826725551 0.001533356711 0.001051084244 0.0006076045018)
5(0.00199170812 0.001679974882 0.001296707769 0.0008142561435 0.000271791466)
5(0.001951837998 0.001525441469 0.001087461311 0.0005728180899 -3.133529805e-05)
5(0.001776344671 0.001362187061 0.0009325169545 0.0003472035573 -0.0002701419023)
5(0.001647395214 0.001186469244 0.0007884365742 4.009314973e-05 -0.0005580375375)
5(0.001544786611 0.001038638035 0.0005056477861 -0.0001772682078 -0.0009121460747)
5(0.001390684855 0.0008282455252 0.0002241127724 -0.0004501699261 -0.001298099649)
5(0.001225112379 0.0005995849544 -3.319230244e-05 -0.0008646996972 -0.001698207406)
5(0.001068957074 0.0003802351505 -0.0003657348735 -0.001223737433 -0.002180687252)
5(0.0008545458835 8.656327522e-05 -0.000745291365 -0.001665137826 -0.002663678099)
5(0.0005896931734 -0.0002477387475 -0.001119097869 -0.002164427616 -0.00317846152)
5(0.0003420631831 -0.0005909102116 -0.001530951714 -0.002641644545 -0.003746844999)
5(5.241410225e-05 -0.001038844536 -0.002027955363 -0.003163094636 -0.004348666681)
5(-0.0002845431369 -0.001402137559 -0.002579128729 -0.003770091393 -0.005003477886)
5(-0.0006911638523 -0.001841269158 -0.003146645908 -0.004425725141 -0.005675311519)
5(-0.001160234404 -0.00246767983 -0.003759495126 -0.005108562359 -0.006453824574)
5(-0.00165499528 -0.003055945509 -0.004447163002 -0.0058474688 -0.007253817546)
5(-0.002205682155 -0.003682520025 -0.005213887417 -0.006642829191 -0.008057835906)
5(-0.002809066976 -0.004377477192 -0.006013702243 -0.007490685248 -0.008979634783)
5(-0.003482259825 -0.005140413501 -0.006840423247 -0.008359703276 -0.009795470281)
5(-0.004234226307 -0.006003218375 -0.007726314894 -0.009256325422 -0.01065246418)
5(-0.005087846409 -0.006914183856 -0.008667225159 -0.01019806071 -0.01166833555)
5(-0.006009588958 -0.007841785714 -0.009649952811 -0.01117412417 -0.01259964142)
5(-0.006963591241 -0.00884569808 -0.01071460688 -0.01220790309 -0.01355660281)
5(-0.007986101585 -0.009900454345 -0.01182671454 -0.01327105893 -0.01455218918)
5(-0.009099595921 -0.0110018538 -0.01294171773 -0.01432696914 -0.01552064653)
5(-0.01029003173 -0.012164386 -0.01407648147 -0.0153711116 -0.01646610992)
5(-0.01155552733 -0.01338330821 -0.01523434842 -0.01644413547 -0.01743971357)
5(-0.01290018372 -0.01464008488 -0.01641713441 -0.0175161598 -0.01826931378)
5(-0.01434317954 -0.01591866215 -0.01762800933 -0.01848573847 -0.01890087429)
5(-0.01586026882 -0.01723272148 -0.01880585752 -0.01934761585 -0.01948972972)
5(-0.01747389177 -0.01857095376 -0.01994712316 -0.0200817932 -0.01999339658)
5(-0.01915366153 -0.01992329312 -0.02093806095 -0.02070467725 -0.0204121185)
5(-0.02089945834 -0.02132229349 -0.02175648907 -0.02122229808 -0.02074401471)
5(-0.02272368256 -0.0226731279 -0.0224958793 -0.02166861977 -0.02094669418)
5(-0.02462750087 -0.02388721682 -0.02309036809 -0.0219881589 -0.0210909134)
5(-0.02655113395 -0.02490957618 -0.02352466817 -0.02217850914 -0.02126541555)
5(-0.02834050687 -0.02572061274 -0.02390395352 -0.02237148207 -0.02148106638)
5(-0.02992072658 -0.0264976956 -0.02430718717 -0.02261085722 -0.02181157571)
5(-0.03128022723 -0.02722349389 -0.02469492484 -0.0230312872 -0.02241514357)
5(-0.0324446366 -0.0279644045 -0.02525898275 -0.02367915053 -0.02327380142)
5(-0.0335872322 -0.0290144873 -0.0263048538 -0.0248061215 -0.02463977783)
5(-0.03494548249 -0.03065884657 -0.02813111622 -0.02677989901 -0.02677593553)
5(-0.03740313647 -0.03352555857 -0.03128218997 -0.0299367658 -0.03005575302)
5(-0.0425210266 -0.03903809328 -0.03739104008 -0.0353391639 -0.03533694481)
5(-0.05480146104 -0.05194713431 -0.05103606872 -0.04681616765 -0.04586920387)
5(-0.1265701621 -0.1409101258 -0.1668818583 -0.1439765864 -0.1471496826)
5(-0.1894581988 -0.2206295513 -0.2731912065 -0.2331232345 -0.2411492321)
)


60
(
5(0.007551986356 0.01558478513 -0.001885494196 0.0007594407361 -0.007801188184)
5(0.00631852532 0.01207395723 0.0002131051528 0.001777281555 -0.004537389285)
5(0.004768616843 0.006844168156 0.003518224557 0.003343074131 0.0009467037059)
5(0.004840070699 0.004733118419 0.005097954859 0.004088979745 0.00424590977)
5(0.005222518384 0.004174571634 0.005088321273 0.004042205714 0.005176190658)
5(0.004603621974 0.00363795779 0.003990041979 0.003284450093 0.003990330524)
5(0.0034769149 0.003062661762 0.002820504058 0.002431245907 0.002289270742)
5(0.002792213967 0.002676557719 0.002116596365 0.001906292014 0.001351220444)
5(0.002578404654 0.002434278727 0.001900905861 0.001668235708 0.001143417941)
5(0.002505314422 0.002253250713 0.001893257938 0.001545995393 0.001159657627)
5(0.002423810042 0.002076218323 0.001819637488 0.00137934625 0.001035911029)
5(0.002260335309 0.001902637523 0.001643020882 0.001139487761 0.0007419545625)
5(0.002087094656 0.001702197447 0.00137674857 0.0008706038701 0.0003810753163)
5(0.00190901485 0.001531031079 0.001131667466 0.000602764656 3.93258047e-05)
5(0.001742573562 0.001348110946 0.0009043655396 0.0003471328016 -0.0002728342357)
5(0.001627272229 0.001182308174 0.0007031674867 7.287973288e-05 -0.0005776231693)
5(0.001468472179 0.0009789139733 0.0004608950499 -0.0002048815042 -0.0009157300646)
5(0.001329434703 0.0007623356955 0.0002029939737 -0.0005107969122 -0.001271938329)
5(0.001153281938 0.0005512908529 -8.758058312e-05 -0.0008644045107 -0.001690432777)
5(0.000935123832 0.0002835118826 -0.0004243862986 -0.001225430271 -0.002117952662)
5(0.0007586874593 1.2716142e-05 -0.0007499407442 -0.001662865595 -0.002603233825)
5(0.0004925705435 -0.0002899047949 -0.001155872339 -0.002132371865 -0.00311560037)
5(0.0001963736614 -0.0006577959713 -0.001598365658 -0.002622500293 -0.003667654064)
5(-6.25497019e-05 -0.001045530892 -0.002033885297 -0.003157123566 -0.004292801502)
5(-0.0004111257931 -0.001452940497 -0.002564468108 -0.003712727822 -0.004917869737)
5(-0.0008372548014 -0.001940823311 -0.003146385101 -0.0043247418 -0.005593665083)
5(-0.001260037535 -0.002481798039 -0.003741522797 -0.005029688258 -0.006359455653)
5(-0.001699787845 -0.003037662523 -0.004393830379 -0.005768271945 -0.007127630734)
5(-0.002251577921 -0.00364588938 -0.0051345799 -0.006516154095 -0.007901584586)
5(-0.002894663179 -0.004358689676 -0.005930356949 -0.007351434589 -0.008781878177)
5(-0.003554913269 -0.005131523457 -0.00673304661 -0.008236847582 -0.009705599819)
5(-0.004248731231 -0.005902478982 -0.00759224595 -0.009135478441 -0.0106133063)
5(-0.005001126465 -0.006731669706 -0.008536745622 -0.01007708869 -0.01158577577)
5(-0.005864471566 -0.007659012935 -0.009536639091 -0.01105911204 -0.01259869573)
5(-0.006821890671 -0.008663107195 -0.01055503847 -0.01211400733 -0.01360056833)
5(-0.007810691582 -0.009694191108 -0.01160039897 -0.01320227054 -0.01459936519)
5(-0.008863811846 -0.01075484658 -0.01271601167 -0.0142663423 -0.01563003875)
5(-0.009992015883 -0.01186680443 -0.0138870606 -0.01535311733 -0.01670864992)
5(-0.01119676526 -0.01303722353 -0.01507081718 -0.01651273516 -0.01775530972)
5(-0.01248353403 -0.01426965897 -0.01626102685 -0.0176542097 -0.01869662003)
5(-0.01387368917 -0.01554218885 -0.0174665 -0.01871338309 -0.01960036813)
5(-0.01537217165 -0.01685602059 -0.01868163136 -0.01974444127 -0.02038540903)
5(-0.01693221745 -0.01823990121 -0.01991986304 -0.02070325827 -0.02109050004)
5(-0.01858231742 -0.01966036834 -0.02116212962 -0.02152199462 -0.02171117192)
5(-0.02039172778 -0.02113927786 -0.02230318251 -0.02226640918 -0.0221994236)
5(-0.02231289305 -0.0227491908 -0.02331739778 -0.02295306735 -0.02263794593)
5(-0.02439861884 -0.0244325742 -0.02432219181 -0.02354000284 -0.02291305776)
5(-0.02654566987 -0.02604659448 -0.025173159 -0.02403972955 -0.0230929104)
5(-0.02865816377 -0.0274890739 -0.02598722061 -0.0244355204 -0.02326038793)
5(-0.03090221927 -0.0288447542 -0.02688826289 -0.02475120121 -0.02346155096)
5(-0.03305900968 -0.03014072881 -0.02767353644 -0.02502271792 -0.02360671189)
5(-0.03501143593 -0.03160529987 -0.02842083739 -0.02539146203 -0.02392417946)
5(-0.03689219143 -0.0331754641 -0.02933665875 -0.02599286465 -0.02468564778)
5(-0.03879249982 -0.03469826638 -0.03055075586 -0.02701057779 -0.02589769084)
5(-0.0410460407 -0.03684379825 -0.03238699118 -0.02885095638 -0.02792608537)
5(-0.04425268982 -0.04011412378 -0.0357182443 -0.03221036225 -0.03123644853)
5(-0.04977500947 -0.04576464742 -0.04237464982 -0.03851666773 -0.03713540704)
5(-0.06184270257 -0.05829285583 -0.0580802144 -0.05289329527 -0.04973312818)
5(-0.1319389097 -0.1482943282 -0.1679751466 -0.1551919098 -0.1529609849)
5(-0.1935585678 -0.2294913819 -0.2666485769 -0.2472400186 -0.247455067)
)


60
(
5(0.00989257465 0.01677320844 0.0006200544165 0.002345460473 -0.004906655752)
5(0.008034920722 0.01293129281 0.002092086056 0.002965111687 -0.002354389592)
5(0.00547558158 0.007206130971 0.004315503065 0.00387378043 0.001901212442)
5(0.005011156178 0.004870810935 0.005216123138 0.004199830658 0.004340113808)
5(0.005195759669 0.004225405599 0.004952960256 0.003992507296 0.004885351287)
5(0.004558285964 0.003668954542 0.003889136209 0.003230045814 0.003799204167)
5(0.003488904286 0.003080428952 0.002820137334 0.002407802643 0.002229734058)