/*--------------------------------*- C++ -*----------------------------------*\
| =========                 |                                                 |
| \\      /  F ield         | OpenFOAM: The Open Source CFD Toolbox           |
|  \\    /   O peration     | Version:  2.3.1                                 |
|   \\  /    A nd           | Web:      www.OpenFOAM.org                      |
|    \\/     M anipulation  |                                                 |
\*---------------------------------------------------------------------------*/
FoamFile
{
    version     2.0;
    format      ascii;
    class       dictionary;
    location    "constant";
    object      GRPSI31;
}
// * * * * * * * * * * * * * * * * * * * * * * * * * * * * * * * * * * * * * //

GRPSI31_table
60
(

60
(
5(4.266039785e-05 8.49612841e-05 0.0001004186802 0.0001558273957 0.0002253923965)
5(7.015114088e-05 0.0001861588562 0.0001357124465 0.0001973155003 0.0002438817462)
5(-0.0002241973806 0.0001670589634 0.0001719647429 0.0002584484584 0.0003991103748)
5(-0.0007768391795 0.0001828458095 0.0001819148676 0.0003524158986 0.0002693953196)
5(-0.001141632696 0.0002349082168 0.0002429765606 0.0003742445851 0.0004176734282)
5(-0.001198086776 0.0003021005189 0.0004076409493 0.0004702009972 0.0005944181221)
5(0.0002319921808 0.0003767901245 0.0004802858847 0.0006152911402 0.0006639916484)
5(0.0003362971764 0.0004526725839 0.0005239715464 0.0007176702288 0.0009213727753)
5(-0.001602090711 0.0005337801368 0.0006140165589 0.000848121864 0.001029330731)
5(-0.002334012804 0.0005422139767 0.0006903678126 0.00101541871 0.001198394819)
5(-0.002545873443 0.00060690433 0.000847697472 0.00119131531 0.001416470389)
5(-0.0008623228556 0.0008963649451 0.001075870757 0.00142736651 0.001672506178)
5(0.00077733407 0.001060286755 0.001303511112 0.001646524826 0.00193735452)
5(0.0008928892817 0.001246843165 0.001526023681 0.001957302541 0.002247622034)
5(0.001092048668 0.001485609179 0.001805131625 0.002236899895 0.002570876232)
5(0.00105145189 0.001477286308 0.00199926434 0.002502525647 0.002893278542)
5(0.001270967142 0.001814970814 0.002292335679 0.002915584436 0.003278320695)
5(0.001688006309 0.002222486107 0.002806685345 0.003351065717 0.003697404888)
5(0.002118970036 0.002705749755 0.003256108018 0.003845185246 0.004102066041)
5(0.002466889888 0.003189218361 0.003726483756 0.004324428044 0.004677187359)
5(0.002909974418 0.003740285272 0.004344536988 0.004962752116 0.005385849315)
5(0.003408792209 0.004358361033 0.004958623 0.005853411174 0.006233152581)
5(0.003948249536 0.005029287979 0.005732650685 0.006545405782 0.006945423641)
5(0.004642696958 0.00575760196 0.006605331549 0.007462323734 0.007903656976)
5(0.00537585467 0.006581591023 0.007541354976 0.008413969337 0.00888951194)
5(0.006260806911 0.00750582394 0.008537140842 0.009442634214 0.0100808942)
5(0.007274767099 0.008741658397 0.009877132836 0.01066756286 0.01137503657)
5(0.008455087331 0.01017751187 0.01117814353 0.01205089764 0.01282533454)
5(0.009669484937 0.0115869045 0.01280403456 0.01368641159 0.01439086317)
5(0.01112334722 0.01310861773 0.01456253479 0.01562197722 0.01622053097)
5(0.01268566998 0.01480878925 0.01630967624 0.01733364289 0.01806152101)
5(0.01449982562 0.01683201612 0.0185347408 0.01975247261 0.02087490592)
5(0.01654874252 0.0189159642 0.02069050144 0.02198403917 0.02230776315)
5(0.01872322801 0.0211253513 0.02287096172 0.0245142107 0.02563616812)
5(0.02110156238 0.02372189662 0.02557837976 0.02709352657 0.02839350101)
5(0.02376431806 0.026112191 0.02762081662 0.02967910314 0.03107413819)
5(0.02662535589 0.02954941984 0.03179053336 0.03310736805 0.03327125542)
5(0.02977401889 0.03231942583 0.03494513396 0.03576079993 0.03932013429)
5(0.03300369922 0.03568785399 0.03781856424 0.03919976011 0.0390494558)
5(0.03607748215 0.03901928272 0.04044268533 0.04193118587 0.06167503312)
5(0.03983248499 0.0431178312 0.04492343969 0.04591919287 0.06382730408)
5(0.04399218545 0.04704454721 0.0489500179 0.05640315287 0.06638444061)
5(0.0481263765 0.05169564709 0.05342744191 0.07521744342 0.0676102502)
5(0.05211745659 0.05484615239 0.05318346575 0.07718607354 0.06738612323)
5(0.05608487811 0.05925463145 0.05798749874 0.07838177806 0.0682897398)
5(0.06099747617 0.06253430763 0.06361274225 0.07859539918 0.06790826577)
5(0.0654868839 0.06762240944 0.08404198684 0.07803109788 0.06671813396)
5(0.07040615849 0.07624132219 0.0911250311 0.07698803076 0.06487167187)
5(0.07381470164 0.07767049741 0.09102081868 0.07511879654 0.0625599791)
5(0.07728662907 0.1000395699 0.0892048411 0.07262335157 0.05993477839)
5(0.08187218909 0.0987428053 0.08643563764 0.06947108358 0.0569732125)
5(0.09960642741 0.09567329686 0.08283157751 0.06596753107 0.05388985955)
5(0.1038680511 0.09154655014 0.07860044251 0.06209941461 0.05060033099)
5(0.1002664332 0.0864984159 0.07375306197 0.05802885976 0.04728284279)
5(0.09376814663 0.08080441085 0.06847320507 0.0538407617 0.04401635322)
5(0.08474076602 0.07429761741 0.06277397515 0.04974907747 0.04093111865)
5(0.07290568883 0.06700263453 0.05677115922 0.04565249001 0.03812628871)
5(0.06111407773 0.05785896272 0.05026669554 0.04162058728 0.0361527572)
5(0.04970176329 0.04757550403 0.04168268126 0.04279904591 0.03410227106)
5(0.03620479278 0.0340741015 0.02562951907 0.02242485322 0.0228607121)
)


60
(
5(4.063602611e-05 7.42629405e-05 0.000102344591 0.0001605748726 0.0002396660954)
5(6.033637174e-05 0.0001331351893 0.0001281742835 0.0001912158743 0.0002562153664)
5(-8.085718241e-05 0.0001328102322 0.0001577697182 0.0002371920095 0.00035087144)
5(-0.0003501107814 0.000151617672 0.0001781375465 0.0003054449092 0.0003143908082)
5(-0.0005237270986 0.0001911890423 0.0002279622082 0.0003438771177 0.0004255071289)
5(-0.0005411016934 0.0002416522309 0.0003340746379 0.0004245700081 0.0005569850249)
5(0.0001872996925 0.0002989833832 0.0003990673327 0.0005340972494 0.0006375934826)
5(0.0002558315553 0.0003607164708 0.0004529211186 0.0006262102791 0.0008150303438)
5(-0.0006938234316 0.0004291853214 0.0005347279231 0.00073665372 0.0009199578807)
5(-0.001037159825 0.0004649886734 0.0006137739415 0.0008687275593 0.001057345398)
5(-0.001116688864 0.0005333565154 0.0007377277715 0.001007860571 0.001218446493)
5(-0.0002445267594 0.0007178796114 0.0008998481436 0.001178853414 0.001396838741)
5(0.0006100250393 0.0008434201489 0.001065411972 0.001342409205 0.001579179424)
5(0.0007063886682 0.0009850185222 0.001231691372 0.001552498219 0.001783534765)
5(0.0008504235476 0.001156797637 0.0014306533 0.001749492944 0.001995643266)
5(0.0008792953023 0.001210290303 0.001589947366 0.001942634026 0.00220815842)
5(0.001043778699 0.001441578141 0.00180362868 0.002212536383 0.002455790823)
5(0.001312855744 0.001713693032 0.002132231713 0.002498912757 0.002725279268)
5(0.001595797491 0.002031184027 0.002435971413 0.002820737566 0.002996254519)
5(0.001845843682 0.002355818477 0.002758192884 0.003144176729 0.003360528778)
5(0.00214942185 0.00272292327 0.003163663365 0.003558688771 0.00380820125)
5(0.002496888551 0.003135527039 0.003579297449 0.004110443062 0.004341119988)
5(0.002873525819 0.003588212021 0.00409054949 0.004581948442 0.004818467762)
5(0.003341123236 0.004081840826 0.004665432357 0.005184525948 0.005443327436)
5(0.003840102378 0.004641679029 0.005294568727 0.005823446544 0.006101606499)
5(0.004436590944 0.005270366714 0.005968896684 0.006524620527 0.006882993601)
5(0.005114300897 0.006077523924 0.006839978191 0.007343081006 0.007749993023)
5(0.005896101546 0.007004707772 0.007717861242 0.008272980741 0.008721901538)
5(0.006719656653 0.007940134591 0.008780935038 0.009355435633 0.009779189619)
5(0.007685661882 0.008961621355 0.009944621176 0.01062148856 0.01100827528)
5(0.008728458267 0.01010392626 0.01112817884 0.01180503852 0.01226634242)
5(0.009923447349 0.0114323425 0.01258623277 0.01337725563 0.01405747264)
5(0.0112693324 0.01282135863 0.01404231967 0.01489823576 0.01518461457)
5(0.01270805462 0.01431394658 0.01555291804 0.01660084653 0.01731933396)
5(0.01427483069 0.01602536304 0.01735273693 0.01837171744 0.01919499152)
5(0.01599002443 0.01767371099 0.01886959633 0.02019064406 0.02109623938)
5(0.01788394405 0.01987943228 0.02148879584 0.02248957963 0.02279078684)
5(0.01991197332 0.0217891639 0.02364170026 0.0244391062 0.02645297471)
5(0.02203275355 0.02406796179 0.02569916528 0.02682434523 0.02700139312)
5(0.02410087427 0.02633124865 0.02768891094 0.02891598216 0.03908114595)
5(0.02652003749 0.0290584712 0.0307012382 0.03169245881 0.0410180048)
5(0.0292590956 0.03171881198 0.03348452941 0.03778623467 0.04324082983)
5(0.03193669771 0.03481731536 0.03656079378 0.04812247548 0.04484041175)
5(0.03461281991 0.03726447227 0.03731319282 0.05014188425 0.0457018236)
5(0.03732580511 0.04030533614 0.04064751973 0.05184977889 0.04713431549)
5(0.04059382716 0.042873781 0.0444750075 0.05307413353 0.04789772702)
5(0.04369885528 0.0463710445 0.05580083769 0.05389255203 0.04818714677)
5(0.04705111503 0.05168901058 0.06050375069 0.05439637691 0.04806143149)
5(0.04966429831 0.05341553465 0.06160295403 0.05438388455 0.04755177565)
5(0.05241656635 0.06575030394 0.06178583907 0.05392353394 0.04673619904)
5(0.05574625159 0.06628113036 0.06136630385 0.05297389012 0.04562045111)
5(0.06576387133 0.06585700765 0.06038100275 0.05163541669 0.04422327911)
5(0.06905180099 0.0647425066 0.05884276192 0.04992809257 0.04260831573)
5(0.06841789349 0.06301674998 0.05678411403 0.04794161114 0.04076398181)
5(0.06630894739 0.06064194674 0.05428202204 0.04567561115 0.0388576023)
5(0.06271466063 0.05767796989 0.05137064 0.04327409467 0.03689863009)
5(0.05754146514 0.05412016729 0.04807728003 0.0407262942 0.03498157156)
5(0.05211682358 0.04938457669 0.04435789365 0.03809136474 0.03339075611)
5(0.04655841775 0.04389426951 0.03947593715 0.03789390269 0.03166580761)
5(0.03874068883 0.03582867645 0.03046491433 0.0265368721 0.02526357133)
)


60
(
5(3.875501979e-05 6.324980897e-05 0.0001078625328 0.0001734378979 0.0002671012627)
5(4.960066044e-05 7.953777592e-05 0.0001239272692 0.0001930112606 0.0002843630156)
5(6.123126743e-05 9.799757483e-05 0.0001470468534 0.0002242327961 0.0003211706285)
5(7.488654321e-05 0.0001194325869 0.0001783156053 0.0002667134401 0.0003771287001)
5(9.213509701e-05 0.0001459451678 0.000216978766 0.0003201011326 0.0004477134007)
5(0.000113546883 0.0001787581837 0.0002635444514 0.0003828000446 0.0005282339784)
5(0.0001396626848 0.0002177360401 0.0003186707071 0.0004531629401 0.0006126419861)
5(0.0001711334728 0.0002632266815 0.0003802383453 0.0005294137054 0.0006999562134)
5(0.0002081142371 0.0003155145287 0.0004491029812 0.0006115437191 0.0007894470569)
5(0.0002510661574 0.0003745805621 0.0005245410297 0.0006976429812 0.0008786218996)
5(0.0003009102293 0.0004401190336 0.0006054277599 0.0007859659012 0.0009646332528)
5(0.0003564399962 0.0005120854705 0.0006907374462 0.0008753335499 0.001046387175)
5(0.0004191789381 0.0005895357839 0.000780677017 0.0009653493804 0.001125638249)
5(0.0004887462826 0.0006733740895 0.0008745268131 0.001055139338 0.001201572253)
5(0.000566661055 0.0007628710773 0.0009730270364 0.001146715517 0.001279005502)
5(0.000651743403 0.0008589343031 0.001075776891 0.00124148699 0.001357553325)
5(0.0007446893059 0.0009628412571 0.001183910138 0.001340543074 0.001440794149)
5(0.0008472922391 0.001074028358 0.001299207969 0.001446592507 0.001534839713)
5(0.0009597236453 0.001195624976 0.001424061711 0.001563360274 0.001639449445)
5(0.001082682957 0.00132775555 0.001561487591 0.001692542631 0.00176022363)
5(0.001219686443 0.001473465846 0.001713976425 0.001840586724 0.001903741047)
5(0.001374208908 0.001636140401 0.00188451087 0.002006988766 0.002072920726)
5(0.001546694807 0.001817532145 0.00207837524 0.002201775485 0.002264162329)
5(0.001733088415 0.002020146088 0.002294710568 0.002427130469 0.002493826362)
5(0.001948494372 0.002251612751 0.002546058096 0.002683444187 0.002761445208)
5(0.002186227595 0.002512198146 0.002825148282 0.002974085857 0.003062136532)
5(0.002453341772 0.002806142506 0.003144677769 0.003305762472 0.003409559538)
5(0.002753558897 0.003131445085 0.003504487886 0.003683309103 0.003817672408)
5(0.003090142345 0.003496667274 0.003905728673 0.004110417102 0.004253116725)
5(0.00346339394 0.003907282081 0.004356226829 0.00458998314 0.004770948102)
5(0.003871545324 0.004361151241 0.004853358116 0.005123448931 0.00533041988)
5(0.004325678737 0.004861309128 0.005407631621 0.005715813553 0.005969263468)
5(0.004825554176 0.00541381398 0.006019811453 0.006376582528 0.006667266032)
5(0.005365024686 0.006022959258 0.006694653613 0.007099322783 0.007450387443)
5(0.005958738227 0.006681268029 0.007426959678 0.007901314061 0.008302068354)
5(0.006582399655 0.00740460217 0.008227081545 0.008784476332 0.009245499486)
5(0.007265774515 0.008182914461 0.009097956288 0.009758940514 0.01026888727)
5(0.007997972539 0.009024810606 0.0100497755 0.01080789901 0.01136063522)
5(0.008765971732 0.009954963741 0.01109259779 0.01194228297 0.01256767345)
5(0.009593479501 0.01092974184 0.01223361992 0.01318233392 0.01389368864)
5(0.01048384265 0.01203373677 0.01349020467 0.01452929439 0.01541161863)
5(0.01144026364 0.01317389112 0.01479950578 0.01600293796 0.01706480185)
5(0.01242940795 0.01443480947 0.01621675478 0.01762897592 0.01880390284)
5(0.0134864262 0.01583697524 0.01771649514 0.019428075 0.02057652008)
5(0.01465348961 0.01727575458 0.01933851505 0.02136833545 0.02237274709)
5(0.01591131949 0.01881093574 0.02108469803 0.02336605734 0.02416270523)
5(0.01727516313 0.02040625839 0.02302381868 0.0253542143 0.02585545389)
5(0.01872914807 0.02215048225 0.02506579699 0.0272808686 0.02742202071)
5(0.02024227746 0.02400084313 0.02716530371 0.02908548354 0.02877864415)
5(0.0219821016 0.02602268142 0.02921183497 0.03068866879 0.02987974002)
5(0.02380835512 0.02815905865 0.03107664738 0.03201638994 0.03072091913)
5(0.02583958997 0.03026865104 0.03270834831 0.0330260871 0.03125845249)
5(0.02805179814 0.03217389604 0.03398744711 0.03368659368 0.03153125642)
5(0.03034064833 0.03381236611 0.03489795531 0.03400749789 0.03145903599)
5(0.03261822187 0.03500289014 0.03542050784 0.03395497438 0.03115583429)
5(0.03459266495 0.03584870945 0.0355698106 0.03356962634 0.03061554891)
5(0.03626466178 0.0362995796 0.03533343712 0.03290659153 0.02983357297)
5(0.03738133552 0.0363352307 0.03476403625 0.03195065709 0.02885267491)
5(0.03784877351 0.03597045689 0.03392869321 0.03071240619 0.02772358918)
5(0.03636202168 0.03333985428 0.03274459995 0.02846442559 0.02626058324)
)


60
(
5(3.95255745e-05 6.421697943e-05 0.0001153588604 0.0001895004425 0.0002906251733)
5(4.940837828e-05 8.078952107e-05 0.0001318276854 0.0002094626111 0.0003141454233)
5(6.090447679e-05 9.941335443e-05 0.00015543177 0.0002412102526 0.0003536917709)
5(7.395283946e-05 0.0001201940364 0.0001868661955 0.0002830105322 0.0004065945943)
5(9.034384689e-05 0.0001457292621 0.0002254918855 0.0003330810535 0.0004710232019)
5(0.0001113571208 0.0001772287284 0.0002701732556 0.0003900562942 0.0005398500395)
5(0.0001363836918 0.0002139295633 0.0003211570795 0.0004522098657 0.000610026687)
5(0.0001657741166 0.000255737942 0.0003773182013 0.000517956563 0.0006793535249)
5(0.0001998757714 0.0003021546261 0.0004373070544 0.0005850337674 0.0007472290004)
5(0.0002384932093 0.0003529380784 0.0005008052402 0.0006521461366 0.0008095675104)
5(0.0002825603203 0.0004079444142 0.0005661675289 0.0007176175471 0.0008674572021)
5(0.0003300117596 0.0004661000465 0.0006328961805 0.0007811188552 0.0009191738216)
5(0.0003818075909 0.0005268269595 0.0006998436106 0.0008416599284 0.000966003459)
5(0.0004377346022 0.0005898110719 0.0007664180317 0.0008997914362 0.001009747371)
5(0.0004972916538 0.000654513346 0.0008324581405 0.0009562273459 0.001051006141)
5(0.0005604368303 0.0007204270013 0.0008987790539 0.001012019773 0.001092845108)
5(0.0006277333991 0.0007889637436 0.000966308083 0.001067588098 0.001136675071)
5(0.0006983859599 0.0008598339556 0.001036931913 0.001125463621 0.001186514965)
5(0.0007735507901 0.0009342137429 0.001109501561 0.001190157005 0.001242873323)
5(0.0008533684612 0.001013033241 0.001189462807 0.001260830022 0.00130990131)
5(0.0009408837865 0.001097475543 0.001277144813 0.001341558634 0.001388898199)
5(0.001032626868 0.001189234846 0.001374638568 0.001434681892 0.001481882462)
5(0.001133606933 0.001289932365 0.001481958045 0.001540347071 0.001594942608)
5(0.001244552339 0.001404418899 0.00160459706 0.001664066599 0.001732640461)
5(0.001371367673 0.001533772015 0.001745548965 0.001809267842 0.001886651497)
5(0.001503141198 0.001675715917 0.001906693658 0.001974269067 0.002073923635)
5(0.001655998079 0.001837119166 0.002090406881 0.002170313212 0.002288593069)
5(0.00182807042 0.002015700761 0.002297514843 0.002392487647 0.002541920628)
5(0.002019004385 0.002218979759 0.002533637963 0.002653878743 0.002823829276)
5(0.002218782616 0.002450369093 0.002796270194 0.002944845728 0.003148219556)
5(0.002452755707 0.0027067274 0.003094255771 0.003278829905 0.003522737744)
5(0.00271252767 0.002991461311 0.003429470793 0.003656519765 0.003943278872)
5(0.002984829412 0.003313164896 0.003802023833 0.004077701129 0.004428369586)
5(0.003282222735 0.00365850467 0.004218261753 0.004553351304 0.004961438117)
5(0.003607484649 0.004045513222 0.004679128404 0.005085127509 0.005566399866)
5(0.003977525539 0.00447160737 0.005184425481 0.005673734413 0.006227378016)
5(0.004339307377 0.004934871359 0.005745710467 0.00632478737 0.006964616675)
5(0.004746534669 0.005439539065 0.006367329957 0.007049519513 0.007772156287)
5(0.005168153413 0.005994694481 0.007060778205 0.007849597697 0.008680531016)
5(0.005631847358 0.006607068245 0.007813769698 0.008734908326 0.009697544934)
5(0.006145487497 0.00727834111 0.008634378727 0.0097156131 0.01085710839)
5(0.006636701257 0.007986826982 0.009546376908 0.01079930803 0.01210792531)
5(0.007196958719 0.008773561849 0.0105296376 0.01202073438 0.01349710801)
5(0.00776504934 0.009648492772 0.01160154216 0.01337635678 0.01496018153)
5(0.008395727159 0.01061595272 0.01279608125 0.01486198133 0.01647001591)
5(0.009100902459 0.01163502168 0.01410144338 0.01645964755 0.01801649035)
5(0.009864946023 0.01275009899 0.01555901927 0.01810030988 0.01958769345)
5(0.01074672393 0.01398549109 0.01716725938 0.0197766898 0.02112001814)
5(0.0117463626 0.01540232375 0.0188806466 0.02147492415 0.02256843026)
5(0.01287800808 0.01694547024 0.02064337272 0.02307849647 0.02387182271)
5(0.01420967087 0.01869204718 0.02239069122 0.02455008301 0.02495351937)
5(0.01575341092 0.02055434632 0.02404047054 0.02582184854 0.02582638365)
5(0.01757853854 0.02242232966 0.02553916454 0.02685870381 0.02644862526)
5(0.01962493036 0.02419074877 0.02681596474 0.02760980151 0.02683805819)
5(0.02181451182 0.02582374879 0.02780192888 0.02805250414 0.02693775224)
5(0.02397512965 0.02718931585 0.0284650228 0.02819579202 0.02680499901)
5(0.0259721463 0.0282181161 0.02882558155 0.02804364916 0.02642660818)
5(0.02758639377 0.02888755539 0.02885052244 0.02762148022 0.02583003689)
5(0.02850792823 0.02900555895 0.02854820106 0.02698605219 0.02508117573)
5(0.02788285973 0.02746452875 0.02723566106 0.02526058445 0.02389813015)
)


60
(
5(4.095554189e-05 6.742347448e-05 0.000123112322 0.0002047989417 0.0003092894546)
5(5.130040476e-05 8.474924205e-05 0.000141022564 0.0002255953243 0.0003376248114)
5(6.250793929e-05 0.000103475268 0.0001656520186 0.0002568947022 0.0003764960953)
5(7.580058305e-05 0.0001242625748 0.000196978557 0.0002969892469 0.0004283924216)
5(9.218990423e-05 0.0001491584164 0.0002342965684 0.0003438534722 0.0004854565885)
5(0.0001127868526 0.0001792625491 0.0002767504299 0.0003955386321 0.0005432161215)
5(0.0001374240897 0.0002136456359 0.0003235805025 0.0004498170215 0.0006010848786)
5(0.0001652022581 0.0002524868724 0.0003740672622 0.0005056975416 0.0006560653617)
5(0.000197520199 0.0002948170267 0.0004266602878 0.0005611711325 0.0007079172087)
5(0.0002328705097 0.0003397868839 0.000480811768 0.0006146612816 0.0007543360025)
5(0.0002719199607 0.0003868226268 0.000534778497 0.0006654108809 0.0007947752616)
5(0.0003134977894 0.0004351118598 0.0005878341686 0.0007125590959 0.0008295053152)
5(0.0003578669339 0.0004839180664 0.0006386503469 0.0007552333773 0.0008582209434)
5(0.0004048071188 0.0005327357587 0.0006875959474 0.0007943530326 0.0008855762043)
5(0.0004521906937 0.0005814999027 0.0007343100696 0.0008308979881 0.0009081888342)
5(0.0005006443356 0.0006292470231 0.0007791377132 0.0008648222359 0.000931984931)
5(0.0005507116409 0.0006761509026 0.0008227135852 0.0008962332709 0.0009544942845)
5(0.0006021844915 0.0007222990291 0.0008654998308 0.0009292008941 0.000979139628)
5(0.0006542293932 0.0007687759426 0.0009090751742 0.0009625531709 0.001010925939)
5(0.0007082412912 0.000816294803 0.0009548496114 0.001000030351 0.001045922571)
5(0.0007649090204 0.0008649450832 0.001002582519 0.001041262978 0.001089822039)
5(0.0008186981426 0.000915582022 0.001056244352 0.001089563906 0.001140803116)
5(0.0008807963954 0.0009712580008 0.001115260415 0.001144325929 0.001207247945)
5(0.0009488103824 0.001031648978 0.001183521509 0.001210368798 0.001286588287)
5(0.001017724723 0.00109759723 0.001259498168 0.001289353007 0.001380351579)
5(0.001094650203 0.001171266183 0.0013466286 0.001382309566 0.001490930876)
5(0.00118037843 0.001255353725 0.001444864529 0.001491049993 0.001624980627)
5(0.001275307527 0.001350167141 0.00156151816 0.001619620861 0.001776653853)
5(0.00138020443 0.001456327274 0.001693865892 0.001772616954 0.001971496516)
5(0.001491989574 0.001579520342 0.001844435959 0.001949582133 0.002178572212)
5(0.001624144367 0.001717435366 0.00201804703 0.002156193697 0.00243325925)
5(0.001759682588 0.001873076395 0.002221985397 0.002393425031 0.002716093986)
5(0.001908925783 0.002054392306 0.002443671729 0.002663461704 0.003047252803)
5(0.002077791213 0.002248710483 0.002696028604 0.002977492454 0.003427518902)
5(0.002253067312 0.002465874606 0.002977769607 0.0033288303 0.003859970197)
5(0.002452651356 0.002705165419 0.00329874516 0.003721370914 0.004341667381)
5(0.002647328782 0.002978790722 0.003662244866 0.0041699313 0.004880160449)
5(0.002860671534 0.003281557603 0.004061838535 0.004672600545 0.005494225382)
5(0.003084175971 0.003613645388 0.004507168152 0.005238624459 0.006176448388)
5(0.003330350352 0.003973723296 0.005002062586 0.005874630293 0.006979451566)
5(0.003566149834 0.004362764513 0.005554493483 0.006590623845 0.007848521447)
5(0.003828893289 0.004787622872 0.006174107338 0.007390120533 0.008862247013)
5(0.004083016885 0.005259065446 0.00684727463 0.008298112354 0.009972059548)
5(0.004351493721 0.00579722845 0.007608207344 0.009336925943 0.01118463824)
5(0.004621360769 0.006373787144 0.008455057792 0.01049719191 0.01245485925)
5(0.004956466044 0.007015471108 0.009424469474 0.01177450708 0.01380919393)
5(0.005320410913 0.007740122561 0.01050654518 0.01315006807 0.01524289631)
5(0.005804407405 0.008536486354 0.01175164269 0.01458462407 0.01669148257)
5(0.006392469022 0.009464715442 0.01312688148 0.01608696228 0.01814637412)
5(0.007031301436 0.01057093985 0.01458935539 0.0176263952 0.01954534551)
5(0.007916140479 0.01190576092 0.01615514366 0.01914583771 0.02080993382)
5(0.0089781314 0.0133760259 0.0177674284 0.02055895183 0.02189986773)
5(0.01026917894 0.01504620486 0.01935822083 0.02185575084 0.02280364411)
5(0.01178441337 0.01678289986 0.02089881527 0.02291990609 0.02346896891)
5(0.0135559537 0.01855705297 0.02227276323 0.02376015306 0.02387518627)
5(0.01545746824 0.02026260568 0.02342407438 0.02432138691 0.023995661)
5(0.01744878623 0.02174118489 0.02423522869 0.02457788646 0.02392936903)
5(0.01927398414 0.02294214541 0.02471321055 0.02457864142 0.02363963288)
5(0.02071150784 0.02350631194 0.02466728549 0.02430593568 0.02316258565)
5(0.02008210822 0.02250198827 0.02293793552 0.02290974354 0.02199692281)
)


60
(
5(4.273085798e-05 7.128036469e-05 0.0001309661625 0.0002189047227 0.0003241770207)
5(5.375682744e-05 8.906290168e-05 0.0001495203074 0.0002404952956 0.0003544314482)
5(6.534313498e-05 0.0001084610375 0.0001751269674 0.0002710860272 0.0003936055591)
5(7.865105614e-05 0.0001294579431 0.0002066361632 0.0003089609996 0.0004406985279)
5(9.584369218e-05 0.0001540095434 0.0002428517389 0.0003520179482 0.0004912222672)
5(0.0001160897816 0.0001829992672 0.0002824745868 0.0003984407912 0.0005404118209)
5(0.0001404405883 0.0002158448177 0.0003253055971 0.0004463068259 0.0005886115435)
5(0.0001675584188 0.0002522599082 0.0003708119466 0.0004943376983 0.0006331668201)
5(0.0001980901894 0.0002915078728 0.000417421743 0.0005408062473 0.0006741195862)
5(0.0002315687195 0.0003323600708 0.0004641808982 0.0005847068613 0.0007099874435)
5(0.0002671214201 0.0003733753274 0.0005091029734 0.0006246395458 0.0007389773212)
5(0.0003041099915 0.0004147896082 0.0005520365436 0.0006602341312 0.0007628565484)
5(0.0003434468928 0.0004553906583 0.0005918841546 0.0006914649063 0.0007822515976)
5(0.0003838223249 0.0004949434617 0.0006293273185 0.000718623156 0.0007975918621)
5(0.0004237223479 0.0005327210739 0.0006631568777 0.0007421101489 0.0008113084243)
5(0.0004634837137 0.0005687168816 0.0006947757079 0.0007619679734 0.0008226377506)
5(0.0005022325294 0.000602282091 0.0007228618286 0.0007799197609 0.0008331707872)
5(0.0005418803495 0.0006339435132 0.0007489410466 0.0007973237927 0.0008453727301)
5(0.0005808824971 0.0006643264726 0.0007744800382 0.0008117341352 0.0008589472344)
5(0.0006183762806 0.000693679919 0.0007982835383 0.0008272982411 0.0008747674031)
5(0.0006572071002 0.000722750473 0.0008222769474 0.0008438500655 0.0008924302383)
5(0.0006936468181 0.0007497980629 0.0008480579349 0.0008627281578 0.000917946558)
5(0.0007340387806 0.0007787940865 0.0008774293014 0.0008863059065 0.0009473553285)
5(0.0007778214745 0.0008085769561 0.0009088057578 0.0009152005854 0.0009825355952)
5(0.0008138474121 0.0008391015786 0.0009430462257 0.0009505918609 0.001032162032)
5(0.0008637689428 0.0008731332299 0.0009826984079 0.0009943291035 0.001096570192)
5(0.0009145342315 0.0009140806859 0.001030967912 0.00104677204 0.001167325284)
5(0.0009744564993 0.0009617475204 0.001091864521 0.001110908763 0.001255402766)
5(0.001021537004 0.00101702722 0.001157204967 0.001189143004 0.001369548849)
5(0.001087501363 0.001076974661 0.001234061077 0.00128912102 0.001499253979)
5(0.001148024203 0.001144820236 0.001326225553 0.00140218045 0.001669619335)
5(0.001230231929 0.001228826342 0.001438308354 0.00153753267 0.001858293749)
5(0.001311584032 0.001320794855 0.001563964224 0.001699107751 0.002072062589)
5(0.00139896894 0.001426111935 0.001704997104 0.001892956538 0.002327180646)
5(0.001499994486 0.001542117279 0.001877536742 0.002118168869 0.002635586959)
5(0.001600634554 0.001669925682 0.002065426425 0.002379406412 0.002980106582)
5(0.001698136496 0.001827350452 0.002282409091 0.002681638826 0.003374308463)
5(0.001807633812 0.001992525877 0.002529907723 0.003016634102 0.003814361131)
5(0.001908256901 0.002168033856 0.002809433412 0.003396910741 0.004321895571)
5(0.00199542606 0.002369329279 0.003130728955 0.003833228544 0.004912442178)
5(0.00208852445 0.002583488261 0.00348027728 0.004335061181 0.005582484805)
5(0.002165496753 0.002820171021 0.003873799238 0.00490396825 0.006359736663)
5(0.002225135163 0.003068683538 0.004326927508 0.005564634559 0.007227247104)
5(0.002301422216 0.003334811907 0.004819451222 0.006324905403 0.008189591654)
5(0.00237291817 0.003637304467 0.005367576326 0.007193961416 0.009248861822)
5(0.002440892884 0.003961936253 0.006002952404 0.008176908636 0.01041544731)
5(0.00259585117 0.004308126702 0.006746035586 0.009266142706 0.01164696679)
5(0.002794097494 0.004752055928 0.007614165192 0.01044821816 0.01295581317)
5(0.003073813869 0.005297826961 0.008595746017 0.01171326152 0.01430211019)
5(0.00342400824 0.00599971985 0.009691186062 0.01307154482 0.01568574089)
5(0.00392621141 0.006876949403 0.01091406364 0.01449324489 0.01703585182)
5(0.004546074263 0.007910469532 0.0122667913 0.01593724781 0.01831425124)
5(0.005310396841 0.009101090487 0.01370617204 0.01735118983 0.01944963207)
5(0.006258636786 0.01042433586 0.01524761007 0.01867484803 0.0203842284)
5(0.007372330348 0.01186201487 0.01675697028 0.01985508434 0.02110603276)
5(0.008722206372 0.01341942881 0.0182082196 0.02082748898 0.0215955821)
5(0.01013094902 0.01495157611 0.01946157946 0.02151997421 0.02183718392)
5(0.01159947571 0.01632019552 0.02034367723 0.02189128496 0.02186706067)
5(0.01292704518 0.0172235293 0.02056086961 0.02179343397 0.02166394031)
5(0.01196688036 0.0156052917 0.01821137174 0.01978470165 0.0200504182)
)


60
(
5(4.460202372e-05 7.52820235e-05 0.0001382563663 0.0002312317146 0.0003365079828)
5(5.632929065e-05 9.394167032e-05 0.0001576604818 0.0002532561318 0.0003676409666)
5(6.880152561e-05 0.0001143049201 0.0001840202904 0.0002836262784 0.0004073271304)
5(8.247288128e-05 0.0001354306135 0.0002152898214 0.0003194134628 0.0004482806845)
5(9.990053988e-05 0.0001599110827 0.0002501746451 0.000358910347 0.0004928705384)
5(0.000120594035 0.0001887342535 0.0002875829332 0.0004002787092 0.0005351784801)
5(0.0001441859034 0.0002207332258 0.0003279973241 0.0004429334026 0.0005750681332)
5(0.0001713421167 0.0002552327173 0.0003695264282 0.0004847207 0.0006128437913)
5(0.000200697096 0.0002916087467 0.0004116648685 0.000524598734 0.0006459785124)
5(0.0002329180964 0.0003288127858 0.0004518929344 0.0005608370268 0.0006734611888)
5(0.000266333021 0.0003664601295 0.000490832617 0.0005932540553 0.0006952944134)
5(0.0003016962382 0.000403120047 0.0005262936685 0.000620704864 0.0007122405552)
5(0.0003365381683 0.0004384710599 0.0005589414682 0.0006441222123 0.0007248522325)
5(0.0003714227943 0.0004720477363 0.0005878385891 0.0006630239749 0.00073360669)
5(0.0004063729017 0.0005029622272 0.0006135403254 0.0006781750703 0.0007399097511)
5(0.000440996381 0.0005313964709 0.0006354794079 0.0006896235704 0.0007430183443)