/*--------------------------------*- C++ -*----------------------------------*\
| =========                 |                                                 |
| \\      /  F ield         | OpenFOAM: The Open Source CFD Toolbox           |
|  \\    /   O peration     | Version:  2.3.1                                 |
|   \\  /    A nd           | Web:      www.OpenFOAM.org                      |
|    \\/     M anipulation  |                                                 |
\*---------------------------------------------------------------------------*/
FoamFile
{
    version     2.0;
    format      ascii;
    class       dictionary;
    location    "constant";
    object      GRPSI4;
}
// * * * * * * * * * * * * * * * * * * * * * * * * * * * * * * * * * * * * * //

GRPSI4_table
60
(

60
(
5(-0.001135339484 -0.001341279421 -0.003017245077 -0.002715531012 -0.006528101599)
5(-0.0012561737 -0.0004726207669 -0.002243065246 -0.002208358617 -0.006639811936)
5(-0.0006885039584 0.0002626397229 -0.0006672834759 -0.001390703625 -0.001143731595)
5(0 1.637559167e-05 7.94253388e-05 -1.880941473e-05 0.00158696675)
5(0.0003494802332 -0.0001019198842 -0.0004560211659 0.0005494989894 -0.001010492747)
5(0.0003892153572 -9.097441424e-05 -0.0003735294222 -0.0002268689797 0.0003697528913)
5(-0.000118616543 -3.81349906e-05 0.0003146669679 -0.000136453677 -0.0003338356294)
5(3.775460021e-05 2.088530789e-05 0.0001236525272 0.0001518136973 -0.0006832149342)
5(0.0002261170723 5.310956883e-05 3.221578735e-05 -2.516613518e-05 0.0004727413887)
5(6.252736129e-05 3.644196069e-05 0.0001199753004 -3.271057738e-05 0.0001094006814)
5(-5.797785893e-05 2.812506765e-06 -8.952628859e-05 3.690874855e-05 -7.587525728e-05)
5(-0.0001947573125 1.06101339e-05 -9.609087745e-05 8.579217964e-05 -1.500548562e-05)
5(-5.901897007e-05 2.816348638e-05 8.177912536e-06 -6.992532442e-06 2.275648277e-05)
5(1.657119055e-05 1.977587518e-06 8.188135068e-07 -2.147458513e-05 -6.338522442e-05)
5(1.08307273e-06 1.534367341e-05 1.603400858e-05 8.639359997e-05 2.839434122e-05)
5(3.721608889e-05 3.185742069e-05 5.438671988e-05 4.308463692e-05 0.0001038303336)
5(6.599881723e-06 9.373313964e-06 2.442885747e-05 6.601233533e-05 0.0001156810994)
5(-1.825531228e-06 1.732219537e-05 2.720130354e-05 6.189446661e-05 7.82400582e-05)
5(2.303523106e-05 4.901320216e-05 6.538480711e-05 0.0001058153205 5.201521032e-05)
5(3.068394142e-05 3.58449136e-05 3.928727009e-05 0.0001052308393 4.064816422e-05)
5(2.166535777e-05 1.472071291e-05 3.564302666e-05 -8.161338092e-05 -4.335961926e-05)
5(4.608829332e-05 5.036848465e-05 6.732368883e-05 3.06398468e-05 8.800137935e-05)
5(4.205104016e-05 8.777853691e-05 6.656908069e-05 0.0001731002808 0.0001948146713)
5(4.259939612e-05 9.456242056e-05 0.0001058835372 0.0001516472959 0.0001566264849)
5(5.967017241e-05 8.355078519e-05 0.0001632657643 0.0002366196206 0.0001951973493)
5(6.449921646e-05 7.475232714e-05 0.0001233394713 0.0002439431963 0.0001839806882)
5(6.722675842e-05 7.871640709e-05 0.0001274150324 0.000219455919 0.0002052560994)
5(9.731360329e-05 0.0001259562719 0.0001626399058 0.0001876195587 0.0002346209776)
5(0.0001230588745 0.0001768515954 0.0001413136013 0.0001227224701 0.000221859795)
5(0.0001364333543 0.0002040878588 0.0002314786853 0.0002317673309 0.0002473305395)
5(0.0001562202922 0.0001921798426 0.0002229129821 0.0002101809751 1.671659584e-05)
5(0.0001566028926 0.0002107707436 0.0002304512517 0.0001677435833 0.0002713925716)
5(0.0001875768486 0.0002755116559 0.0003588600369 0.0002565084996 0.0002170648137)
5(0.0002296511689 0.000277989006 0.0003316596896 0.0002564474987 -8.114204393e-05)
5(0.0002519632498 0.0003444565297 0.0004633073278 0.0003271372312 0.0002402379795)
5(0.0002754166099 0.0002800316601 0.0002237999073 0.0001786460016 0.000302838696)
5(0.0003011640593 0.0003039726339 5.771296673e-05 0.0002199600108 -0.0005015341205)
5(0.0003496111137 0.0004035818065 0.0004260295363 0.0002759374382 0.0001762572293)
5(0.0004587866853 0.0003785959788 0.0005775461856 0.0002628638456 -0.002060888715)
5(0.0004623168781 0.0003112560017 0.000254346728 0.0001901854301 -0.002812092468)
5(0.0003556371111 0.0002576292116 2.304886037e-06 -0.0008594543211 8.435838879e-05)
5(0.0003618125936 0.0001928769318 4.529589059e-05 -0.002853469103 7.651117162e-05)
5(0.0004394422456 0.0002860101633 0.0008286795724 -0.001921742812 0.0003483193993)
5(0.0004638832581 0.0003037128228 0.0007021806326 0.0002051395268 0.0003160576051)
5(0.0002791189756 0.0002507416957 -0.0005655120516 0.0002698768639 0.000265318481)
5(0.0001202297941 0.0001049493171 -0.002409995767 0.0003652175767 0.0004759455521)
5(6.027418944e-05 -0.0007818034459 -0.002573087196 0.0004451686984 0.0006313512513)
5(6.357742298e-05 -0.0004676003021 -0.0004550846067 0.0005489393501 0.0007992123994)
5(5.681296416e-05 -0.001723291273 0.0003793233904 0.0006974461235 0.0009909346404)
5(-0.0002134448263 -0.001758531567 0.0005766070627 0.0008694478838 0.001222393511)
5(-0.001722988752 0.000449764499 0.0007203867595 0.001073034785 0.001499396832)
5(-0.001947661716 0.0005994942164 0.0008853642857 0.001307027429 0.001820674546)
5(-0.0002556585622 0.0007302130545 0.001083170915 0.001580157629 0.002207531817)
5(0.000486530764 0.0008833100132 0.001314860101 0.001903741414 0.002649387046)
5(0.0008233582012 0.001069137708 0.001584952094 0.002265737294 0.003138532635)
5(0.00127501915 0.00129606596 0.001906989423 0.002671620076 0.003628787333)
5(0.001535396095 0.001756006445 0.002303101255 0.003120419969 0.004118408626)
5(0.001495163134 0.002304806026 0.003057132579 0.002554940327 0.004622516649)
5(0.001521269297 0.002921950211 0.004546251207 0.007146063201 0.008651952368)
5(0.001579438851 0.003324587817 0.005502415957 0.01252883023 0.01243670123)
)


60
(
5(-0.0006392626551 0.0001027858429 -0.001998924861 -0.001448061995 -0.00468476898)
5(-0.0004616600303 0.0001050863894 -0.001435368064 -0.001035020743 -0.003404013441)
5(-0.0001458101985 0.0001219838441 -0.0004316867857 -0.0002875023431 -0.001157407338)
5(8.562652998e-05 0.0001540934072 0.0002247883398 0.0002098811444 0.0003423729393)
5(0.0002070555804 0.0001744208779 0.0004429765847 0.0003863786216 0.0009329595389)
5(0.0001965545868 0.0001657204991 0.000346009847 0.0003442454943 0.000733506329)
5(0.0001221872664 0.0001428461702 0.0001888394946 0.0002386162543 0.0003059005051)
5(7.885799846e-05 0.0001285086495 0.0001143720902 0.0001753646355 0.0001064044851)
5(8.363058023e-05 0.0001334964292 0.0001212125325 0.0001851910768 0.0001449974107)
5(0.0001049627602 0.0001489028718 0.0001713819021 0.0002287289972 0.0002703166183)
5(0.00012179878 0.00016019977 0.0002153917268 0.0002587997555 0.0003518763052)
5(0.0001313315194 0.0001688826877 0.0002341017138 0.0002739276613 0.0003612235954)
5(0.0001339696933 0.0001779796958 0.0002358551104 0.0002877025991 0.0003446145831)
5(0.0001386229592 0.0001877007872 0.0002406557021 0.0002998330868 0.0003485886309)
5(0.0001487083074 0.00020235405 0.0002585131598 0.000316246775 0.0003717909874)
5(0.0001625923321 0.0002209719072 0.0002855862963 0.0003462038531 0.0004086982575)
5(0.0001780882252 0.000241442466 0.0003127980414 0.0003794800042 0.0004481551696)
5(0.0001958810772 0.0002635702031 0.0003403218329 0.000416199599 0.0004885995076)
5(0.0002155825328 0.0002901096571 0.0003720611625 0.0004591927196 0.0005390156414)
5(0.0002387461472 0.0003225272827 0.0004103451763 0.0005039197418 0.0005886405195)
5(0.0002657524937 0.000358052343 0.0004531414197 0.0005530037436 0.0006411249842)
5(0.0002947550749 0.0003977019368 0.0005024254729 0.0006053935019 0.0007114047954)
5(0.0003312151718 0.0004450927995 0.0005615065697 0.0006632598562 0.0007827099931)
5(0.0003751892618 0.0004992815047 0.0006256194847 0.0007401629432 0.0008614896836)
5(0.0004233553704 0.0005596389128 0.0007028470174 0.0008331351183 0.0009532451052)
5(0.0004796827088 0.0006267855288 0.0007869583069 0.0009284217083 0.001044635634)
5(0.0005431720828 0.0007053763341 0.0008712701384 0.001020565603 0.001132182437)
5(0.0006167246721 0.000794941334 0.00096971965 0.001113214575 0.001234500102)
5(0.0007008950182 0.0008886816595 0.001076430947 0.001214360694 0.0013308292)
5(0.0007955529629 0.000992237945 0.001187948029 0.001321440114 0.001419683245)
5(0.0009017747499 0.001107279505 0.00130355762 0.001429010532 0.00150448048)
5(0.001017141466 0.001228988834 0.001425433675 0.001530544338 0.0015668546)
5(0.001143845339 0.001357900472 0.001551310554 0.001622978693 0.001604761037)
5(0.001282955824 0.001494749803 0.001674529439 0.001704660069 0.001621357376)
5(0.001436887341 0.001633811793 0.001794866914 0.001770805 0.001624904106)
5(0.001595377199 0.001769100708 0.00190287706 0.001808566967 0.00162133689)
5(0.001758547718 0.001899489701 0.001985750986 0.001824361454 0.001601678648)
5(0.001927614354 0.002014470785 0.002041076469 0.001819160241 0.001464299008)
5(0.002083571416 0.002117284534 0.002064448757 0.001753882634 0.001123864837)
5(0.002224091399 0.002186062571 0.002035138895 0.001612371309 0.0005924892503)
5(0.002326471784 0.002220604363 0.001981076045 0.001358141355 2.471433564e-05)
5(0.00240950967 0.00219412163 0.001897147322 0.0009488296626 -0.0004204314825)
5(0.002451668413 0.002068783523 0.001750709825 0.0004202837396 -0.0006856621093)
5(0.002393811469 0.00192276785 0.001493410059 -0.0001248603618 -0.0008517077274)
5(0.002246638703 0.001746053102 0.001046520084 -0.0005693470179 -0.001015143868)
5(0.002008640933 0.001488001605 0.0004172198723 -0.0008562659366 -0.001132325024)
5(0.001695357284 0.001104980108 -0.0002549398197 -0.001016124272 -0.001157474306)
5(0.001311626175 0.0005494404597 -0.000808745049 -0.001105061302 -0.001059296718)
5(0.0008281396878 -0.0001627199566 -0.001190916042 -0.001129606057 -0.0008334950633)
5(0.0002455134812 -0.0009024110571 -0.001407835764 -0.001055399473 -0.0005225212275)
5(-0.0004546298618 -0.001472049859 -0.001487850068 -0.0008610404995 -0.0001403711492)
5(-0.001243319937 -0.00178408615 -0.00143972463 -0.0005830478315 0.000283666914)
5(-0.001991967551 -0.001887459823 -0.001287484817 -0.0002552812886 0.000767346314)
5(-0.002573457409 -0.001843886019 -0.001053458275 0.0001666082442 0.001331564005)
5(-0.002892158493 -0.001716065515 -0.0007600594608 0.0006574247935 0.001958468144)
5(-0.002965986436 -0.001558594328 -0.0004211404174 0.001165633866 0.002645800696)
5(-0.002845575236 -0.00133740481 -5.055015654e-05 0.001712424391 0.003375759215)
5(-0.002566158208 -0.001095626844 0.0002828328273 0.002287198529 0.004166916859)
5(-0.002541473362 -0.001062561981 -0.0001874483849 0.002745070401 0.004989747169)
5(-0.002687426062 -0.001138039391 -0.0008058810756 0.002913057409 0.005398267006)
)


60
(
5(-0.0003033642703 0.0004988773787 -0.001417146514 -0.0009153713981 -0.003709398738)
5(-0.0001946278372 0.0004299262724 -0.0009913239068 -0.000608091805 -0.00259230511)
5(1.053244461e-05 0.0003206452769 -0.0001805708992 -2.010362523e-05 -0.0006775460712)
5(0.0001886351952 0.0002820813667 0.0003832562469 0.0003980758282 0.0005627053809)
5(0.0002940823125 0.0002859522007 0.0005627251826 0.0005419877079 0.001044852753)
5(0.000278886394 0.0002730598998 0.0004762664979 0.000489853883 0.0008582423543)
5(0.0002056501234 0.000248490962 0.0003238829745 0.000383467754 0.0004789784951)
5(0.0001648016995 0.000237991249 0.0002445425235 0.0003277939561 0.0003000962652)
5(0.000169419915 0.0002426569378 0.0002519985139 0.0003391133281 0.000343945968)
5(0.0001910751323 0.0002559414797 0.0003028635415 0.0003807048894 0.0004559685022)
5(0.0002098688751 0.0002698666775 0.000347957198 0.0004152947512 0.0005183919798)
5(0.0002222972269 0.0002835965939 0.0003701134079 0.0004350613348 0.0005364957495)
5(0.0002291555588 0.0002981357538 0.000380090612 0.0004502454399 0.0005333217895)
5(0.0002385601894 0.0003138019763 0.0003934307903 0.0004686453 0.000544600829)
5(0.0002537723458 0.0003336020422 0.0004165275225 0.0004970127839 0.0005770503475)
5(0.0002734496364 0.0003573850016 0.0004486717866 0.0005363257486 0.0006248854953)
5(0.0002957497894 0.0003860408729 0.0004854835733 0.0005808469004 0.0006747242871)
5(0.0003208455203 0.0004195491597 0.0005265478972 0.0006293680965 0.0007306877325)
5(0.0003499621554 0.0004568177492 0.0005720945091 0.0006858348611 0.0007972635807)
5(0.0003815624862 0.0005004618135 0.0006227677832 0.00074752499 0.0008702797823)
5(0.0004213946983 0.0005507641343 0.0006819104809 0.0008131840048 0.0009494714828)
5(0.0004652932926 0.0006069769625 0.0007520890743 0.0008921877653 0.001036255921)
5(0.0005157509737 0.000671007777 0.0008333596275 0.0009814284508 0.001137653698)
5(0.0005748611966 0.0007442697838 0.0009225337626 0.001081542377 0.001248902678)
5(0.000642322622 0.0008276027294 0.001021126017 0.001199318177 0.001366032455)
5(0.0007212812545 0.000920908889 0.00112990016 0.001324349409 0.001499482656)
5(0.0008072049151 0.001028370474 0.001252984105 0.001456152938 0.001632619211)
5(0.0009084022844 0.001145848198 0.001386038597 0.001590989367 0.001773522949)
5(0.001022734287 0.001273039102 0.001530990482 0.001735352371 0.001921291291)
5(0.001147257283 0.001418908059 0.001688133709 0.001889539022 0.002059712402)
5(0.00128690938 0.001573649995 0.001849384725 0.002044100567 0.002198997208)
5(0.001444027142 0.001735636249 0.002023684067 0.002205055667 0.002316477444)
5(0.001616388568 0.001918045594 0.002206314341 0.002360935435 0.002423055371)
5(0.001799922618 0.002109367082 0.002383862737 0.002504492456 0.002508586047)
5(0.001990459932 0.002301786371 0.002567477178 0.002637847407 0.002578947043)
5(0.002215214965 0.00249816619 0.002746510075 0.002755502292 0.00264751693)
5(0.002436189726 0.00269660713 0.002901911382 0.002849164328 0.002678100989)
5(0.002654932298 0.00289107856 0.00303202545 0.002905347141 0.002587095162)
5(0.002880705218 0.00305971527 0.00313150891 0.002904381577 0.00231079957)
5(0.003067406747 0.003201560569 0.003198630911 0.002827327365 0.001855634548)
5(0.003266584251 0.003315121367 0.003212959713 0.002637004635 0.001331682495)
5(0.003417593171 0.003364720238 0.003170986384 0.002281140148 0.0008545028613)
5(0.003495589333 0.003330044249 0.003060615567 0.001768003872 0.000450747989)
5(0.003516325717 0.00321320721 0.002809846626 0.001187497138 0.0001061929135)
5(0.003443326068 0.003042161389 0.002368908943 0.0006303847901 -0.0002475940719)
5(0.003255867825 0.002795080776 0.001728652653 0.0001551649098 -0.0006150060216)
5(0.002947922564 0.002377679537 0.0009640240597 -0.0002494822138 -0.0009252254641)
5(0.002535117769 0.0017368876 0.0002150146238 -0.000626388344 -0.001120901145)
5(0.002015103934 0.0009191556087 -0.0004314975686 -0.000952914427 -0.001169175635)
5(0.00135724632 1.746679598e-05 -0.0009592766353 -0.001182625596 -0.001067628927)
5(0.0005363135079 -0.0008256423921 -0.001374933259 -0.00128952587 -0.0008755514219)
5(-0.0004338058179 -0.001485631535 -0.001682320734 -0.001264898238 -0.0006032391146)
5(-0.001455284889 -0.001952885975 -0.001858840676 -0.001114785943 -0.0002064330671)
5(-0.002373200024 -0.002287868788 -0.001892791174 -0.0008386480294 0.0003129212062)
5(-0.00309357385 -0.002504807656 -0.001803534862 -0.0004582634192 0.0009283733443)
5(-0.003568381908 -0.002578588421 -0.00160903688 6.208045471e-06 0.001616861081)
5(-0.003785782259 -0.002546681461 -0.001347499314 0.0005525533867 0.002368439278)
5(-0.003815383153 -0.002452501385 -0.001053075285 0.001106246541 0.003156774964)
5(-0.004516188011 -0.002946619736 -0.001948532646 0.001109160641 0.003694305587)
5(-0.005229764536 -0.003499054352 -0.002996583105 0.0008494465037 0.003834999155)
)


60
(
5(1.410838073e-05 0.0008684295657 -0.0009672489725 -0.0004998192354 -0.002929160471)
5(5.638465297e-05 0.0007349478585 -0.0006100541407 -0.0002513052341 -0.001956982741)
5(0.0001579066552 0.0005112349626 6.954575606e-05 0.0002245864514 -0.0002981372196)
5(0.0002881101939 0.0004053849397 0.0005357028202 0.0005625128909 0.0007563761609)
5(0.0003805419347 0.0003892966241 0.0006727758812 0.0006747210539 0.001156485287)
5(0.0003612652349 0.0003740651018 0.0005854144848 0.0006161536975 0.0009781768098)
5(0.0002861415751 0.000347773414 0.0004420236933 0.00051105292 0.0006267596576)
5(0.0002448116866 0.0003343075269 0.00036428532 0.0004592732658 0.0004613262382)
5(0.0002492125369 0.000339136218 0.0003694011593 0.0004699911876 0.0004954728676)
5(0.0002719010818 0.0003532297669 0.0004159771993 0.0005065859403 0.0005945496602)
5(0.000291142407 0.0003684535201 0.0004592933488 0.0005388173675 0.000656809641)
5(0.0003041374988 0.0003833674494 0.0004841024738 0.000562648871 0.0006786201109)
5(0.0003141348117 0.0003990788997 0.0004983815956 0.0005833517088 0.0006760849141)
5(0.0003272780734 0.0004182892332 0.0005164921091 0.000605537517 0.0006954978436)
5(0.0003457749174 0.0004426224015 0.0005454984504 0.000637259898 0.0007369386977)
5(0.0003686007511 0.0004720669682 0.0005822845626 0.0006820654101 0.0007876788721)
5(0.0003960307857 0.0005054240693 0.0006230483474 0.0007320004071 0.0008497732877)
5(0.0004269130769 0.0005445847753 0.0006705175027 0.0007901297344 0.0009126867139)
5(0.0004604892266 0.0005889342806 0.0007240098602 0.0008568299332 0.000988191506)
5(0.0005001628406 0.0006391001831 0.0007863273372 0.0009306623989 0.001074478497)
5(0.0005481559295 0.0006994353007 0.0008580042457 0.001010581611 0.001166441573)
5(0.0006011162952 0.0007662904752 0.0009374342878 0.001101569556 0.001272350996)
5(0.0006590844805 0.0008397245737 0.001028104116 0.001208698398 0.001391900167)
5(0.0007302932284 0.0009258157217 0.00113562821 0.001326645879 0.001532860473)
5(0.0008108709821 0.001026285614 0.001256380067 0.001460640189 0.001675241439)
5(0.0009006527956 0.001136767005 0.001384879291 0.001609686043 0.001819524492)
5(0.001002854284 0.00125815382 0.001526786733 0.00176669445 0.001993616797)
5(0.001120994205 0.001395852327 0.001683769 0.001929920131 0.002157816397)
5(0.001254480713 0.001547782013 0.001855514105 0.002108140262 0.002343177097)
5(0.001398342865 0.001714170689 0.002039139499 0.002297389209 0.002533062668)
5(0.001561291347 0.001896063126 0.002232383231 0.00249183438 0.002712932795)
5(0.001743251712 0.002092291348 0.002446719131 0.002694323539 0.002894527781)
5(0.001936410581 0.002303868598 0.002671475689 0.002898466945 0.003055498819)
5(0.00215087419 0.002529052956 0.002893741354 0.003101255906 0.003200607734)
5(0.002381812278 0.002764470886 0.003121720914 0.003300835301 0.003340590505)
5(0.002622323294 0.003005133221 0.003349557331 0.003486128789 0.003482154141)
5(0.002885121375 0.003250693762 0.003576671375 0.003647521288 0.003571834645)
5(0.003147799392 0.003496697278 0.003789601809 0.00377828308 0.003576425433)
5(0.003404727314 0.003731119872 0.003970558414 0.003863690782 0.003397507873)
5(0.003670914372 0.003951334708 0.00411085522 0.003879172851 0.00305053232)
5(0.003899685282 0.004138111246 0.004203424046 0.003779224195 0.002640554067)
5(0.004100027936 0.004263992792 0.004245217249 0.003519687992 0.00219519117)
5(0.004260643705 0.004317259894 0.004212537537 0.003096320539 0.001790650049)
5(0.004350247804 0.004295518738 0.004041726644 0.002572084229 0.001405851342)
5(0.004345523069 0.004188468947 0.003662571258 0.002023315441 0.0009554827922)
5(0.004217214297 0.003974493382 0.003075515969 0.001488937588 0.0004322238724)
5(0.003987135669 0.003622147695 0.00233470426 0.0009693449032 -9.160649339e-05)
5(0.003629334394 0.003057420095 0.001554409565 0.0004324249024 -0.0005238129478)
5(0.003179176779 0.002247865378 0.0008116260036 -0.0001199813037 -0.0008423603589)
5(0.002578560753 0.001297559042 8.171304569e-05 -0.0006398390698 -0.001030199591)
5(0.001774689805 0.0003582233349 -0.0006171922895 -0.001053735775 -0.001090563107)
5(0.0008419126993 -0.0004965756404 -0.001239589126 -0.001341526035 -0.001033525326)
5(-0.000224294102 -0.001270255585 -0.001758559771 -0.001484971987 -0.0008423361096)
5(-0.001334865755 -0.001967548294 -0.002135106492 -0.001453916739 -0.0004814347723)
5(-0.002370712153 -0.002549591741 -0.002354995079 -0.001263224444 4.466486393e-05)
5(-0.003260386982 -0.002983919677 -0.002410562547 -0.000937669537 0.0006541207973)
5(-0.003975156364 -0.00326610685 -0.00232690607 -0.0005211415796 0.001337471341)
5(-0.004530561132 -0.003448136883 -0.002178850315 -4.671690267e-05 0.00210540851)
5(-0.006038149706 -0.004923850188 -0.003455414249 -0.000244145894 0.002310115478)
5(-0.007311662289 -0.006319028438 -0.004814201299 -0.000690593779 0.002117037963)
)


60
(
5(0.0003240550899 0.001224573197 -0.0005572015642 -0.0001311236475 -0.002253454338)
5(0.0003014946743 0.001029287867 -0.0002602282874 6.765480082e-05 -0.001409717331)
5(0.000301438029 0.0006943659255 0.0003006402177 0.0004457399933 2.383053413e-05)
5(0.0003847861895 0.0005228292703 0.0006789557588 0.0007111468538 0.0009284132628)
5(0.0004648625384 0.0004881487111 0.0007776909882 0.0007921523705 0.001262639662)
5(0.0004408401652 0.0004681076389 0.0006848747673 0.0007285040077 0.001082493497)
5(0.0003627294671 0.0004387465754 0.0005469269006 0.0006266277495 0.0007517833651)
5(0.0003211348074 0.0004242793606 0.0004701137252 0.0005729198482 0.0005954701736)
5(0.0003247472274 0.0004263112817 0.0004723938349 0.0005788081735 0.0006211755626)
5(0.0003464680936 0.0004399318705 0.000516075691 0.0006138176657 0.0007119159513)
5(0.0003660757248 0.0004559135057 0.0005581969163 0.0006469770074 0.0007707864505)
5(0.0003801358416 0.0004705660583 0.0005840083932 0.000669729351 0.0007899979007)
5(0.0003908798541 0.0004889521743 0.0005992300027 0.0006900202373 0.0007961484977)
5(0.0004057288101 0.0005107388579 0.0006180787483 0.0007167276084 0.0008159291129)
5(0.00042731731 0.0005368060113 0.0006480548268 0.0007527954122 0.0008563039788)
5(0.0004533121806 0.0005678979366 0.000689833807 0.0007986140906 0.0009170524327)
5(0.0004830731112 0.0006046493678 0.0007384692218 0.0008510229057 0.0009824762113)
5(0.0005170927659 0.0006481404022 0.0007884399393 0.0009178917389 0.001053422574)
5(0.0005559029547 0.0006966833398 0.0008465821338 0.0009923351045 0.00113569328)
5(0.0006000102 0.0007525016578 0.0009159152447 0.001070067814 0.001231042078)
5(0.0006521149146 0.0008176551608 0.0009934939226 0.001160252618 0.001333638364)
5(0.0007096156683 0.0008907899297 0.001081279712 0.001259595769 0.001450240273)
5(0.0007763346881 0.0009740115314 0.001183551898 0.00137292009 0.001588786114)
5(0.000856367793 0.001068755274 0.00130020293 0.001506977882 0.001734336778)
5(0.000941948103 0.001173553989 0.001429042903 0.001657595772 0.001891563565)
5(0.001041716596 0.001295838307 0.001570722545 0.001819471383 0.002072011532)
5(0.001157476308 0.001431511295 0.0017277426 0.001992890002 0.002260212581)
5(0.001286558927 0.001577545065 0.001900884676 0.002179679845 0.002452266257)
5(0.001424275682 0.00174357773 0.002089162922 0.002378728029 0.002657699206)
5(0.001582236051 0.00192878716 0.0022923329 0.002591235813 0.002874052993)
5(0.001766132299 0.002128970766 0.002511546946 0.002817180777 0.003091591217)
5(0.001957152972 0.002344008665 0.002748252337 0.003053697233 0.003320524248)
5(0.002165501032 0.002573903951 0.003000315145 0.003296069778 0.003539987453)
5(0.002396037039 0.002822001542 0.00326024437 0.00354133031 0.003736901382)
5(0.002647917561 0.003087263122 0.003528896774 0.00378670739 0.003938417907)
5(0.002919905494 0.003359916613 0.00380340492 0.00402561038 0.004140082073)
5(0.003195747966 0.00364253615 0.004076070507 0.004255855472 0.004313754091)
5(0.003485068206 0.00393594034 0.0043423562 0.004465525632 0.004405362037)
5(0.003783540956 0.004222156161 0.004588575169 0.004637308555 0.004349767243)
5(0.004071125778 0.004490618251 0.004807631686 0.004747542701 0.004131194754)
5(0.00434423862 0.004731383411 0.004992308715 0.004752428877 0.003810670653)
5(0.004586352583 0.004929750506 0.005124574027 0.004613137282 0.003495395772)
5(0.004772144273 0.005073704146 0.005186029713 0.004317202086 0.003186314245)
5(0.004895872495 0.0051417796 0.005123075789 0.003907196439 0.002809121479)
5(0.004960279267 0.005126606366 0.004869886139 0.003444483372 0.002341147067)
5(0.004898767855 0.005011557976 0.004398388082 0.002949800061 0.001790798155)
5(0.004729595509 0.004740053495 0.003753096828 0.002416252365 0.001197862756)
5(0.004466713505 0.004255164711 0.003026987769 0.001830835039 0.0006120245518)
5(0.004082297889 0.003543067479 0.002278282373 0.001166568901 8.349270216e-05)
5(0.003587420202 0.00269076232 0.001499210917 0.0004658607299 -0.0003704070561)
5(0.002933671156 0.001808957311 0.0006766761729 -0.0001923195406 -0.0007346352108)
5(0.002118787163 0.0009331390177 -0.0001514818207 -0.0007665258101 -0.0009568056672)
5(0.001173417744 5.707135273e-05 -0.0009376355224 -0.001213392138 -0.001031820244)
5(0.000165045139 -0.0008245306914 -0.001649824355 -0.001507241854 -0.000923739863)
5(-0.000929071477 -0.001706952127 -0.002238735781 -0.001636139563 -0.0006044401228)
5(-0.002043984919 -0.002546182898 -0.002656392106 -0.001579499238 -0.0001592561785)
5(-0.00311546056 -0.003281327412 -0.002903447054 -0.00134087326 0.0004123396539)
5(-0.004311803416 -0.003997670702 -0.003025823648 -0.0009885875414 0.001104889048)
5(-0.007007992094 -0.006181497328 -0.005190144196 -0.001984744344 0.0005705619667)
5(-0.009053590522 -0.007986363736 -0.00731558857 -0.003173646927 -0.0003279812851)
)


60
(
5(0.0006288138029 0.001567949862 -0.0001769608366 0.0002057179343 -0.001655059328)
5(0.0005419645547 0.001312318253 6.529687664e-05 0.0003590853184 -0.000925506517)
5(0.0004419062406 0.0008721438019 0.0005189722331 0.000649070172 0.0003085285306)
5(0.0004795681153 0.0006381306713 0.000815754688 0.0008488796555 0.001081037768)
5(0.0005468720875 0.0005814768697 0.0008764332154 0.0008995200214 0.001358991193)
5(0.0005181826421 0.0005556309358 0.0007758385242 0.0008287940191 0.001177052495)
5(0.0004366566147 0.0005240208024 0.0006421215336 0.0007274300905 0.000859733732)
5(0.0003935552778 0.000507374165 0.0005661705848 0.0006732607365 0.0007081187083)
5(0.0003963162553 0.000508333987 0.000565148375 0.0006756889682 0.0007298108132)
5(0.0004166720701 0.0005195288275 0.0006048156369 0.0007067158889 0.0008111149815)
5(0.0004356865479 0.0005344371917 0.0006446263886 0.0007376893243 0.0008655932281)
5(0.0004500922057 0.0005504276497 0.0006702211777 0.0007605182658 0.0008844467428)
5(0.0004629715902 0.0005681295465 0.0006868991556 0.0007818558151 0.0008927234002)
5(0.000478665457 0.0005908497579 0.0007081875135 0.0008097582678 0.0009163496883)
5(0.0005003592064 0.0006186546838 0.0007400450892 0.0008477934537 0.0009608603142)
5(0.0005283437404 0.000652299746 0.0007819828886 0.0008954547774 0.001020525865)
5(0.000560883878 0.0006908108545 0.0008305137366 0.0009533137621 0.001087214754)
5(0.0005978229467 0.000735581456 0.0008859559159 0.001020418774 0.001167237935)
5(0.0006392700648 0.0007879105127 0.0009484034692 0.001096226937 0.001252486078)
5(0.0006874376216 0.000847079477 0.001019876937 0.001181845132 0.001352270024)
5(0.0007414482799 0.000915489465 0.001103511969 0.001275352052 0.001465532932)
5(0.0008034030376 0.0009933849771 0.001197104486 0.001381265289 0.001591140533)
5(0.0008765714954 0.001080561212 0.001303978997 0.001503973655 0.001733938616)
5(0.0009592351101 0.001179940026 0.001426874944 0.001644602935 0.00189235111)
5(0.001051330048 0.001293094548 0.001562151512 0.001803437651 0.002062636641)
5(0.00115657799 0.00141950172 0.001711888379 0.001976741991 0.002247867761)
5(0.001277111822 0.001561377564 0.001879544673 0.002160409501 0.002447724271)
5(0.001414320963 0.001720217587 0.002063693686 0.002359194361 0.002666724823)
5(0.001563692436 0.001895612828 0.002262694482 0.002576671163 0.002900538422)
5(0.00173163199 0.00208635704 0.002479266796 0.002807550349 0.003137063955)
5(0.001917746421 0.002295232138 0.00271696265 0.003053230746 0.003385811607)
5(0.002119132233 0.002526764787 0.00297077957 0.003314651496 0.00364180728)
5(0.002343511106 0.00277499325 0.003238034008 0.003587130147 0.003893587583)
5(0.002586069625 0.003036629221 0.003519705213 0.003866682131 0.004148470123)
5(0.002852374414 0.003315867261 0.003816649109 0.004149386326 0.004401736187)
5(0.003125911462 0.003612813688 0.004127785768 0.004435883821 0.004656185684)
5(0.003420696282 0.003925545932 0.004441108549 0.004721980958 0.004904761835)
5(0.003729062912 0.004246090091 0.004752144525 0.004994713338 0.005078966115)
5(0.004037864709 0.004562634907 0.005056627512 0.005237296458 0.00512923529)
5(0.004346846373 0.004872805784 0.005337971281 0.005434486101 0.00501262725)
5(0.004632051264 0.00516387022 0.005593293866 0.00554606648 0.004851308044)
5(0.0048888735 0.005415675378 0.005812857255 0.005523635465 0.004667035657)
5(0.005095105764 0.005618123387 0.005973346477 0.005362557992 0.004448277053)
5(0.005239252 0.005751511403 0.006015723276 0.005097236014 0.004178092154)
5(0.005316919989 0.005800628646 0.005875091505 0.004763904884 0.003792526458)
5(0.005276240148 0.005748280807 0.00553018158 0.004377714823 0.003302745923)
5(0.005185785625 0.005547181341 0.005013697275 0.003917243422 0.002682552405)
5(0.00501179089 0.005148830537 0.00442169878 0.003360726964 0.002049635613)
5(0.004676962248 0.004551809001 0.003769378084 0.002709044674 0.001431343171)
5(0.004307583257 0.003843838404 0.003036901329 0.00196457162 0.0008005427722)
5(0.003793765388 0.003089483661 0.002240987277 0.001179615583 0.0002203768976)
5(0.003115297823 0.002353394199 0.001373827506 0.0004109236254 -0.0002796967902)
5(0.002300095832 0.001582540858 0.0004798285838 -0.0003166247601 -0.0006748213857)
5(0.00142063312 0.0007066135164 -0.0004182349478 -0.0009240530095 -0.0008726648798)
5(0.0004391747231 -0.0002303248158 -0.001300735423 -0.001369391387 -0.0008519976271)
5(-0.0006059349212 -0.001292547966 -0.002144717898 -0.001653290956 -0.000653919395)
5(-0.001774780763 -0.002378091074 -0.002861822366 -0.001737960924 -0.0002576120377)
5(-0.003289396449 -0.003665667553 -0.003548292486 -0.001696371338 0.0003011982345)
5(-0.007530732984 -0.007475907562 -0.006686539406 -0.003467076962 -0.0006967845084)
5(-0.01095362442 -0.01050807727 -0.009437575351 -0.005267801367 -0.001999474761)
)


60
(