/*--------------------------------*- C++ -*----------------------------------*\
| =========                 |                                                 |
| \\      /  F ield         | OpenFOAM: The Open Source CFD Toolbox           |
|  \\    /   O peration     | Version:  2.3.1                                 |
|   \\  /    A nd           | Web:      www.OpenFOAM.org                      |
|    \\/     M anipulation  |                                                 |
\*---------------------------------------------------------------------------*/
FoamFile
{
    version     2.0;
    format      ascii;
    class       dictionary;
    location    "constant";
    object      GRPSI17;
}
// * * * * * * * * * * * * * * * * * * * * * * * * * * * * * * * * * * * * * //

GRPSI17_table
60
(

60
(
5(-9.481765038e-09 -4.60080948e-09 -1.236085204e-08 -6.825392566e-09 -1.11772224e-08)
5(-7.657786113e-09 -1.871375285e-09 -8.648145916e-09 -5.203380747e-09 -9.180848599e-09)
5(-2.916903594e-09 5.863442786e-10 -2.538470898e-09 -2.540525206e-09 -2.808535323e-09)
5(0 3.427757172e-11 1.545927372e-10 -7.051029346e-11 5.258853197e-10)
5(4.727484329e-10 -2.560539642e-10 -5.267525666e-10 8.274041846e-10 -2.321078996e-10)
5(1.017529056e-09 -2.496373393e-10 -5.404064325e-10 -1.757153855e-10 6.998229421e-10)
5(-7.181118426e-11 -1.650399536e-10 5.202712891e-10 -2.487933588e-10 -2.816926512e-10)
5(-4.035940067e-10 -6.64575899e-11 -4.550255236e-11 1.771044196e-11 -7.993600266e-10)
5(6.507219632e-11 -6.710769834e-12 -3.100714348e-10 -2.000089375e-10 1.049480142e-10)
5(-1.067474126e-10 -4.1898225e-11 -6.267870663e-11 -2.019154497e-10 -1.155711148e-10)
5(6.307500646e-11 -2.205345294e-10 -2.595232378e-10 -1.404856642e-10 -1.572768604e-10)
5(-2.622189074e-10 -2.370077862e-10 -2.493170748e-10 -1.272465941e-10 -1.546618352e-10)
5(-3.015140459e-10 -1.239956893e-10 -1.637900285e-10 -1.233286464e-10 -1.216783343e-10)
5(-9.632942498e-11 -1.055509131e-10 -1.303120536e-10 -1.00446849e-10 -9.044845222e-11)
5(-8.33048714e-11 4.742021043e-11 -6.973099065e-11 -2.215574976e-11 -4.136259746e-11)
5(-2.505033876e-11 5.045719083e-11 -2.474814475e-11 -2.651458547e-11 -2.44111019e-11)
5(-5.110882475e-11 -9.645474336e-11 -5.84126828e-11 -4.38775085e-11 -2.064201534e-11)
5(-5.472099503e-11 -9.582697928e-11 -5.20669732e-11 -2.463973753e-11 -1.062195772e-11)
5(-2.942253063e-11 -7.410461236e-11 -1.714282642e-11 -9.954363501e-12 -8.166492878e-12)
5(-1.281301589e-11 -3.403890359e-11 -1.397399519e-11 -6.644338307e-12 -9.682029458e-12)
5(-1.193743944e-11 -1.157645875e-11 -1.047487863e-11 -1.244501312e-11 -8.740997776e-12)
5(-4.471986968e-12 -4.670585144e-12 -4.667600294e-12 -5.328318999e-12 -2.617084956e-12)
5(-2.836827798e-12 1.93187394e-12 -3.139430444e-12 2.462569603e-12 1.051296225e-12)
5(-3.914643406e-13 6.334432728e-12 2.173723569e-12 3.57778873e-12 1.68084217e-12)
5(4.872615489e-12 1.07051931e-11 9.369460113e-12 9.52770773e-12 4.198249482e-12)
5(8.068878595e-12 1.150811087e-11 1.059666571e-11 1.371757304e-11 6.288026906e-12)
5(1.27495684e-11 1.142142661e-11 1.643946007e-11 1.803302365e-11 9.637673136e-12)
5(2.438220151e-11 2.506546576e-11 2.579935531e-11 2.297197601e-11 1.444109927e-11)
5(3.777277535e-11 4.614895046e-11 3.389399376e-11 2.668372948e-11 1.877445758e-11)
5(5.464830344e-11 6.733108555e-11 5.746584945e-11 4.539476494e-11 2.636808969e-11)
5(7.869417663e-11 8.740776067e-11 7.352717772e-11 5.375428937e-11 1.933016532e-11)
5(1.063877834e-10 1.225950071e-10 1.006372096e-10 6.578974579e-11 4.337657904e-11)
5(1.544438173e-10 1.803589557e-10 1.576908792e-10 8.952767995e-11 3.655418085e-11)
5(2.213550233e-10 2.28202674e-10 1.886641404e-10 1.04153404e-10 1.602161843e-11)
5(2.957687204e-10 3.175351708e-10 2.803336821e-10 1.268239086e-10 4.025684328e-11)
5(3.824869155e-10 3.282125569e-10 2.026737522e-10 8.163837129e-11 3.381703929e-11)
5(4.720593399e-10 3.872445754e-10 1.355448878e-10 7.004241131e-11 -6.998628991e-11)
5(5.731212476e-10 4.459519136e-10 2.631919625e-10 3.524955376e-11 -2.064866376e-11)
5(7.129752655e-10 3.878499472e-10 2.79231536e-10 -3.137084593e-11 -7.612672434e-11)
5(6.840767897e-10 2.091341637e-10 -2.471019155e-11 -9.480437967e-11 -1.385608872e-10)
5(4.291971773e-10 -1.764773497e-11 -2.96498684e-10 -1.993480344e-10 -6.720908177e-13)
5(1.986043431e-10 -2.775158893e-10 -3.629678975e-10 -3.062784291e-10 -1.118402768e-12)
5(-2.694865346e-11 -4.037221693e-10 -1.328712083e-10 -1.924913823e-10 4.166799112e-12)
5(-3.443044385e-10 -4.917896989e-10 -1.821426664e-10 1.759211149e-23 3.681182727e-13)
5(-7.846825137e-10 -5.701146181e-10 -5.043518524e-10 4.388407639e-23 -4.166799112e-12)
5(-1.0177164e-09 -4.887550563e-10 -2.976002661e-10 9.106511637e-13 -3.681182723e-13)
5(-7.915356013e-10 -4.472186222e-10 -8.797073981e-11 2.340577015e-22 6.536580756e-22)
5(-6.807900942e-10 -2.15010838e-10 -2.462859577e-11 -9.106511631e-13 1.442959613e-21)
5(-5.441266679e-10 -3.721043335e-11 -5.31422041e-12 1.099045204e-21 3.059585691e-21)
5(-2.249185388e-10 -1.626764622e-11 -5.656644461e-13 2.323019159e-21 6.353379531e-21)
5(-9.31324429e-11 -3.118662099e-13 1.416944829e-21 4.754638909e-21 1.286257842e-20)
5(-3.652549326e-11 8.857237007e-22 2.88215829e-21 9.470773965e-21 2.532716587e-20)
5(-7.067488587e-12 1.764235968e-21 5.753769087e-21 1.838085211e-20 4.918012852e-20)
5(-6.802439243e-14 3.444664352e-21 1.120730907e-20 3.511679381e-20 9.285481573e-20)
5(4.308683775e-21 6.611640117e-21 2.138510633e-20 6.503270441e-20 1.705312171e-19)
5(1.401155904e-20 1.257639796e-20 4.019480584e-20 1.177061982e-19 2.995944846e-19)
5(2.070477523e-20 3.670840942e-20 7.515153492e-20 2.075804726e-19 5.075269066e-19)
5(2.010473657e-20 7.211842268e-20 1.772374747e-19 2.35040729e-19 8.352011782e-19)
5(2.097184694e-20 1.108515087e-19 3.8736413e-19 1.258812758e-18 2.623366883e-18)
5(2.25132987e-20 1.344021455e-19 5.181779512e-19 2.311301382e-18 4.212413919e-18)
)


60
(
5(-1.082612697e-08 7.799954847e-10 -1.392373284e-08 -5.323377111e-09 -7.417954406e-09)
5(-7.575901432e-09 7.007526187e-10 -9.451980965e-09 -3.710064121e-09 -5.477930899e-09)
5(-2.424359722e-09 6.347130868e-10 -2.671550126e-09 -1.186344493e-09 -2.100051263e-09)
5(6.758428088e-10 6.649261436e-10 7.034693925e-10 7.327652146e-11 7.634209846e-12)
5(1.850486203e-09 4.454502099e-10 1.505256261e-09 2.440100783e-10 5.322816808e-10)
5(1.041274929e-09 -2.605867991e-10 4.269289009e-10 -4.443385499e-10 -1.881302294e-10)
5(-4.757945529e-10 -1.104661335e-09 -1.088051839e-09 -1.355884657e-09 -1.186398099e-09)
5(-1.63691958e-09 -1.788472784e-09 -2.144356734e-09 -2.024066767e-09 -1.830903267e-09)
5(-2.41373887e-09 -2.407508842e-09 -2.66185408e-09 -2.461831263e-09 -2.15567837e-09)
5(-2.773004704e-09 -2.921393755e-09 -2.958690293e-09 -2.734849997e-09 -2.314158957e-09)
5(-3.053792671e-09 -3.141675254e-09 -3.150996581e-09 -2.814458624e-09 -2.353523674e-09)
5(-3.228784957e-09 -3.030324552e-09 -3.107206747e-09 -2.643279717e-09 -2.213476158e-09)
5(-2.971090008e-09 -2.636539502e-09 -2.761076372e-09 -2.232640692e-09 -1.872591452e-09)
5(-2.509877839e-09 -2.073677928e-09 -2.199395132e-09 -1.692798449e-09 -1.420261627e-09)
5(-1.921046479e-09 -1.512689641e-09 -1.593483131e-09 -1.183577282e-09 -9.876496117e-10)
5(-1.377816995e-09 -1.052131657e-09 -1.093396704e-09 -7.906008864e-10 -6.531800638e-10)
5(-9.545974905e-10 -7.240225703e-10 -7.353479394e-10 -5.223592089e-10 -4.242090266e-10)
5(-6.726383751e-10 -5.030992372e-10 -4.954014219e-10 -3.489162043e-10 -2.785936905e-10)
5(-4.834819993e-10 -3.55664722e-10 -3.412001505e-10 -2.37475548e-10 -1.87557587e-10)
5(-3.536852621e-10 -2.563854073e-10 -2.38492549e-10 -1.620798766e-10 -1.245595505e-10)
5(-2.612434714e-10 -1.843048066e-10 -1.651563925e-10 -1.075282298e-10 -7.876499172e-11)
5(-1.886666225e-10 -1.265850883e-10 -1.083139269e-10 -6.390694961e-11 -4.31211932e-11)
5(-1.35302997e-10 -7.727473146e-11 -6.0064018e-11 -2.409166058e-11 -1.091955544e-11)
5(-8.732227578e-11 -3.206672032e-11 -1.514617008e-11 1.498915786e-11 2.238706119e-11)
5(-3.759618242e-11 1.484274244e-11 3.130548013e-11 5.820812624e-11 6.014890524e-11)
5(1.217960882e-11 6.788134034e-11 8.607861262e-11 1.113639058e-10 1.068475687e-10)
5(7.072147063e-11 1.330330884e-10 1.547442548e-10 1.79062858e-10 1.66253797e-10)
5(1.430282072e-10 2.17914114e-10 2.443179725e-10 2.685909409e-10 2.457368149e-10)
5(2.349682302e-10 3.304275322e-10 3.641096947e-10 3.886617679e-10 3.527231988e-10)
5(3.604784423e-10 4.818253528e-10 5.262343773e-10 5.492405543e-10 4.910023156e-10)
5(5.309071433e-10 6.868338599e-10 7.397930963e-10 7.577295496e-10 6.671685545e-10)
5(7.579067596e-10 9.552147909e-10 1.018421211e-09 1.020556938e-09 8.877050895e-10)
5(1.061232375e-09 1.303215592e-09 1.373155858e-09 1.340844944e-09 1.133544712e-09)
5(1.460360157e-09 1.746185245e-09 1.806181871e-09 1.70280237e-09 1.392598322e-09)
5(1.96638216e-09 2.270461363e-09 2.299031068e-09 2.078878359e-09 1.637993426e-09)
5(2.580749433e-09 2.855508711e-09 2.80929966e-09 2.415475716e-09 1.814577887e-09)
5(3.270841975e-09 3.458215277e-09 3.266061603e-09 2.636773295e-09 1.859253273e-09)
5(3.983024403e-09 3.961102114e-09 3.552654646e-09 2.641765857e-09 1.64783439e-09)
5(4.61646042e-09 4.264200319e-09 3.534330454e-09 2.308416657e-09 1.062732408e-09)
5(5.002360727e-09 4.170811401e-09 3.05164138e-09 1.561788481e-09 1.225741816e-10)
5(4.917290643e-09 3.555472771e-09 2.075223688e-09 3.815848247e-10 -9.82320689e-10)
5(4.223086363e-09 2.308233756e-09 6.147420566e-10 -1.127835228e-09 -1.952868128e-09)
5(2.805307072e-09 3.891428658e-10 -1.206197958e-09 -2.638293835e-09 -2.540652503e-09)
5(6.129687087e-10 -1.805769561e-09 -3.079261248e-09 -3.720982952e-09 -2.665946272e-09)
5(-2.048183817e-09 -3.910043573e-09 -4.614349134e-09 -4.06282794e-09 -2.366922879e-09)
5(-4.62192047e-09 -5.53856372e-09 -5.399484295e-09 -3.642556467e-09 -1.775046985e-09)
5(-6.593021937e-09 -6.278121706e-09 -5.178503976e-09 -2.748786373e-09 -1.110684906e-09)
5(-7.42915101e-09 -5.974490394e-09 -4.090577453e-09 -1.755116806e-09 -5.745004974e-10)
5(-7.002217847e-09 -4.803714807e-09 -2.662073987e-09 -9.382567009e-10 -2.457299143e-10)
5(-5.550738753e-09 -3.213053216e-09 -1.424683635e-09 -4.12002995e-10 -8.8570293e-11)
5(-3.643411919e-09 -1.731801839e-09 -6.238424552e-10 -1.469664185e-10 -2.804542298e-11)
5(-1.933787706e-09 -7.388274725e-10 -2.147373957e-10 -4.484809098e-11 -7.83516878e-12)
5(-7.841556406e-10 -2.462165986e-10 -6.054686372e-11 -1.181216183e-11 -1.975663428e-12)
5(-2.507864783e-10 -6.340115809e-11 -1.424758979e-11 -2.716485276e-12 -4.441040715e-13)
5(-5.338378749e-11 -1.188943368e-11 -2.597100465e-12 -5.32546669e-13 -8.902756199e-14)
5(-7.776195253e-12 -1.803427789e-12 -3.862008633e-13 -8.483456566e-14 -1.435620729e-14)
5(-6.705923293e-13 -1.662423226e-13 -4.383544825e-14 -5.392810734e-15 -1.847232918e-15)
5(-3.877678705e-14 -2.186048857e-14 -2.554771002e-15 -7.693292873e-15 -1.332216011e-16)
5(-1.114041068e-15 -6.404465172e-16 5.509477514e-13 -4.596088851e-15 -3.52328267e-19)
5(-1.023335161e-17 1.871092719e-14 1.101967089e-12 1.381249214e-14 5.233631425e-18)
)


60
(
5(-8.618877699e-09 7.132964031e-09 -1.532737872e-08 -4.687935101e-09 -6.009139384e-09)
5(-5.930202989e-09 5.809591593e-09 -1.005224244e-08 -3.113270961e-09 -4.29988448e-09)
5(-7.957055639e-10 3.61829767e-09 -1.940606292e-09 -6.990920096e-10 -1.498583024e-09)
5(3.093831961e-09 2.41772381e-09 1.980959188e-09 3.712549986e-10 4.67306416e-11)
5(4.665810087e-09 1.558096794e-09 2.534249852e-09 2.261783657e-10 3.161331669e-10)
5(2.992818681e-09 1.768725355e-11 5.459190106e-10 -8.906270922e-10 -4.784506086e-10)
5(-5.912976474e-10 -1.988850152e-09 -2.100692547e-09 -2.271679225e-09 -1.596152416e-09)
5(-3.70415048e-09 -3.889528382e-09 -4.090384918e-09 -3.413684745e-09 -2.427503183e-09)
5(-5.675177203e-09 -5.544914685e-09 -5.343845573e-09 -4.29280689e-09 -2.992326211e-09)
5(-6.91285285e-09 -6.894079181e-09 -6.233258948e-09 -4.938530478e-09 -3.387393344e-09)
5(-8.19018211e-09 -7.743375113e-09 -6.866724528e-09 -5.290844495e-09 -3.608505e-09)
5(-9.014006907e-09 -7.885861846e-09 -6.979558158e-09 -5.20652702e-09 -3.588340246e-09)
5(-8.740655702e-09 -7.284552946e-09 -6.494644102e-09 -4.663058675e-09 -3.255296804e-09)
5(-7.71037006e-09 -6.073035572e-09 -5.491327151e-09 -3.797145486e-09 -2.689245694e-09)
5(-6.217425183e-09 -4.652406853e-09 -4.2281021e-09 -2.847436205e-09 -2.031817579e-09)
5(-4.606591562e-09 -3.353380639e-09 -3.026255103e-09 -2.017386607e-09 -1.433666657e-09)
5(-3.296335328e-09 -2.342708358e-09 -2.087211199e-09 -1.380642379e-09 -9.799711871e-10)
5(-2.315767026e-09 -1.639408038e-09 -1.430581059e-09 -9.368799369e-10 -6.620914664e-10)
5(-1.654270367e-09 -1.161101093e-09 -9.94248005e-10 -6.428299329e-10 -4.533420006e-10)
5(-1.194984811e-09 -8.385075383e-10 -6.984705197e-10 -4.465465416e-10 -3.110243922e-10)
5(-8.974589868e-10 -6.135874106e-10 -4.945092754e-10 -3.084328617e-10 -2.071539878e-10)
5(-6.830419605e-10 -4.463230939e-10 -3.477191295e-10 -2.058487221e-10 -1.270668546e-10)
5(-5.045676453e-10 -3.146506073e-10 -2.32944236e-10 -1.203755486e-10 -6.158864975e-11)
5(-3.684335343e-10 -2.048466212e-10 -1.325187102e-10 -4.07754748e-11 2.019014248e-12)
5(-2.467491479e-10 -1.037692787e-10 -3.714412022e-11 4.111381958e-11 7.185195841e-11)
5(-1.41308888e-10 -2.001873343e-12 6.242376609e-11 1.316425081e-10 1.530498302e-10)
5(-2.150938633e-11 1.087665705e-10 1.742139528e-10 2.422562959e-10 2.555351524e-10)
5(9.784616042e-11 2.430415399e-10 3.15946376e-10 3.873493933e-10 3.928238654e-10)
5(2.436771485e-10 4.141658913e-10 5.043311032e-10 5.801939377e-10 5.791950192e-10)
5(4.332524655e-10 6.37358347e-10 7.508700477e-10 8.378242699e-10 8.154680407e-10)
5(6.754662247e-10 9.375453956e-10 1.07819985e-09 1.176940833e-09 1.127041493e-09)
5(1.001968311e-09 1.332106923e-09 1.512853094e-09 1.615371471e-09 1.521050834e-09)
5(1.434083757e-09 1.84409014e-09 2.071000745e-09 2.151774668e-09 1.996871935e-09)
5(1.993670439e-09 2.497593845e-09 2.759015414e-09 2.789197429e-09 2.527913962e-09)
5(2.71293225e-09 3.298364017e-09 3.569970989e-09 3.509689199e-09 3.081970138e-09)
5(3.617930651e-09 4.224204701e-09 4.466864445e-09 4.237360182e-09 3.608645096e-09)
5(4.606608311e-09 5.228060434e-09 5.356100645e-09 4.863204862e-09 3.951568188e-09)
5(5.712765039e-09 6.212223778e-09 6.083286735e-09 5.229599378e-09 3.932440963e-09)
5(6.805875415e-09 6.973002279e-09 6.468560585e-09 5.140686084e-09 3.379832849e-09)
5(7.602150756e-09 7.283150452e-09 6.280274423e-09 4.399639791e-09 2.143277521e-09)
5(7.968700318e-09 6.919192388e-09 5.267657328e-09 2.861870713e-09 3.413641499e-10)
5(7.538367011e-09 5.604340151e-09 3.332341273e-09 5.323822667e-10 -1.685924102e-09)
5(6.004886653e-09 3.23355906e-09 5.741284665e-10 -2.29642093e-09 -3.589390696e-09)
5(3.378775907e-09 -4.104491475e-11 -2.759444164e-09 -5.014037906e-09 -4.986027158e-09)
5(-2.258929427e-10 -3.770895368e-09 -6.099645143e-09 -6.957283179e-09 -5.600072997e-09)
5(-4.400968116e-09 -7.247930945e-09 -8.691230102e-09 -7.714784329e-09 -5.304554588e-09)
5(-8.264892504e-09 -9.832784983e-09 -9.811226381e-09 -7.199151137e-09 -4.283691949e-09)
5(-1.096306242e-08 -1.090006127e-08 -9.19706588e-09 -5.709699615e-09 -2.945784052e-09)
5(-1.194518738e-08 -1.01645557e-08 -7.25440729e-09 -3.880402925e-09 -1.698455283e-09)
5(-1.097534726e-08 -8.023251455e-09 -4.794690193e-09 -2.223466498e-09 -8.205382773e-10)
5(-8.535427533e-09 -5.280912655e-09 -2.643733411e-09 -1.045133776e-09 -3.273290462e-10)
5(-5.515213786e-09 -2.819163925e-09 -1.182304243e-09 -4.075835675e-10 -1.075710599e-10)
5(-2.825644138e-09 -1.184616722e-09 -4.150318972e-10 -1.259180966e-10 -3.09578584e-11)
5(-1.095843884e-09 -3.805423046e-10 -1.129991594e-10 -3.16119094e-11 -7.455789227e-12)
5(-2.99995533e-10 -8.887556202e-11 -2.236525908e-11 -6.100624001e-12 -1.492331138e-12)
5(-5.680187398e-11 -1.447489977e-11 -3.37906016e-12 -9.93664888e-13 -2.597265035e-13)
5(-6.180233175e-12 -1.824548588e-12 -3.401430592e-13 -3.281682279e-13 -3.151259695e-14)
5(-3.895795668e-13 -1.101485008e-10 -2.464068327e-14 -7.008969823e-11 -2.35960343e-15)
5(-7.433092284e-15 2.576030447e-13 1.211608033e-12 2.093237211e-13 -9.048114736e-17)
5(-9.652331095e-17 2.201336641e-10 2.428130282e-12 1.401641194e-10 9.053109876e-18)
)


60
(
5(1.316180136e-10 1.888645966e-08 -1.401661381e-08 -3.259103726e-09 -4.922700119e-09)
5(1.311116993e-09 1.518283244e-08 -8.51526318e-09 -1.833495697e-09 -3.346729131e-09)
5(4.145308528e-09 8.965544955e-09 -3.120735058e-11 2.834016997e-10 -8.180045384e-10)
5(7.810379988e-09 5.484001255e-09 3.95701923e-09 1.041233897e-09 5.424263462e-10)
5(9.505236685e-09 3.503959872e-09 3.91018511e-09 5.366775146e-10 7.356581639e-10)
5(5.896355138e-09 5.325191187e-10 7.170180592e-10 -1.026939217e-09 -1.824861823e-10)
5(-6.8574981e-10 -3.107377819e-09 -3.215781026e-09 -2.909885106e-09 -1.528726972e-09)
5(-6.026775357e-09 -6.415257428e-09 -6.296683442e-09 -4.577244797e-09 -2.631396658e-09)
5(-9.949245046e-09 -9.657752922e-09 -8.462917707e-09 -5.985690429e-09 -3.468367685e-09)
5(-1.357568911e-08 -1.244576948e-08 -1.010752192e-08 -7.131946082e-09 -4.160366322e-09)
5(-1.632733533e-08 -1.438972613e-08 -1.143358503e-08 -7.944327475e-09 -4.709600741e-09)
5(-1.793706083e-08 -1.518202591e-08 -1.210832728e-08 -8.21207181e-09 -4.993805529e-09)
5(-1.821876073e-08 -1.454517773e-08 -1.173537971e-08 -7.775722526e-09 -4.810075826e-09)
5(-1.687454081e-08 -1.270813438e-08 -1.035281303e-08 -6.705960685e-09 -4.236314692e-09)
5(-1.410737863e-08 -1.01976017e-08 -8.369018954e-09 -5.333947584e-09 -3.429841854e-09)
5(-1.078390694e-08 -7.698133159e-09 -6.283911388e-09 -3.991575884e-09 -2.574427425e-09)
5(-7.950076267e-09 -5.576197199e-09 -4.498020224e-09 -2.84998997e-09 -1.853551182e-09)
5(-5.687100462e-09 -3.936718189e-09 -3.147509127e-09 -1.986980469e-09 -1.294858251e-09)
5(-4.034744142e-09 -2.779763968e-09 -2.202586613e-09 -1.388469104e-09 -9.099246642e-10)
5(-2.929653015e-09 -1.994175386e-09 -1.562804383e-09 -9.804111495e-10 -6.361060144e-10)
5(-2.182611785e-09 -1.464850542e-09 -1.124299047e-09 -6.946389977e-10 -4.364699959e-10)
5(-1.641927368e-09 -1.083367155e-09 -8.048209508e-10 -4.864454087e-10 -2.902489266e-10)
5(-1.233519455e-09 -7.900280605e-10 -5.652264031e-10 -3.25500175e-10 -1.739562928e-10)
5(-9.336322235e-10 -5.617046094e-10 -3.810940758e-10 -1.847919887e-10 -7.432036421e-11)
5(-6.788799615e-10 -3.756261398e-10 -2.217917675e-10 -5.362796922e-11 3.09258262e-11)
5(-4.646814849e-10 -2.071209595e-10 -6.187066083e-11 8.190033968e-11 1.558847085e-10)
5(-2.689886262e-10 -3.416349841e-11 1.051575266e-10 2.373679074e-10 2.964431651e-10)
5(-7.979533981e-11 1.568774125e-10 2.975417265e-10 4.303344911e-10 4.822635385e-10)
5(1.197961124e-10 3.813456109e-10 5.398815662e-10 6.801053063e-10 7.26076845e-10)
5(3.677120604e-10 6.604915537e-10 8.551154749e-10 1.011450346e-09 1.053515813e-09)
5(6.736087927e-10 1.024850232e-09 1.268009939e-09 1.450667796e-09 1.484892418e-09)
5(1.060710424e-09 1.499873536e-09 1.808375246e-09 2.022317802e-09 2.031523426e-09)
5(1.566586381e-09 2.121226383e-09 2.507996347e-09 2.738112225e-09 2.700592551e-09)
5(2.226831738e-09 2.921614731e-09 3.390274737e-09 3.614089622e-09 3.510336958e-09)
5(3.062531485e-09 3.909673525e-09 4.452744609e-09 4.640427225e-09 4.377499746e-09)
5(4.103598072e-09 5.076055549e-09 5.674800973e-09 5.739868999e-09 5.256184771e-09)
5(5.369198824e-09 6.40354828e-09 6.969244096e-09 6.805246199e-09 6.05143631e-09)
5(6.769869901e-09 7.783721683e-09 8.185271009e-09 7.656581263e-09 6.436501328e-09)
5(8.186030916e-09 9.025597383e-09 9.099671928e-09 8.030636911e-09 6.165475327e-09)
5(9.499603985e-09 9.90656878e-09 9.380562206e-09 7.643094061e-09 4.993753816e-09)
5(1.034980729e-08 1.00653971e-08 8.716201206e-09 6.197194446e-09 2.943505381e-09)
5(1.044733377e-08 9.134569002e-09 6.862425311e-09 3.536680691e-09 1.669561072e-10)
5(9.446193023e-09 6.878855426e-09 3.716218014e-09 -1.740455322e-10 -2.958038438e-09)
5(7.061359606e-09 3.260884628e-09 -5.763429896e-10 -4.347551251e-09 -5.871538622e-09)
5(3.262397911e-09 -1.433117835e-09 -5.505126226e-09 -8.14147338e-09 -8.135745919e-09)
5(-1.713762188e-09 -6.521131548e-09 -1.01212367e-08 -1.074309905e-08 -9.118015127e-09)
5(-7.014650038e-09 -1.114754272e-08 -1.324234059e-08 -1.168683516e-08 -8.652537397e-09)
5(-1.175780602e-08 -1.43713419e-08 -1.418749124e-08 -1.086866086e-08 -7.033243104e-09)
5(-1.50037914e-08 -1.533721759e-08 -1.295959898e-08 -8.667589064e-09 -4.868406317e-09)
5(-1.592275382e-08 -1.38936408e-08 -9.954471591e-09 -5.850944993e-09 -2.874830477e-09)
5(-1.449054187e-08 -1.071729417e-08 -6.37207657e-09 -3.311213862e-09 -1.413748754e-09)
5(-1.1333704e-08 -6.835570782e-09 -3.413107253e-09 -1.564082687e-09 -5.693189316e-10)
5(-7.330642134e-09 -3.485408525e-09 -1.474154016e-09 -5.808238555e-10 -1.830636579e-10)
5(-3.694187151e-09 -1.403700879e-09 -4.885093934e-10 -1.720313103e-10 -4.919530735e-11)
5(-1.412613866e-09 -4.170048138e-10 -1.160922709e-10 -3.88181597e-11 -1.048455567e-11)
5(-3.931769316e-10 -8.433901349e-11 -1.879562363e-11 -6.290636182e-12 -1.751814539e-12)
5(-6.208624152e-11 -9.30372257e-12 -2.101817025e-12 5.733856535e-13 -2.328590844e-13)
5(-4.090957343e-12 4.95268957e-10 -5.21563936e-12 5.251033395e-10 -1.653085351e-14)
5(-2.648900245e-13 -3.938601933e-13 9.532670254e-15 -1.290372732e-12 -6.154948713e-16)
5(-5.860397918e-15 -9.909348507e-10 1.018913638e-11 -1.050321701e-09 1.306883388e-17)
)


60
(
5(1.66932211e-08 3.540716465e-08 -1.026067662e-08 -1.142886934e-09 -3.78195888e-09)
5(1.478094724e-08 2.829775459e-08 -4.952506029e-09 7.133511457e-11 -2.254645513e-09)
5(1.287164623e-08 1.643115738e-08 3.0913252e-09 1.773026817e-09 1.860454397e-10)
5(1.475434693e-08 9.692050339e-09 6.397953212e-09 2.148535529e-09 1.484045198e-09)
5(1.561545846e-08 5.929321591e-09 5.369028578e-09 1.283686499e-09 1.645652694e-09)
5(9.698427796e-09 1.324982666e-09 1.024572737e-09 -6.946492781e-10 6.100999438e-10)
5(-3.3109753e-10 -4.138092754e-09 -4.090504858e-09 -3.087155041e-09 -1.007375732e-09)
5(-9.123644373e-09 -9.278643335e-09 -8.26725794e-09 -5.279562633e-09 -2.448537988e-09)
5(-1.56091116e-08 -1.411773822e-08 -1.147769183e-08 -7.254254796e-09 -3.621727447e-09)
5(-2.153000652e-08 -1.875352735e-08 -1.417820062e-08 -9.064011905e-09 -4.706876119e-09)
5(-2.683839928e-08 -2.236583055e-08 -1.648171381e-08 -1.056650548e-08 -5.698225268e-09)
5(-3.019027027e-08 -2.422093883e-08 -1.787787406e-08 -1.140268745e-08 -6.359765908e-09)
5(-3.099536704e-08 -2.414212957e-08 -1.79273127e-08 -1.129492453e-08 -6.498766588e-09)
5(-2.949987258e-08 -2.196919957e-08 -1.646068775e-08 -1.027084044e-08 -6.04344052e-09)
5(-2.5793968e-08 -1.839466721e-08 -1.386530142e-08 -8.626103013e-09 -5.152489547e-09)
5(-2.053807364e-08 -1.437765003e-08 -1.093611633e-08 -6.764960133e-09 -4.123606748e-09)
5(-1.553650947e-08 -1.070835736e-08 -8.172031021e-09 -5.025753494e-09 -3.108796031e-09)
5(-1.132477723e-08 -7.737294068e-09 -5.865184264e-09 -3.630993407e-09 -2.249467999e-09)
5(-8.105429948e-09 -5.527368561e-09 -4.164826139e-09 -2.596258997e-09 -1.61380286e-09)
5(-5.894706174e-09 -3.984590168e-09 -2.978853082e-09 -1.850397799e-09 -1.152903876e-09)
5(-4.333835339e-09 -2.913216008e-09 -2.146340531e-09 -1.329528962e-09 -8.156012294e-10)
5(-3.230135751e-09 -2.15184446e-09 -1.559324746e-09 -9.529497436e-10 -5.630598996e-10)
5(-2.432043784e-09 -1.593837674e-09 -1.133636604e-09 -6.689559543e-10 -3.793957242e-10)
5(-1.866887416e-09 -1.171939062e-09 -8.05386231e-10 -4.417689244e-10 -2.185933299e-10)
5(-1.406615764e-09 -8.372962534e-10 -5.319842959e-10 -2.418792565e-10 -6.100675228e-11)
5(-1.02730924e-09 -5.694439175e-10 -2.920534749e-10 -4.908679335e-11 9.780248032e-11)
5(-7.190038397e-10 -3.178185308e-10 -6.597282431e-11 1.542907523e-10 2.766003008e-10)
5(-4.129326606e-10 -5.162945612e-11 1.786115751e-10 3.919277357e-10 5.088862192e-10)
5(-1.2529137e-10 2.289187086e-10 4.720868541e-10 6.890500108e-10 8.077078539e-10)
5(1.777402896e-10 5.577397201e-10 8.390510381e-10 1.072438581e-09 1.197902196e-09)
5(5.201042564e-10 9.625128619e-10 1.303756246e-09 1.582774915e-09 1.725720923e-09)
5(9.497894302e-10 1.486204404e-09 1.913094646e-09 2.247018947e-09 2.37542734e-09)
5(1.499874914e-09 2.173681047e-09 2.71230775e-09 3.089257278e-09 3.199467562e-09)
5(2.210213516e-09 3.0429395e-09 3.712136264e-09 4.1358172e-09 4.224933899e-09)
5(3.123137657e-09 4.131685568e-09 4.945022126e-09 5.386136323e-09 5.382082688e-09)
5(4.249184156e-09 5.459264905e-09 6.41980184e-09 6.800282526e-09 6.648058716e-09)
5(5.589713658e-09 7.00440326e-09 8.05022826e-09 8.289463339e-09 7.887623297e-09)
5(7.172875914e-09 8.71101319e-09 9.701346125e-09 9.659142019e-09 8.803143015e-09)
5(8.90296948e-09 1.03998888e-08 1.113887339e-08 1.062319226e-08 9.043569043e-09)
5(1.058987299e-08 1.182351464e-08 1.205638307e-08 1.084359171e-08 8.311745478e-09)
5(1.199110948e-08 1.264202616e-08 1.206928696e-08 9.892312164e-09 6.442051032e-09)
5(1.278345269e-08 1.2453456e-08 1.074740333e-08 7.435905566e-09 3.368361522e-09)
5(1.254121313e-08 1.086885337e-08 7.841770763e-09 3.448643223e-09 -5.82980931e-10)
5(1.090625997e-08 7.623847796e-09 3.225955457e-09 -1.683501686e-09 -4.913911887e-09)
5(7.668963485e-09 2.808800148e-09 -2.671622188e-09 -7.138716234e-09 -8.963846388e-09)
5(2.947332971e-09 -3.158550833e-09 -9.015744223e-09 -1.185507593e-08 -1.188809558e-08)
5(-2.832215078e-09 -9.44946635e-09 -1.461691056e-08 -1.501326104e-08 -1.306784999e-08)
5(-9.080847311e-09 -1.500692307e-08 -1.802025365e-08 -1.597323752e-08 -1.226931575e-08)
5(-1.464310024e-08 -1.866100723e-08 -1.851393259e-08 -1.449930555e-08 -9.917145106e-09)
5(-1.837547019e-08 -1.953839105e-08 -1.629530619e-08 -1.134181753e-08 -6.823989056e-09)
5(-1.958754984e-08 -1.761991943e-08 -1.227207408e-08 -7.576343783e-09 -3.934661984e-09)
5(-1.813374238e-08 -1.334726324e-08 -7.748260402e-09 -4.228398371e-09 -1.914109239e-09)
5(-1.454618421e-08 -8.363366982e-09 -3.996784458e-09 -1.9265248e-09 -7.608606712e-10)
5(-9.880372495e-09 -4.389495042e-09 -1.629122847e-09 -6.781516852e-10 -2.280055137e-10)
5(-5.274457699e-09 -1.792323607e-09 -4.928419375e-10 -1.802861646e-10 -5.817107795e-11)
5(-2.128081704e-09 -5.117838864e-10 -1.054391896e-10 -3.312205717e-11 -1.024947124e-11)
5(-6.955073934e-10 -9.820564693e-11 -1.402494615e-11 -3.47716557e-12 -1.101829252e-12)
5(-1.292087652e-10 2.544412708e-10 -9.330426577e-13 1.895861541e-10 -9.898800216e-14)
5(-1.086056924e-11 -1.404492627e-12 5.746499433e-12 -7.150274228e-13 -3.634297427e-15)
5(2.961957507e-13 -5.306337106e-10 1.156460761e-11 -3.798539211e-10 -2.859715508e-17)
)


60
(
5(4.121002251e-08 5.592333974e-08 -4.618358017e-09 1.414519534e-09 -2.57326474e-09)
5(3.451156132e-08 4.455045521e-08 1.424925447e-10 2.455832587e-09 -9.782110662e-10)
5(2.506207632e-08 2.538313194e-08 7.069676822e-09 3.777964951e-09 1.547378518e-09)
5(2.36877134e-08 1.448592979e-08 9.281677034e-09 3.773932832e-09 2.877202016e-09)
5(2.31459351e-08 9.005025617e-09 7.144664422e-09 2.580452063e-09 3.023986713e-09)
5(1.376477149e-08 2.645820028e-09 1.732645427e-09 2.47613209e-10 1.858222103e-09)
5(-1.897017226e-10 -4.966112555e-09 -4.446928358e-09 -2.605067772e-09 -4.902399035e-11)
5(-1.219306999e-08 -1.208983148e-08 -9.749463393e-09 -5.378229881e-09 -1.850042059e-09)
5(-2.186024657e-08 -1.897672128e-08 -1.408884715e-08 -8.004921117e-09 -3.434186739e-09)
5(-3.073844664e-08 -2.537827836e-08 -1.790666597e-08 -1.055658073e-08 -4.964527088e-09)
5(-3.861937992e-08 -3.078445506e-08 -2.134141763e-08 -1.286455471e-08 -6.460080168e-09)
5(-4.438397239e-08 -3.432299141e-08 -2.385671848e-08 -1.449174235e-08 -7.65451997e-09)
5(-4.704780266e-08 -3.504639539e-08 -2.467870981e-08 -1.502375304e-08 -8.226813717e-09)
5(-4.56349294e-08 -3.294034584e-08 -2.348754107e-08 -1.429358672e-08 -8.064905292e-09)
5(-4.089775994e-08 -2.877692208e-08 -2.05929753e-08 -1.254981276e-08 -7.223526468e-09)
5(-3.3757661e-08 -2.350984584e-08 -1.682952749e-08 -1.029945074e-08 -6.027772814e-09)
5(-2.607250266e-08 -1.809173837e-08 -1.303499415e-08 -7.99979872e-09 -4.732242188e-09)
5(-1.947209547e-08 -1.334887244e-08 -9.698693262e-09 -5.953117351e-09 -3.562352328e-09)
5(-1.445777859e-08 -9.668514284e-09 -7.036841083e-09 -4.334943013e-09 -2.614075433e-09)
5(-1.047204368e-08 -7.007146733e-09 -5.076686433e-09 -3.143917211e-09 -1.897790625e-09)
5(-7.621565237e-09 -5.133593435e-09 -3.691669871e-09 -2.282963559e-09 -1.391619327e-09)
5(-5.661222427e-09 -3.798259265e-09 -2.696776906e-09 -1.662941005e-09 -9.928687162e-10)
5(-4.264619965e-09 -2.828917595e-09 -1.975707577e-09 -1.201633957e-09 -6.860775752e-10)
5(-3.282594591e-09 -2.11685779e-09 -1.443726359e-09 -8.374244636e-10 -4.377154182e-10)
5(-2.474879382e-09 -1.570531172e-09 -1.018835474e-09 -5.40196772e-10 -2.253739297e-10)
5(-1.834570111e-09 -1.121521075e-09 -6.647312049e-10 -2.748218223e-10 -1.907491828e-11)
5(-1.349649631e-09 -7.36661078e-10 -3.508139038e-10 -1.108257669e-11 2.132423849e-10)
5(-9.636868794e-10 -3.926310098e-10 -3.780532121e-11 2.739879211e-10 4.780314113e-10)
5(-5.597948966e-10 -4.875168129e-11 3.094881296e-10 6.117830681e-10 8.079923804e-10)
5(-1.529623207e-10 3.374119006e-10 7.204334382e-10 1.039597903e-09 1.258592819e-09)
5(2.562933111e-10 7.9116758e-10 1.227431874e-09 1.587406073e-09 1.83726913e-09)
5(7.231766349e-10 1.344067804e-09 1.879046238e-09 2.30121094e-09 2.573696833e-09)
5(1.275538988e-09 2.040148851e-09 2.713154106e-09 3.225636292e-09 3.547225129e-09)
5(2.008154102e-09 2.932220451e-09 3.777869504e-09 4.386071158e-09 4.72500334e-09)
5(2.934056471e-09 4.071598544e-09 5.117081045e-09 5.806124203e-09 6.102787893e-09)
5(4.05756625e-09 5.482408744e-09 6.743190989e-09 7.475701026e-09 7.683974301e-09)
5(5.463058538e-09 7.163345143e-09 8.612470993e-09 9.297743726e-09 9.331210162e-09)
5(7.125761324e-09 9.053217634e-09 1.060224647e-08 1.111982962e-08 1.080804145e-08)
5(9.005413044e-09 1.104242284e-08 1.253550495e-08 1.268670832e-08 1.169990361e-08)
5(1.09664657e-08 1.29620143e-08 1.409649601e-08 1.361140651e-08 1.148272466e-08)
5(1.28032324e-08 1.446171983e-08 1.488142167e-08 1.340384396e-08 1.017990303e-08)