/*--------------------------------*- C++ -*----------------------------------*\
| =========                 |                                                 |
| \\      /  F ield         | OpenFOAM: The Open Source CFD Toolbox           |
|  \\    /   O peration     | Version:  2.3.1                                 |
|   \\  /    A nd           | Web:      www.OpenFOAM.org                      |
|    \\/     M anipulation  |                                                 |
\*---------------------------------------------------------------------------*/
FoamFile
{
    version     2.0;
    format      ascii;
    class       dictionary;
    location    "constant";
    object      GRPSI51;
}
// * * * * * * * * * * * * * * * * * * * * * * * * * * * * * * * * * * * * * //

GRPSI51_table
60
(

60
(
5(-4.615496019e-06 5.967818762e-06 5.451465274e-06 1.508991056e-06 8.666185107e-06)
5(-8.48254196e-06 3.271551721e-06 6.232025898e-06 -5.187606519e-07 1.524072301e-06)
5(-3.172408079e-05 -1.414256964e-05 5.144923841e-07 -8.320835207e-06 -1.423171366e-05)
5(-9.758371379e-05 -4.706817182e-05 -3.305501088e-06 -5.501220963e-08 9.948347911e-06)
5(-0.000136025848 -6.565419478e-05 3.096186865e-07 -2.704236301e-06 -1.310251494e-06)
5(-0.0001292968022 -6.624961987e-05 1.252623973e-06 2.413770697e-07 -5.224931298e-06)
5(-2.081977422e-07 -3.486295928e-07 -5.720078372e-08 3.5921956e-06 6.809731324e-06)
5(6.204243968e-06 5.77132805e-06 1.294511698e-06 -5.513393224e-06 -8.277397712e-06)
5(-0.000177203244 -8.561498324e-05 1.665693502e-06 -3.427536904e-06 -4.213183287e-06)
5(-0.000247091537 -0.000121864688 -2.787579454e-06 -5.292126428e-06 -1.646932905e-06)
5(-0.000266898582 -0.0001345595657 -4.279186358e-06 -4.720995519e-06 -3.104167634e-06)
5(-0.0001278274862 -6.059313243e-05 2.354801961e-06 -1.985104017e-06 -2.038590638e-06)
5(1.361173306e-05 9.141488781e-06 4.732634239e-06 1.628415694e-07 -4.468340834e-06)
5(1.307435782e-05 9.74367894e-06 3.058540225e-06 -1.043749295e-06 -1.791578975e-06)
5(1.744237274e-05 1.26875456e-05 7.396821676e-06 6.022818892e-07 -5.656361111e-06)
5(2.465705148e-05 1.025548791e-05 7.643390398e-07 -2.162441538e-06 -9.999636817e-06)
5(2.307544355e-05 1.584399942e-05 4.304975216e-06 -1.894091736e-06 -3.785578605e-06)
5(3.474615932e-05 2.041356512e-05 1.159419506e-05 8.355939529e-06 -3.955401525e-07)
5(4.264922412e-05 3.08408947e-05 1.996728275e-05 1.608547468e-05 1.126894913e-05)
5(4.605601304e-05 3.855975491e-05 3.198998118e-05 1.593090259e-05 -1.054660394e-06)
5(5.09287427e-05 4.375622069e-05 3.993793194e-05 1.97610737e-05 -3.770017794e-06)
5(5.812830514e-05 5.530991715e-05 3.3249878e-05 1.082906317e-05 7.649899488e-06)
5(6.631031849e-05 6.113765447e-05 5.006035816e-05 2.741488795e-05 1.067405003e-05)
5(9.221360498e-05 7.41390485e-05 5.339684219e-05 2.980479443e-05 8.880396501e-06)
5(0.0001071854241 8.740997639e-05 6.703815838e-05 3.723365484e-05 8.02552158e-06)
5(0.0001287922109 0.0001110029404 8.605902795e-05 3.123688066e-05 -1.643062474e-05)
5(0.0001323307373 0.0001163094767 0.0001092646704 4.542216491e-05 -2.739679504e-05)
5(0.0001438562161 0.0001422409389 0.0001301886333 3.894476608e-05 -4.186207267e-05)
5(0.000155499388 0.0001440468327 0.0001310001273 4.947098517e-05 -3.046400692e-05)
5(0.0001876694163 0.0001546648515 0.0001146286706 4.383026169e-05 -1.993653096e-05)
5(0.0002073362208 0.0001752372654 0.0001292836978 3.13462888e-05 -5.273650807e-05)
5(0.0002139998028 0.0001727968628 0.0001067007747 -2.440580242e-05 -0.0001306192315)
5(0.0002463709594 0.000194348691 0.0001001197997 1.342085888e-05 -3.107145911e-05)
5(0.0002752938176 0.0002190433319 7.17217853e-05 -0.0001047595523 -0.0001901698291)
5(0.0002685888479 0.0002101853742 6.14150869e-05 -0.0001330668402 -0.0002371819537)
5(0.0003323518564 0.0002712755152 2.219241379e-05 -0.0002309634432 -0.0002961125398)
5(0.0002415870672 0.0001591098232 -7.492083227e-06 -0.0001449158838 -0.000198215022)
5(0.0003005049939 0.0001432735496 -4.744238646e-05 -0.0003934196808 -0.0007059124833)
5(0.000245136196 0.000140876798 -0.0001072324883 -0.0002740605965 -0.0002970388165)
5(0.0001612719942 0.0001242969347 -0.000141595381 -0.001256691236 -0.002142869835)
5(3.263909783e-05 -1.005664639e-05 -0.0002000595752 -0.001223711915 -0.00210005707)
5(1.221504165e-05 -7.242780732e-05 -0.0006047826141 -0.001280638299 -0.001508782027)
5(-0.000193413726 -0.0001999859209 -0.001384417901 -0.001264182274 3.391313753e-05)
5(-0.0002139769967 1.908797675e-05 -0.001500581384 -0.001571310015 0.00011069569)
5(-0.0004406645342 -0.0001810773393 -0.001505083799 -0.001508075812 7.252582986e-05)
5(-0.000299377579 -0.000395160815 -0.001570518438 -0.001287036342 7.602013981e-05)
5(-0.0004971682548 -0.001395916813 -0.00145682893 -0.0002651603052 8.867187953e-05)
5(-0.00122139179 -0.001679576087 -0.00101124923 0.0001216593099 0.000128056696)
5(-0.00110394941 -0.0016892827 -0.001015404695 0.0002055443723 0.0001672821454)
5(-0.00336761971 -0.001573447257 0.0002651707016 0.0002619082938 0.0002142003793)
5(-0.002921943143 -0.001294333521 0.000362631849 0.0003300646428 0.0002681416887)
5(-0.0005511602346 -6.520554487e-05 0.000453632576 0.0004113898382 0.0003362636694)
5(0.0004144183166 0.0004703155683 0.0005633732936 0.0005084505968 0.0004163674262)
5(0.0006703968174 0.0006677711458 0.0006963585705 0.0006282867005 0.0005290017342)
5(0.0008207198702 0.0008257502937 0.000859757514 0.0007703093346 0.0006518843584)
5(0.000840818924 0.0009353564098 0.001045433676 0.0009370070439 0.0008130406311)
5(0.0006557474643 0.0009585306849 0.001261875626 0.001130515933 0.0009985945211)
5(0.0008871042276 0.00111658666 0.001412318203 0.001307623213 0.001136679112)
5(0.001409877003 0.001558250894 0.001264594732 0.001437375232 0.002052185786)
5(0.002236794442 0.002355033626 0.002586195264 0.002097897702 0.001496677688)
)


60
(
5(1.377063848e-06 8.588447286e-06 7.402550874e-06 4.618689776e-06 1.023210853e-05)
5(5.669053571e-06 6.585855587e-06 4.835152349e-06 1.748417598e-06 1.3291881e-06)
5(8.924045874e-06 6.069096667e-06 3.849346504e-06 6.271608381e-07 -3.230223873e-06)
5(1.14236751e-05 6.96939901e-06 4.330504033e-06 7.846197683e-07 -4.576645615e-06)
5(1.348185091e-05 8.948241237e-06 5.956759544e-06 2.279428283e-06 -2.940030955e-06)
5(1.565024059e-05 1.147598257e-05 8.393442553e-06 5.000350675e-06 5.155407915e-07)
5(1.884754534e-05 1.428590684e-05 1.128990257e-05 8.059571898e-06 3.263606978e-06)
5(2.347900859e-05 1.783389144e-05 1.481532437e-05 1.119797692e-05 4.954079385e-06)
5(2.940639982e-05 2.220620845e-05 1.9249141e-05 1.512508647e-05 6.757908003e-06)
5(3.656195464e-05 2.783919333e-05 2.503223472e-05 2.06347252e-05 1.032141298e-05)
5(4.5410033e-05 3.529660206e-05 3.248025146e-05 2.763985609e-05 1.550238039e-05)
5(5.601765851e-05 4.474124891e-05 4.184227725e-05 3.63179332e-05 2.241615121e-05)
5(6.931110039e-05 5.64320215e-05 5.331870045e-05 4.664878161e-05 3.021310494e-05)
5(8.53331475e-05 7.057867687e-05 6.718964292e-05 5.844866192e-05 3.834224423e-05)
5(0.0001048594459 8.7554204e-05 8.337398934e-05 7.204280361e-05 4.758659068e-05)
5(0.0001279923728 0.0001078592365 0.0001022456199 8.761090507e-05 5.84566706e-05)
5(0.0001547670644 0.0001317598183 0.0001242374481 0.0001050015745 7.028082485e-05)
5(0.0001867221283 0.0001598311732 0.0001488265958 0.000122936838 8.116070256e-05)
5(0.0002226052449 0.0001917912754 0.0001764090031 0.0001419766518 9.211260321e-05)
5(0.0002636694336 0.0002277956052 0.0002063595282 0.000161510616 0.0001022239524)
5(0.000309224802 0.0002677844604 0.0002377863152 0.0001797557491 0.0001102829864)
5(0.0003593546632 0.0003114559297 0.0002704161865 0.0001957221821 0.0001141691874)
5(0.0004152005163 0.0003590080435 0.0003029285258 0.0002101181143 0.0001171947476)
5(0.0004743320381 0.0004088687916 0.0003338218275 0.0002192092899 0.0001141804701)
5(0.0005338841703 0.0004590422726 0.0003642239586 0.0002254264306 0.0001066053188)
5(0.0005983363942 0.0005122918964 0.0003923527143 0.0002245677613 9.067749272e-05)
5(0.0006612433887 0.0005640497453 0.0004177011425 0.0002169201236 6.529406413e-05)
5(0.0007282162033 0.0006149082884 0.0004358582714 0.0001997272138 2.933825843e-05)
5(0.0007910660578 0.0006623879336 0.0004465669655 0.0001742793153 -1.086549089e-05)
5(0.0008510048511 0.0007057144367 0.000449519447 0.0001361705384 -6.627379499e-05)
5(0.0009043894262 0.0007420068768 0.0004413959505 8.545213402e-05 -0.0001322633054)
5(0.0009517673756 0.0007678794297 0.0004201797733 1.994361033e-05 -0.0002164808422)
5(0.0009874207567 0.0007835641105 0.0003840856688 -6.315669508e-05 -0.0003147772635)
5(0.001010452111 0.0007838138284 0.0003298637045 -0.0001684054835 -0.0004393628299)
5(0.001017718044 0.00076662641 0.0002518075689 -0.0002964948761 -0.0005810701138)
5(0.0009979602677 0.0007254961183 0.0001506367817 -0.0004484695294 -0.0007451806534)
5(0.0009522257406 0.0006588839091 2.026639908e-05 -0.0006202881316 -0.0009155669837)
5(0.0008760304489 0.0005593691658 -0.0001392205075 -0.0008126132583 -0.001104077619)
5(0.0007482815818 0.0004209413299 -0.0003253611027 -0.001041901356 -0.001339479429)
5(0.000596778537 0.0002434668066 -0.0005574479133 -0.001331010407 -0.001656969912)
5(0.0003771901131 1.319287942e-05 -0.0008225353269 -0.001687643413 -0.002081020527)
5(0.0001425766116 -0.0002435086982 -0.001155693846 -0.002115606453 -0.002549419224)
5(-0.0001920424077 -0.0005561538845 -0.00155585436 -0.002579968466 -0.002968493574)
5(-0.000609403249 -0.0009033184355 -0.002025775131 -0.003052543338 -0.003250770035)
5(-0.001035571573 -0.00130193896 -0.002574520748 -0.003495413356 -0.003410091564)
5(-0.001485840454 -0.001773950052 -0.003147591371 -0.003863354939 -0.003493586785)
5(-0.001918539297 -0.002333752256 -0.003709066827 -0.004099188225 -0.003529208011)
5(-0.002414771504 -0.002954174751 -0.004185937433 -0.004197352761 -0.003516408653)
5(-0.002995309874 -0.003567511349 -0.0045224763 -0.004166261126 -0.003427282476)
5(-0.00370984241 -0.004100637106 -0.004641301964 -0.004022522597 -0.003253873068)
5(-0.004421858246 -0.004475239128 -0.004543435326 -0.003788964703 -0.003019678763)
5(-0.004899251601 -0.00461240454 -0.004265346825 -0.003474962535 -0.0027447889)
5(-0.004944409774 -0.004454774754 -0.003871529548 -0.003108050533 -0.002438181705)
5(-0.00454293008 -0.004013857369 -0.003384453576 -0.002688082964 -0.002092043433)
5(-0.003744351247 -0.003334353247 -0.002817605054 -0.002220449716 -0.00173004457)
5(-0.002721998376 -0.002497294622 -0.002167010582 -0.00169539757 -0.001329364845)
5(-0.001574128851 -0.00154521426 -0.001431493245 -0.001111510115 -0.000876333409)
5(-0.0003783746955 -0.0005372751354 -0.0006165588819 -0.0004489665804 -0.0003609909722)
5(0.0007534862304 0.0004742913795 0.0003160811575 0.0003466620598 0.0002562583332)
5(0.002075223438 0.001644257651 0.001728442074 0.001485317423 0.0007270425623)
)


60
(
5(4.501135728e-06 1.134006972e-05 1.072203608e-05 8.46914486e-06 1.367322126e-05)
5(8.965583693e-06 9.567994513e-06 8.243406817e-06 5.45734544e-06 4.598282579e-06)
5(1.27960811e-05 9.635700009e-06 7.7706062e-06 4.703696609e-06 3.41499736e-07)
5(1.623812527e-05 1.141406522e-05 9.170252018e-06 5.837377717e-06 -7.574342748e-08)
5(1.960772047e-05 1.453732431e-05 1.21860777e-05 8.880083661e-06 2.854940076e-06)
5(2.359404939e-05 1.868839902e-05 1.64492357e-05 1.363013694e-05 8.14455113e-06)
5(2.89875134e-05 2.370769942e-05 2.165521158e-05 1.896296056e-05 1.30433834e-05)
5(3.635936553e-05 2.984031543e-05 2.798006189e-05 2.500325424e-05 1.736765004e-05)
5(4.582612629e-05 3.750903607e-05 3.585280777e-05 3.226233163e-05 2.201099358e-05)
5(5.732565302e-05 4.721921597e-05 4.587742642e-05 4.180749292e-05 2.897291192e-05)
5(7.161072509e-05 5.974173647e-05 5.835098017e-05 5.325346484e-05 3.767771719e-05)
5(8.84404222e-05 7.500460078e-05 7.363249866e-05 6.695081503e-05 4.820541211e-05)
5(0.0001090948663 9.367337809e-05 9.173359361e-05 8.257686618e-05 5.993843504e-05)
5(0.0001343895424 0.0001161288984 0.0001128756269 9.991177377e-05 7.194054812e-05)
5(0.0001638892039 0.0001426077989 0.000137200958 0.0001194692646 8.586300706e-05)
5(0.0001988075622 0.0001734912389 0.000164908042 0.0001404888538 9.933653913e-05)
5(0.0002390987044 0.0002095917776 0.0001963917279 0.0001632036954 0.0001137087856)
5(0.0002864127276 0.0002507215306 0.0002307238848 0.0001863827158 0.0001263479957)
5(0.0003390288158 0.0002970953199 0.0002681218145 0.0002098523623 0.0001386229199)
5(0.000397527988 0.0003482160521 0.0003080146987 0.0002324585088 0.0001477917365)
5(0.0004627862372 0.0004047842075 0.0003496102158 0.0002533574505 0.0001542766472)
5(0.0005311855688 0.000463786709 0.0003914019463 0.0002720494656 0.0001576828879)
5(0.0006083115638 0.0005282532573 0.0004328637739 0.0002851665634 0.0001528005298)
5(0.0006857034213 0.0005935121713 0.0004722319611 0.0002931471434 0.0001431512861)
5(0.0007689262057 0.0006620366293 0.0005092434824 0.000294080531 0.0001248211502)
5(0.0008524283217 0.0007297681037 0.000543470664 0.0002870908136 9.434818485e-05)
5(0.0009365580833 0.0007964684926 0.0005711671236 0.0002721266544 5.829796353e-05)
5(0.001022231605 0.0008605644712 0.0005918163919 0.0002448073326 4.879218635e-06)
5(0.001102727915 0.0009195856548 0.0006027995367 0.0002086556041 -5.184447054e-05)
5(0.001177675017 0.0009737730741 0.0006047373512 0.0001569300909 -0.0001257433895)
5(0.001252056478 0.001020273613 0.0005914193618 8.901341472e-05 -0.0002163211467)
5(0.001315752812 0.001054881047 0.0005643968177 6.048342222e-06 -0.0003226876684)
5(0.001362001988 0.00107581555 0.0005220173663 -0.0001012724021 -0.0004569504245)
5(0.001398078251 0.001081431735 0.0004549920061 -0.000230152967 -0.0006055047264)
5(0.001415012714 0.001065711474 0.0003645333363 -0.0003869385684 -0.0007865335758)
5(0.001414722447 0.001030514481 0.0002475824252 -0.0005705029542 -0.0009898642427)
5(0.001360592045 0.0009551942465 0.0001018615707 -0.0007785202456 -0.001210967185)
5(0.001305498218 0.0008597164137 -7.980069873e-05 -0.001016371426 -0.001459206845)
5(0.001197072522 0.000713698874 -0.0003026012818 -0.001299716455 -0.001763905121)
5(0.001049260958 0.0005318883742 -0.0005645852266 -0.001648090678 -0.002152495112)
5(0.0008653177329 0.0003127296386 -0.0008756978456 -0.002084458663 -0.002657380091)
5(0.000607355731 2.563885565e-05 -0.001257408129 -0.002589207527 -0.003219676816)
5(0.0003099965075 -0.0002928473812 -0.001722283148 -0.003160229065 -0.003771583103)
5(-6.952293865e-05 -0.0006666706833 -0.002281304483 -0.003767867571 -0.004236944603)
5(-0.0005132640053 -0.001108039532 -0.002921910253 -0.004375095425 -0.004609185403)
5(-0.0009921819994 -0.001648498492 -0.003638146442 -0.004940078505 -0.00490867911)
5(-0.001494116185 -0.002295393845 -0.004374385645 -0.005416535373 -0.005180970962)
5(-0.002077929718 -0.003041080395 -0.005076702101 -0.005770902975 -0.005392632818)
5(-0.002810149068 -0.003831857827 -0.005666613129 -0.005994641362 -0.005509623053)
5(-0.003712171086 -0.004611714124 -0.006082667964 -0.006079974065 -0.005505869364)
5(-0.004688947665 -0.005284600213 -0.006278428309 -0.006024536905 -0.005372469954)
5(-0.005536314373 -0.005765435799 -0.006267109063 -0.00584418 -0.005148699099)
5(-0.006011070397 -0.005962578271 -0.006072423346 -0.005537039422 -0.004843318295)
5(-0.006029732745 -0.005838929459 -0.005713099958 -0.005116389117 -0.004454704489)
5(-0.005627589186 -0.005407449349 -0.005186891564 -0.004593795865 -0.004001118115)
5(-0.00487389605 -0.004715132401 -0.004513723719 -0.003971638601 -0.003472198517)
5(-0.003865809337 -0.003820723815 -0.003704400997 -0.003253707735 -0.002874251768)
5(-0.002725415787 -0.002795659868 -0.002758204844 -0.002425258366 -0.002200010993)
5(-0.00151652044 -0.001674205967 -0.001691541062 -0.001483541133 -0.001415891636)
5(7.451911268e-05 -1.397989303e-05 0.0002262982003 -0.0002414967546 -0.001038068808)
)


60
(
5(7.142401254e-06 1.424676341e-05 1.458621444e-05 1.283426881e-05 1.78472343e-05)
5(1.195480887e-05 1.269902525e-05 1.213557545e-05 9.894863974e-06 8.961818684e-06)
5(1.643124293e-05 1.33333904e-05 1.21590908e-05 9.693231239e-06 5.303818747e-06)
5(2.075674088e-05 1.605608503e-05 1.451240225e-05 1.179193154e-05 5.914487751e-06)
5(2.530505409e-05 2.038631643e-05 1.885180488e-05 1.619395571e-05 1.015188041e-05)
5(3.08682065e-05 2.609528497e-05 2.484958249e-05 2.284573359e-05 1.731466564e-05)
5(3.8316726e-05 3.317591022e-05 3.227885755e-05 3.0377158e-05 2.423169534e-05)
5(4.818181687e-05 4.187951224e-05 4.125888155e-05 3.88772666e-05 3.081397772e-05)
5(6.075400595e-05 5.269219408e-05 5.233424904e-05 4.900270532e-05 3.796729477e-05)
5(7.606640615e-05 6.6157209e-05 6.602392361e-05 6.163535517e-05 4.747087496e-05)
5(9.45024326e-05 8.287356161e-05 8.271828163e-05 7.664456695e-05 5.909726125e-05)
5(0.0001169986471 0.0001034632802 0.0001025952978 9.394520502e-05 7.262772774e-05)
5(0.0001439848846 0.0001282565952 0.0001260017836 0.000113518895 8.75625286e-05)
5(0.0001763367432 0.0001575996837 0.0001529343614 0.0001345666351 0.0001021271716)
5(0.0002137246868 0.0001916758813 0.0001834850168 0.0001579796361 0.0001186163144)
5(0.0002573757538 0.0002312645028 0.0002180593362 0.0001828730986 0.0001347807766)
5(0.0003080008158 0.0002766473403 0.0002564399763 0.0002090793692 0.0001505726504)
5(0.0003660678554 0.0003281336632 0.0002981254144 0.0002357559204 0.0001654604832)
5(0.0004297232864 0.000384823257 0.0003434128663 0.0002621076747 0.0001773128445)
5(0.0005025783621 0.0004481738757 0.0003906933161 0.0002874658985 0.0001873145541)
5(0.0005808387978 0.0005159695437 0.0004392475417 0.0003097574377 0.0001921200815)
5(0.0006618813574 0.0005861305013 0.0004878271555 0.000329977615 0.0001946805641)
5(0.0007504133845 0.0006617350873 0.0005361088354 0.0003425272696 0.0001858936586)
5(0.0008486359916 0.0007420895598 0.0005818398173 0.0003499436381 0.0001717507697)
5(0.0009435597955 0.0008207066234 0.0006242073163 0.0003500819243 0.0001496026673)
5(0.001044336638 0.0009014080537 0.0006623293244 0.0003405980696 0.0001150169603)
5(0.001142346342 0.0009803025187 0.0006959223917 0.0003206600224 6.773395694e-05)
5(0.00124351746 0.001057326656 0.0007208678016 0.0002908953767 1.119100263e-05)
5(0.001337652829 0.001127476593 0.0007351914203 0.0002449628547 -6.315677358e-05)
5(0.001428643491 0.001192420864 0.0007392847973 0.0001883519985 -0.0001456673607)
5(0.001515618879 0.00124972516 0.0007295046238 0.0001139650335 -0.0002472477389)
5(0.001591515115 0.001294013547 0.000704634876 2.401175249e-05 -0.0003647342672)
5(0.001653646623 0.001326132972 0.0006633518174 -9.025802244e-05 -0.0005086003579)
5(0.001709864658 0.001344599204 0.0005980689984 -0.000228361385 -0.0006735270161)
5(0.001740128926 0.001340356413 0.0005106051117 -0.0003929664665 -0.000866559257)
5(0.00175718811 0.001315398914 0.0003966340386 -0.0005872506509 -0.001094159661)
5(0.001743189722 0.001263905325 0.000254387925 -0.0008077169324 -0.001339588787)
5(0.001695423518 0.001178423183 7.647566782e-05 -0.001062296081 -0.001616120648)
5(0.00162279728 0.001064114264 -0.0001387333017 -0.0013664988 -0.001950099749)
5(0.00151023619 0.0009116981412 -0.0003971717846 -0.00174353064 -0.002379557619)
5(0.001356222765 0.0007068191269 -0.0007128612683 -0.002201466948 -0.00291979587)
5(0.001179958305 0.0004698436827 -0.001094228477 -0.002741703149 -0.003535220285)
5(0.0009276738465 0.0001799991954 -0.001560998702 -0.003362499636 -0.004170677324)
5(0.0006244506281 -0.0001537109508 -0.002130157604 -0.004035115209 -0.004741787739)
5(0.0002535371473 -0.0005663332442 -0.002801002148 -0.004733286442 -0.005250772224)
5(-0.0001505668388 -0.001072703248 -0.003556875155 -0.00542072812 -0.00572254559)
5(-0.0006134306914 -0.001701473002 -0.004367394529 -0.006070075836 -0.006194877926)
5(-0.001141172142 -0.002459398119 -0.005198436262 -0.006626735669 -0.006634222911)
5(-0.00184318578 -0.003305496752 -0.005980238764 -0.00709638682 -0.007000103836)
5(-0.002800535255 -0.004207040863 -0.006637045412 -0.007444240437 -0.007227936522)
5(-0.003908384446 -0.00509774961 -0.00713409166 -0.007637103519 -0.007293138493)
5(-0.005005790118 -0.005896777609 -0.007451020917 -0.007666524826 -0.007218772916)
5(-0.005933376948 -0.006515859492 -0.007576929962 -0.007522622788 -0.006989727689)
5(-0.006508245637 -0.006854296646 -0.007488408846 -0.007206107731 -0.006635745425)
5(-0.006708307145 -0.006877812902 -0.007169214482 -0.006727854419 -0.006164598534)
5(-0.00650191575 -0.006577577026 -0.006625610038 -0.00608694218 -0.005575902586)
5(-0.005931542924 -0.005971478752 -0.005874655229 -0.005312548445 -0.004887201012)
5(-0.005003759238 -0.005080499871 -0.004937111508 -0.004404988364 -0.004092994216)
5(-0.003835489039 -0.003956591318 -0.003822914097 -0.003370627982 -0.003173121369)
5(-0.001411000438 -0.001600123592 -0.001916482731 -0.001970976596 -0.001898234476)
)


60
(
5(9.682263747e-06 1.731819648e-05 1.883331656e-05 1.757137145e-05 2.243023899e-05)
5(1.494893079e-05 1.601752442e-05 1.637609329e-05 1.485218976e-05 1.403831099e-05)
5(2.001744802e-05 1.71702027e-05 1.688231709e-05 1.521029808e-05 1.097891936e-05)
5(2.514347476e-05 2.078243075e-05 2.020124353e-05 1.814272169e-05 1.230434305e-05)
5(3.088773604e-05 2.641256223e-05 2.583751054e-05 2.3942744e-05 1.814785533e-05)
5(3.793671458e-05 3.36444258e-05 3.340667341e-05 3.218100661e-05 2.690080344e-05)
5(4.72069424e-05 4.267807791e-05 4.278339941e-05 4.16127905e-05 3.580799559e-05)
5(5.934882613e-05 5.376841839e-05 5.416916392e-05 5.216872609e-05 4.418713499e-05)
5(7.445886771e-05 6.730621294e-05 6.798542263e-05 6.482821898e-05 5.383915088e-05)
5(9.283426439e-05 8.412077234e-05 8.485543065e-05 7.988570113e-05 6.546782126e-05)
5(0.0001149821304 0.0001047440468 0.0001050009916 9.776398098e-05 8.003194191e-05)
5(0.0001416353241 0.0001298350738 0.0001289199989 0.0001178399089 9.587464356e-05)
5(0.0001735930145 0.0001596615861 0.0001565285058 0.0001402286643 0.0001131304747)
5(0.0002116463589 0.0001945604279 0.000187994562 0.0001644814095 0.0001304481921)
5(0.0002556407455 0.0002348316584 0.0002235571653 0.0001909378891 0.000148784019)
5(0.0003064542193 0.0002811126141 0.0002636380469 0.0002190635447 0.0001666220044)
5(0.0003636190164 0.0003335489206 0.0003075756152 0.0002485871392 0.0001855018728)
5(0.0004303561878 0.0003930617474 0.0003546831665 0.000277584512 0.0002015699978)
5(0.0005035755407 0.0004582251805 0.0004057344417 0.0003070318406 0.0002154696182)
5(0.0005844834257 0.0005299066568 0.0004591734446 0.0003344216525 0.0002258263035)
5(0.000672071067 0.0006073592204 0.0005144812332 0.0003593237455 0.0002323323983)
5(0.0007653167563 0.000688694513 0.0005695671789 0.0003798555225 0.000232648957)
5(0.0008673672784 0.0007749140774 0.0006233740304 0.000394720684 0.0002251541837)
5(0.0009728733471 0.000862825531 0.0006740943773 0.000405151962 0.0002148928842)
5(0.001080279315 0.0009519846747 0.0007219427234 0.0004037655063 0.0001873356002)
5(0.001193914353 0.001044686354 0.0007664675558 0.0003944438923 0.0001514110281)
5(0.0013016253 0.00113286287 0.0008055436051 0.0003760679514 0.0001051491333)
5(0.001409118549 0.001217887514 0.0008365917158 0.000344941337 4.335572024e-05)
5(0.001509928587 0.001296710546 0.0008587566737 0.0003020896158 -2.984161116e-05)
5(0.00161992387 0.001375223925 0.0008682345878 0.0002436443795 -0.0001186564377)
5(0.001716523535 0.001441195362 0.0008645566013 0.0001696203064 -0.0002240053998)
5(0.001801078911 0.001496062558 0.0008481076223 8.03684252e-05 -0.0003444321893)
5(0.001882515288 0.001543055681 0.0008145532349 -3.392445028e-05 -0.0004933592962)
5(0.001949770543 0.001576749455 0.0007612222931 -0.0001711632438 -0.0006610427064)
5(0.002005317229 0.001591012786 0.000683731285 -0.0003334950538 -0.0008577443337)
5(0.002039950396 0.001584341644 0.0005802323191 -0.0005255478597 -0.001082827467)
5(0.002041481739 0.001552946259 0.0004521155492 -0.0007452598709 -0.001330340062)
5(0.002031602688 0.0014998084 0.0002928583571 -0.0009979088292 -0.001613520261)
5(0.001995035767 0.001413348748 9.311426939e-05 -0.001297452453 -0.001949471715)
5(0.001925849993 0.001292649922 -0.0001440087285 -0.001664138833 -0.002380810359)
5(0.001829386054 0.001138440388 -0.0004289440507 -0.002112987921 -0.00292059302)
5(0.001694043957 0.0009493081767 -0.000774950613 -0.002655119474 -0.003555765327)
5(0.00152293609 0.0007245627017 -0.001203594038 -0.00327143686 -0.004209496331)
5(0.001336089491 0.0004709764659 -0.001736851852 -0.003955962012 -0.004832356878)
5(0.001098951312 0.0001604635146 -0.002367179808 -0.004694008553 -0.005431681772)
5(0.000822491444 -0.0002471741104 -0.003092919114 -0.005448994818 -0.006028991072)
5(0.0005466904233 -0.0007584177449 -0.003903580543 -0.006190020828 -0.006636406485)
5(0.0001646354528 -0.001402660883 -0.004756530898 -0.006898419181 -0.007253733783)
5(-0.0003804156451 -0.002165522297 -0.005610305009 -0.007552467134 -0.007834953199)
5(-0.001183923695 -0.003029166009 -0.006419051847 -0.008127268323 -0.008290841274)
5(-0.002195914654 -0.003964647763 -0.007151925647 -0.008595421931 -0.008620373439)
5(-0.003279120433 -0.004910811848 -0.007791976224 -0.00891524745 -0.008789045713)
5(-0.004341136991 -0.005805092323 -0.008289098227 -0.009042026737 -0.008774904676)
5(-0.005267656866 -0.00656114584 -0.00860919296 -0.008982589751 -0.008601428397)
5(-0.006014757444 -0.007132713012 -0.008703406792 -0.008691195285 -0.008226245566)
5(-0.006429220976 -0.007394791595 -0.008524031406 -0.008178220427 -0.007668740255)
5(-0.006565952161 -0.007348052737 -0.008048666267 -0.007468643629 -0.006970108038)
5(-0.006295728286 -0.006916391443 -0.007276505395 -0.006582152483 -0.006148348775)
5(-0.005511840367 -0.005985786248 -0.006167048899 -0.005543793717 -0.005213221766)
5(-0.002840407965 -0.003270442608 -0.004041761164 -0.003821790035 -0.003260534992)
)


60
(
5(1.227880848e-05 2.053831722e-05 2.338573413e-05 2.262185072e-05 2.727005912e-05)
5(1.79365833e-05 1.948982773e-05 2.091368402e-05 2.011636036e-05 1.944842485e-05)
5(2.368276862e-05 2.128949769e-05 2.186031837e-05 2.087869114e-05 1.693297229e-05)
5(2.957020114e-05 2.577535111e-05 2.602675894e-05 2.499800629e-05 1.992299579e-05)
5(3.625807405e-05 3.249209505e-05 3.290147397e-05 3.206849032e-05 2.706014876e-05)
5(4.454235802e-05 4.116331094e-05 4.203462927e-05 4.171168317e-05 3.713837168e-05)
5(5.518067693e-05 5.186713156e-05 5.321009056e-05 5.292135273e-05 4.797611054e-05)
5(6.941007235e-05 6.514983183e-05 6.659502466e-05 6.514326845e-05 5.79860789e-05)
5(8.687365365e-05 8.118614883e-05 8.275992888e-05 7.963678934e-05 6.925236494e-05)
5(0.0001081922963 0.000101009806 0.0001022448233 9.69470886e-05 8.32318463e-05)
5(0.0001334168937 0.0001249513216 0.0001255397251 0.0001170780535 9.956240633e-05)
5(0.0001639297856 0.0001539123296 0.0001527419371 0.0001398971485 0.0001182052964)
5(0.0001997638363 0.000187871342 0.0001840090033 0.0001644771658 0.0001369151727)
5(0.0002415154463 0.0002271985803 0.0002194704488 0.0001914746486 0.000156890114)
5(0.000290536101 0.0002726960692 0.0002591519922 0.0002203638443 0.0001772797417)
5(0.0003470473931 0.000324871366 0.000303298524 0.0002512611217 0.0001986205342)
5(0.0004110740743 0.0003835890526 0.0003514801383 0.0002832221793 0.000219588113)
5(0.0004823439067 0.0004486556303 0.0004040439106 0.0003153453894 0.0002375703115)
5(0.0005619901343 0.0005208364657 0.0004601275235 0.0003481754109 0.0002557785719)
5(0.0006497481109 0.0005995416221 0.0005188441581 0.0003777124002 0.0002670716174)
5(0.0007432446602 0.0006830444293 0.0005789976858 0.0004055508138 0.0002759504543)
5(0.0008473831004 0.0007735828585 0.0006394467193 0.0004294583421 0.0002798058621)
5(0.0009542244287 0.0008667127584 0.0006990242839 0.0004472138878 0.0002755802958)
5(0.001066065557 0.0009630322587 0.0007569183761 0.0004585645463 0.0002632913006)
5(0.001181302381 0.001061217855 0.0008120708837 0.0004630057005 0.0002430029638)
5(0.001301078313 0.001160748044 0.0008626225208 0.0004554822041 0.0002061371414)
5(0.001419776457 0.001257934416 0.0009075654069 0.0004394400243 0.0001598416091)
5(0.00153835804 0.001353154379 0.0009443703535 0.0004105866095 0.0001003832297)
5(0.001650995672 0.00144253967 0.0009725069408 0.0003711250493 3.131988552e-05)
5(0.001765727255 0.001528483357 0.0009901406016 0.0003160395243 -5.69626952e-05)
5(0.001866899067 0.001603613192 0.0009962540783 0.0002474002901 -0.0001573802597)
5(0.001966839705 0.001673702439 0.0009891427469 0.0001607763946 -0.0002761675318)
5(0.002061026222 0.001731785547 0.0009647979312 5.486983187e-05 -0.0004173113265)
5(0.002140115075 0.001777530173 0.0009245877401 -7.612586483e-05 -0.0005864819391)
5(0.002208124797 0.00180818395 0.0008635063449 -0.0002256147074 -0.0007699990021)
5(0.00225203775 0.001817222095 0.00077961463 -0.0004052814732 -0.0009873857652)
5(0.002294578938 0.00181616624 0.0006714406204 -0.0006132303405 -0.001231588381)
5(0.002308054207 0.001784588311 0.0005319012148 -0.0008499034472 -0.001502486909)
5(0.002311721991 0.001737575394 0.0003626575704 -0.001131465415 -0.001824817173)
5(0.002280101696 0.001661813609 0.0001616748116 -0.001478007171 -0.002235838442)
5(0.002241998604 0.001559245769 -8.302573082e-05 -0.001913417866 -0.002784291337)
5(0.002180737603 0.001434572576 -0.0003833061636 -0.002415662404 -0.003376304931)
5(0.002101780356 0.001287960284 -0.0007551910135 -0.003006716437 -0.004028910635)
5(0.0020224126 0.001131846648 -0.001218067382 -0.003660945364 -0.004644475269)
5(0.00192224597 0.0009398930718 -0.001765093985 -0.004379837535 -0.005271946925)
5(0.001800326045 0.0006770420689 -0.00239577075 -0.005126491471 -0.005907683348)
5(0.001702233341 0.0003368860567 -0.003101951365 -0.005883530171 -0.006591618838)
5(0.001460965595 -0.000150568661 -0.00387006391 -0.006653235381 -0.00732844586)
5(0.001102271951 -0.0007276354841 -0.004663798642 -0.007414833445 -0.008059612525)
5(0.0005426803772 -0.001400607344 -0.005453428226 -0.008157262131 -0.008751562874)
5(-0.0002606301449 -0.002207013973 -0.006262038729 -0.008849472921 -0.009328266187)
5(-0.001165687428 -0.003062979021 -0.007048902701 -0.009469488296 -0.009801441804)
5(-0.002027041842 -0.003974513737 -0.007851098604 -0.009942677169 -0.01010514276)