/*--------------------------------*- C++ -*----------------------------------*\
| =========                 |                                                 |
| \\      /  F ield         | OpenFOAM: The Open Source CFD Toolbox           |
|  \\    /   O peration     | Version:  2.3.1                                 |
|   \\  /    A nd           | Web:      www.OpenFOAM.org                      |
|    \\/     M anipulation  |                                                 |
\*---------------------------------------------------------------------------*/
FoamFile
{
    version     2.0;
    format      ascii;
    class       dictionary;
    location    "constant";
    object      GRPSI50;
}
// * * * * * * * * * * * * * * * * * * * * * * * * * * * * * * * * * * * * * //

GRPSI50_table
60
(

60
(
5(-0.188823034 -0.2171586419 -0.2181475008 -0.2052107876 -0.2196208233)
5(-0.158061793 -0.214209077 -0.2312817304 -0.2039476038 -0.2156881078)
5(-0.259961252 -0.2440013247 -0.206989311 -0.1626268782 -0.1393165317)
5(-0.3204615187 -0.2757395269 -0.1917410414 -0.2114864199 -0.2705082923)
5(-0.2764159868 -0.2535365345 -0.2059974945 -0.1977992466 -0.2142605865)
5(-0.2138469417 -0.2057288427 -0.207886472 -0.2048523534 -0.1915425063)
5(-0.1962364698 -0.2011143644 -0.2029939844 -0.2145248793 -0.2290540488)
5(-0.217314047 -0.2197591735 -0.2063130411 -0.1877129608 -0.1850041394)
5(-0.2060114957 -0.210803881 -0.2065491359 -0.1984970224 -0.1994920394)
5(-0.2109073602 -0.2165225074 -0.203984011 -0.1959501117 -0.206069856)
5(-0.2087931769 -0.2150286625 -0.2044394841 -0.1964875708 -0.2053603213)
5(-0.2091309549 -0.212138068 -0.2044079253 -0.1971250257 -0.200579382)
5(-0.2139111193 -0.2133138776 -0.2055315725 -0.1991017514 -0.1998569937)
5(-0.2094836378 -0.2111842377 -0.2030153999 -0.1973156228 -0.2014852833)
5(-0.2118219764 -0.212246145 -0.2050159351 -0.1981038599 -0.1988461632)
5(-0.2108414603 -0.2120921818 -0.204810182 -0.1975674793 -0.1988574978)
5(-0.2103917221 -0.21201997 -0.20501196 -0.1984191385 -0.2004625749)
5(-0.2104014664 -0.2120674298 -0.205721951 -0.1986900837 -0.1996696586)
5(-0.2111207167 -0.2123229768 -0.2053294096 -0.198599735 -0.2000658878)
5(-0.2115448722 -0.2122151023 -0.2055942796 -0.1975664972 -0.1968297677)
5(-0.2105498148 -0.2115724583 -0.2058683339 -0.1981744227 -0.1972072794)
5(-0.2100705463 -0.2117855803 -0.2032476457 -0.1959501554 -0.1989056336)
5(-0.2091821539 -0.2107319545 -0.2044268043 -0.1975407487 -0.1985096439)
5(-0.2116185579 -0.2111120722 -0.2033897885 -0.1969741673 -0.197774344)
5(-0.2109582004 -0.2110321696 -0.2039000622 -0.1969568815 -0.1972197774)
5(-0.2105330788 -0.2118245395 -0.2048441215 -0.1956027496 -0.1946332564)
5(-0.209227357 -0.2105653438 -0.2053549346 -0.1962437634 -0.1936809883)
5(-0.2096234644 -0.2112151606 -0.2052200822 -0.1951569885 -0.1926806696)
5(-0.2086741366 -0.2096668296 -0.2040065721 -0.1953728382 -0.1933920549)
5(-0.2093532183 -0.2089883863 -0.2019441547 -0.1945682094 -0.1938716637)
5(-0.2088684505 -0.2087752753 -0.2017991276 -0.1934248671 -0.1919335792)
5(-0.2078277047 -0.2074524748 -0.1999622648 -0.1903707802 -0.1878942756)
5(-0.2081174502 -0.2073738218 -0.1989653418 -0.1919540362 -0.1926075822)
5(-0.2079673242 -0.2072608623 -0.1972232042 -0.186876157 -0.1858603061)
5(-0.2064568418 -0.2058711748 -0.1963621549 -0.1862104905 -0.1849821789)
5(-0.2074495005 -0.2069417761 -0.1946487933 -0.1830067865 -0.1831500379)
5(-0.203635071 -0.2026130249 -0.1932510512 -0.1853450643 -0.185779005)
5(-0.2044272228 -0.2015130829 -0.1918800765 -0.1762720056 -0.1673828012)
5(-0.2021966626 -0.2008315126 -0.1899037825 -0.1813276629 -0.1823141234)
5(-0.1996539197 -0.2000988641 -0.1889884243 -0.1494990734 -0.1215651067)
5(-0.1964889182 -0.1966926623 -0.1872436641 -0.1531831726 -0.1287754237)
5(-0.1957089872 -0.1949025001 -0.1762971301 -0.1549109667 -0.1513236862)
5(-0.19174213 -0.1917908574 -0.1548458588 -0.1589645468 -0.2000769608)
5(-0.1917414601 -0.1960400058 -0.1547712844 -0.1568021854 -0.2044003535)
5(-0.1882612735 -0.1916292484 -0.1585205659 -0.1607840574 -0.1995242062)
5(-0.1899832199 -0.1874402556 -0.1601733119 -0.1674144 -0.1993794675)
5(-0.1850790849 -0.1635386275 -0.1654353859 -0.193949579 -0.1990265563)
5(-0.1720060263 -0.1581324678 -0.1758569977 -0.2029727366 -0.1984903871)
5(-0.1742559739 -0.1596790512 -0.1772072663 -0.2035868597 -0.1978613153)
5(-0.1228977377 -0.1636809966 -0.2069632022 -0.2031098409 -0.196757533)
5(-0.1357912972 -0.1702364349 -0.2063478019 -0.2020371832 -0.196060335)
5(-0.1844758982 -0.1944286853 -0.2058166214 -0.2009702014 -0.1946886324)
5(-0.2017980847 -0.2029452319 -0.2052395097 -0.200083085 -0.1937795297)
5(-0.2053228578 -0.2039634125 -0.2043473714 -0.1988383066 -0.1915858377)
5(-0.2032827718 -0.2024267968 -0.202905958 -0.1972113529 -0.1901816117)
5(-0.1994823111 -0.2000006195 -0.2015125374 -0.1951531123 -0.1878000776)
5(-0.189460886 -0.194615023 -0.199275757 -0.1899614465 -0.1811405389)
5(-0.1854137757 -0.1892951293 -0.1919436803 -0.1862791189 -0.1818473601)
5(-0.1861500138 -0.188084759 -0.168464027 -0.1723671376 -0.1978257255)
5(-0.1993623292 -0.1962476859 -0.1973690935 -0.1782119564 -0.1548187682)
)


60
(
5(-0.2076365661 -0.2168732325 -0.2131204446 -0.2053686127 -0.2106062352)
5(-0.2114227506 -0.2161778647 -0.2111682532 -0.2046453612 -0.2078871948)
5(-0.2139259954 -0.2156722104 -0.2101357344 -0.2037952237 -0.2047374039)
5(-0.2146229181 -0.2157307581 -0.2099013512 -0.2035303673 -0.2040966303)
5(-0.214369229 -0.2160658222 -0.21005405 -0.2037966379 -0.2052475913)
5(-0.2134630414 -0.2160437656 -0.2100754584 -0.2040636575 -0.206600888)
5(-0.2132492388 -0.2158225849 -0.210134345 -0.2042573639 -0.2066419687)
5(-0.2133383227 -0.2158598686 -0.2101538805 -0.2041035204 -0.2062806945)
5(-0.2133475177 -0.2158161501 -0.2100965801 -0.2040109318 -0.2061134858)
5(-0.2132198724 -0.2156941368 -0.2100687954 -0.203870016 -0.2057708425)
5(-0.2134558748 -0.2157396387 -0.2099973302 -0.2038813241 -0.2057913904)
5(-0.2132014122 -0.2156907203 -0.209965703 -0.2038423852 -0.2059333929)
5(-0.2131762058 -0.2156545694 -0.2098605504 -0.2037230694 -0.205857971)
5(-0.2131275812 -0.2156007699 -0.2098681525 -0.2036481671 -0.205633988)
5(-0.2130463715 -0.2155265272 -0.2097930336 -0.2035536534 -0.2055279224)
5(-0.2129806763 -0.2154621995 -0.2096711298 -0.2033812267 -0.2053639165)
5(-0.2130022284 -0.2154602469 -0.2095888723 -0.2031810003 -0.2051025214)
5(-0.2129893822 -0.2153980231 -0.2094293817 -0.2029872158 -0.2049223322)
5(-0.2128404375 -0.2153008555 -0.2093216998 -0.2027733222 -0.2046645185)
5(-0.2127728357 -0.2151929965 -0.2091671106 -0.2025843185 -0.2044475731)
5(-0.2126963988 -0.215089567 -0.2089490747 -0.2022679621 -0.2041205099)
5(-0.2126671855 -0.2149530746 -0.2087591702 -0.2019794109 -0.2036794453)
5(-0.2125254218 -0.2147964206 -0.2085338289 -0.2016707351 -0.2033412318)
5(-0.212321789 -0.2145941092 -0.2081878054 -0.2012533991 -0.2029976168)
5(-0.2121463697 -0.2143502724 -0.207899345 -0.2008753498 -0.2025061846)
5(-0.2119121635 -0.2141517637 -0.2075559447 -0.200328099 -0.2019356725)
5(-0.2115697406 -0.2138476736 -0.2072203108 -0.1998071582 -0.2012993015)
5(-0.2113700426 -0.2135002462 -0.2067397669 -0.1992220569 -0.2005950299)
5(-0.2111013488 -0.2131436366 -0.2061926997 -0.1986219303 -0.2000443857)
5(-0.2106670996 -0.2126888447 -0.2056611121 -0.1979083202 -0.199205006)
5(-0.2102180824 -0.2122066371 -0.2050436879 -0.1971899853 -0.1984877865)
5(-0.2097114329 -0.2116056086 -0.2043765774 -0.1964362319 -0.1976190931)
5(-0.2091420401 -0.2110119838 -0.2036267414 -0.195551342 -0.1967311288)
5(-0.2084770333 -0.210297072 -0.2028230646 -0.1946562126 -0.1957834065)
5(-0.2077884139 -0.2095492588 -0.2019450516 -0.1937103872 -0.194840775)
5(-0.2069369259 -0.2086737653 -0.2010266526 -0.192688649 -0.1937345975)
5(-0.2060782771 -0.207788459 -0.1999828358 -0.1916262784 -0.1927855261)
5(-0.205103229 -0.2067491351 -0.1988969322 -0.1905584617 -0.1917181002)
5(-0.2039012984 -0.2056426672 -0.1978842959 -0.1894599546 -0.1905353533)
5(-0.2028545175 -0.2044978128 -0.1966660897 -0.1883352984 -0.1894795253)
5(-0.2014430348 -0.2031723777 -0.1955577362 -0.1872555896 -0.1882974274)
5(-0.2004016596 -0.2019670099 -0.1942280873 -0.186056091 -0.1871883678)
5(-0.1989421555 -0.200556489 -0.1929784964 -0.1849122747 -0.1860383792)
5(-0.1972921636 -0.1991568569 -0.1918808791 -0.1838174073 -0.1848946065)
5(-0.1960094617 -0.1977371488 -0.190623572 -0.1828289755 -0.1838756429)
5(-0.1947158945 -0.1964287221 -0.1894603332 -0.1818956698 -0.183012223)
5(-0.1934547108 -0.1951912142 -0.1883905649 -0.1810530824 -0.1822527526)
5(-0.1921672278 -0.1940641371 -0.1874914839 -0.1803084632 -0.1815950051)
5(-0.1911565057 -0.1929838208 -0.1866126772 -0.1798077518 -0.1812012851)
5(-0.1904892931 -0.1921131093 -0.1859283025 -0.1795035977 -0.1808875158)
5(-0.189872079 -0.1913354958 -0.1854097777 -0.1794237829 -0.180826923)
5(-0.1895258984 -0.1907536542 -0.1851098649 -0.1796257363 -0.1810131529)
5(-0.1893123275 -0.1903740158 -0.1850103778 -0.1798338042 -0.181082557)
5(-0.1892386187 -0.1902381384 -0.1852126111 -0.1803324003 -0.1814772365)
5(-0.1898056416 -0.1904220392 -0.1855183578 -0.1807869852 -0.1815756916)
5(-0.1906068877 -0.1908397416 -0.1859486116 -0.1812027883 -0.1815809488)
5(-0.1917763372 -0.1915493899 -0.1864169579 -0.1813621879 -0.1812129025)
5(-0.1932995927 -0.192363183 -0.186760536 -0.1812678301 -0.1804413615)
5(-0.1953826481 -0.1935421409 -0.1869490562 -0.1805938318 -0.1789911848)
5(-0.2045613239 -0.1826447207 -0.1806021423 -0.198151433 -0.1958266988)
)


60
(
5(-0.2119686354 -0.2162823497 -0.211606031 -0.2052335077 -0.2078510174)
5(-0.2130299875 -0.2162606114 -0.2110591283 -0.2052311429 -0.2078352647)
5(-0.2133879951 -0.2161893102 -0.2108877711 -0.2049882492 -0.2071915815)
5(-0.2135172136 -0.21621657 -0.2108585486 -0.2049010576 -0.2070009445)
5(-0.2133458292 -0.2162464931 -0.2108938073 -0.2049957966 -0.2073511356)
5(-0.2132360828 -0.216229731 -0.2108673237 -0.2050483245 -0.2075853809)
5(-0.2131559251 -0.2162001294 -0.2109127392 -0.2050633583 -0.2075455717)
5(-0.2131740491 -0.2161936062 -0.2108825319 -0.205007315 -0.2074627297)
5(-0.2131144026 -0.2161623987 -0.2108524679 -0.2048935302 -0.2072925194)
5(-0.2130887281 -0.2161166675 -0.2108094234 -0.204897285 -0.20732033)
5(-0.2130971983 -0.2161399138 -0.2107726505 -0.2047804743 -0.2071982769)
5(-0.2130340006 -0.2161029409 -0.2107184714 -0.2046801663 -0.207095271)
5(-0.2129826664 -0.216034647 -0.2106247742 -0.204552061 -0.2069412012)
5(-0.2129632519 -0.2159707577 -0.2105243857 -0.2044228813 -0.2067752547)
5(-0.2128752451 -0.2159129536 -0.2104196661 -0.2042385682 -0.2065884661)
5(-0.2128660312 -0.2158403848 -0.2102911857 -0.2040679238 -0.2063682146)
5(-0.2126959552 -0.2157413929 -0.210190642 -0.2038491311 -0.2061038087)
5(-0.2126113046 -0.215612852 -0.2100368314 -0.2036151121 -0.2057709607)
5(-0.2125393317 -0.2155261965 -0.2098359332 -0.2033210227 -0.2054832403)
5(-0.2124034455 -0.2153660622 -0.2096452013 -0.2030560854 -0.2051504472)
5(-0.2123572145 -0.2152542926 -0.2094068212 -0.2027530174 -0.204843763)
5(-0.212179229 -0.2150213864 -0.2091173514 -0.2024121144 -0.2044530697)
5(-0.2120386945 -0.2148571601 -0.2088679605 -0.2020107045 -0.2039611136)
5(-0.2118443126 -0.214633041 -0.2085463635 -0.20159832 -0.2035256825)
5(-0.2116488187 -0.2144010578 -0.2082019066 -0.2011484314 -0.2030463466)
5(-0.2113821757 -0.2140902877 -0.2078224743 -0.2006418341 -0.2024371193)
5(-0.2110416449 -0.2137398386 -0.2074135623 -0.2001549476 -0.2019208027)
5(-0.210866985 -0.2134422487 -0.2069498534 -0.1995393667 -0.2011965391)
5(-0.2104093238 -0.212988769 -0.2064253871 -0.198956732 -0.2006309039)
5(-0.2100257802 -0.212566783 -0.2059119114 -0.1982586205 -0.199801204)
5(-0.2096341044 -0.2120719356 -0.205262753 -0.1975555385 -0.1990953378)
5(-0.2091173793 -0.2114954545 -0.2046076553 -0.1968295376 -0.1983172942)
5(-0.2084860318 -0.2109102341 -0.2039449278 -0.1960065767 -0.1974577342)
5(-0.2079666931 -0.2102474631 -0.2031439691 -0.1951655735 -0.196571442)
5(-0.2072707884 -0.2094818066 -0.2023433246 -0.1943439841 -0.1956941438)
5(-0.2066525916 -0.2087835853 -0.2014606982 -0.1934099687 -0.1948131202)
5(-0.2057874273 -0.2079052968 -0.2005431631 -0.1924522283 -0.1938412966)
5(-0.2048716515 -0.2069473682 -0.1995688734 -0.1914874631 -0.192860264)
5(-0.2039190836 -0.2059328464 -0.1985524271 -0.1905180373 -0.1918778296)
5(-0.2028148484 -0.2048328119 -0.1975157858 -0.1896293202 -0.1910778443)
5(-0.2017560283 -0.2037502635 -0.196405362 -0.188794356 -0.1905224867)
5(-0.2005375052 -0.2024958893 -0.1953027451 -0.1880628492 -0.1899744816)
5(-0.1992859358 -0.2012078385 -0.1942464645 -0.187378593 -0.1893939982)
5(-0.1980175398 -0.1998530485 -0.1932728039 -0.1867069117 -0.1885567728)
5(-0.1966296954 -0.1984885561 -0.1924681312 -0.1860940367 -0.1875992277)
5(-0.1953431775 -0.1972829943 -0.1916479516 -0.1853544886 -0.1866358851)
5(-0.1941424163 -0.19626154 -0.1908937761 -0.1845888298 -0.1857707711)
5(-0.193076968 -0.1954127731 -0.1902075598 -0.1838390425 -0.1850115436)
5(-0.192285876 -0.1947536562 -0.1895574692 -0.1831148403 -0.1843361788)
5(-0.1921355089 -0.194298376 -0.1887875569 -0.1824006452 -0.1836874198)
5(-0.1922558062 -0.1939503932 -0.1880665971 -0.1817582574 -0.1830283008)
5(-0.1925029952 -0.19364798 -0.1873911736 -0.181209975 -0.1824305674)
5(-0.1926409287 -0.1933587544 -0.1867902312 -0.1807037098 -0.1819035372)
5(-0.1927383667 -0.1930327494 -0.1862454375 -0.1802171539 -0.1812705648)
5(-0.1926379856 -0.1926909513 -0.1858563781 -0.1798068658 -0.1806448925)
5(-0.1926722239 -0.1924549236 -0.1855199403 -0.1793408137 -0.1798793701)
5(-0.1929708158 -0.1923324601 -0.1852502459 -0.1788546656 -0.1789029438)
5(-0.1936275323 -0.192505937 -0.1850485241 -0.1782251694 -0.1777376322)
5(-0.195660913 -0.1936199146 -0.1854141881 -0.1778237864 -0.1763981128)
5(-0.2036368258 -0.1816911862 -0.1755866487 -0.1961358461 -0.2008439413)
)


60
(
5(-0.2136794586 -0.2154521414 -0.2102622835 -0.2049003843 -0.2065010259)
5(-0.2131859952 -0.2159336424 -0.2106934153 -0.2053226737 -0.2079398064)
5(-0.2127126881 -0.2161136304 -0.2109976172 -0.2053938262 -0.2083069907)
5(-0.2125250615 -0.2160878128 -0.2110686896 -0.2054588993 -0.2084309834)
5(-0.212565862 -0.21603552 -0.2110587092 -0.2054808786 -0.2083495168)
5(-0.2126834546 -0.2160293831 -0.2110511843 -0.2054365491 -0.2081460412)
5(-0.2127757909 -0.2160420584 -0.2110218411 -0.2053962283 -0.2080571003)
5(-0.2127304511 -0.2160452122 -0.2110121246 -0.205359266 -0.2080542562)
5(-0.2126577965 -0.21607036 -0.2110301664 -0.2052785939 -0.2079797786)
5(-0.2126529505 -0.2160584564 -0.2109884066 -0.2052045516 -0.2078962521)
5(-0.2125793061 -0.2160170684 -0.2109300445 -0.2050768532 -0.2077484481)
5(-0.2125844941 -0.215970207 -0.21082469 -0.2049576775 -0.2076218947)
5(-0.2125488664 -0.2159119207 -0.2107457995 -0.2048194929 -0.2074223616)
5(-0.212466555 -0.2158259523 -0.2106483742 -0.2046297876 -0.2071481763)
5(-0.2123312428 -0.2157325318 -0.2105229872 -0.2044533996 -0.2069946456)
5(-0.2122683179 -0.2156454072 -0.210361196 -0.2042221538 -0.2067444122)
5(-0.2122147922 -0.2155513494 -0.2102169924 -0.2039837024 -0.2064213265)
5(-0.2120429987 -0.215378722 -0.2100252417 -0.2037447911 -0.2061535442)
5(-0.2119909526 -0.2152689106 -0.2098079874 -0.2034241289 -0.2057791515)
5(-0.2118202975 -0.2150666106 -0.2095592492 -0.2031464181 -0.2054872616)
5(-0.2116291032 -0.2149101407 -0.2093572403 -0.2027857277 -0.2050481531)
5(-0.211563533 -0.2147225919 -0.2090215382 -0.2023935333 -0.2046256408)
5(-0.2113716149 -0.2145107591 -0.208760663 -0.2019895799 -0.2041077371)
5(-0.2110923694 -0.2141885229 -0.2084433592 -0.2015925199 -0.2035829978)
5(-0.2108190901 -0.2139447032 -0.2080922662 -0.2011278803 -0.2031415444)
5(-0.210615935 -0.2136437083 -0.2076628677 -0.2006110448 -0.2025678359)
5(-0.2103275847 -0.2133033438 -0.2072250378 -0.2000616432 -0.2019523138)
5(-0.2100193725 -0.2129287803 -0.2067472975 -0.1995065777 -0.2013567488)
5(-0.2096634744 -0.2125136421 -0.206204785 -0.1988555278 -0.2006652955)
5(-0.2092624679 -0.2120598911 -0.2056737907 -0.1982271789 -0.1999640906)
5(-0.2088199424 -0.2115647643 -0.2050647712 -0.197500675 -0.1991813936)
5(-0.2083237085 -0.2109606173 -0.2044126912 -0.1968355339 -0.1984432115)
5(-0.2077711953 -0.2104109906 -0.2037060089 -0.1959984223 -0.1976356128)
5(-0.2071824031 -0.2097523803 -0.2029698503 -0.1952184334 -0.1968195235)
5(-0.2065192057 -0.209029606 -0.2021780952 -0.1943623596 -0.1959085351)
5(-0.2058244979 -0.2082627932 -0.2013333119 -0.1935161347 -0.1950667341)
5(-0.2050478069 -0.2073981193 -0.2004420383 -0.1926266412 -0.1941176375)
5(-0.2042092017 -0.2065162796 -0.1994781531 -0.1916171698 -0.1931013911)
5(-0.2033086051 -0.2055451698 -0.1984660297 -0.1906997954 -0.1922492658)
5(-0.2023254312 -0.2045143603 -0.1974104199 -0.1898164897 -0.191515429)
5(-0.2012749194 -0.2034087868 -0.1963168142 -0.1891063637 -0.1911217531)
5(-0.2002006866 -0.2022420811 -0.1952129231 -0.1884825967 -0.1908228229)
5(-0.1990589289 -0.2009840411 -0.1941878738 -0.1878956991 -0.1903248038)
5(-0.1979157435 -0.1996907944 -0.1932692789 -0.1873113242 -0.1895499357)
5(-0.1967732667 -0.198430292 -0.1924434474 -0.186686248 -0.1885729184)
5(-0.1956555666 -0.1972896442 -0.1916930427 -0.1860457585 -0.1876291536)
5(-0.1946204916 -0.1964442306 -0.1910406586 -0.1852869175 -0.1867604875)
5(-0.1937974558 -0.1957946736 -0.190431587 -0.1845157627 -0.185960243)
5(-0.1935239853 -0.1954828297 -0.1898433903 -0.1837524596 -0.1852598128)
5(-0.1936594322 -0.1953253482 -0.1892475457 -0.1829888621 -0.1844738971)
5(-0.1943142816 -0.1953984371 -0.1886620302 -0.1822531132 -0.1836647584)
5(-0.1952239379 -0.1956003389 -0.1881418064 -0.1815575555 -0.1828082379)
5(-0.1960244628 -0.1957699684 -0.1876436126 -0.1808271562 -0.1818825612)
5(-0.1965854754 -0.1958650659 -0.1871930199 -0.1800799072 -0.1809184309)
5(-0.196868356 -0.1958255496 -0.1867793771 -0.1793492124 -0.1799224136)
5(-0.1970812 -0.1957447482 -0.1863563597 -0.1785602353 -0.1788160475)
5(-0.1971190665 -0.1956528663 -0.1860875769 -0.177777067 -0.1775656461)
5(-0.197519 -0.1957815304 -0.1859301405 -0.1771030664 -0.1763899126)
5(-0.1990273215 -0.196545861 -0.1864239304 -0.1770130609 -0.1752426615)
5(-0.1792018892 -0.1816195785 -0.1928163661 -0.1899194279 -0.1782433915)
)


60
(
5(-0.2143131642 -0.2144819152 -0.2089016931 -0.2044081147 -0.2056635096)
5(-0.2129058252 -0.2154115591 -0.2101080982 -0.2051446864 -0.2079904694)
5(-0.2119446262 -0.2157423935 -0.2107768244 -0.2054456151 -0.2088777421)
5(-0.2115915001 -0.2156792094 -0.210931372 -0.2056075872 -0.2091193492)
5(-0.2117262487 -0.2155935933 -0.2109040046 -0.2056112091 -0.2088753468)
5(-0.2120163423 -0.2156000953 -0.2108691967 -0.2055095482 -0.2084645513)
5(-0.2121615551 -0.2156423721 -0.2108560627 -0.2054416365 -0.2082943365)
5(-0.2121142674 -0.2156619191 -0.210884632 -0.2054189252 -0.2082781572)
5(-0.2120337796 -0.2156863459 -0.2108732995 -0.205344261 -0.2082808353)
5(-0.2119466205 -0.2156832805 -0.2108707494 -0.2052440746 -0.2081665909)
5(-0.2119337566 -0.2156454592 -0.2107740633 -0.2050972064 -0.208003448)
5(-0.2118969777 -0.2155855042 -0.2107074184 -0.2049564056 -0.207772005)
5(-0.2118278298 -0.2155191856 -0.2105961756 -0.2047701962 -0.2075585825)
5(-0.211837791 -0.2154454642 -0.2104676065 -0.2046069138 -0.2073317521)
5(-0.2116857949 -0.2153336641 -0.2103246107 -0.2043757627 -0.2070838373)
5(-0.2115916074 -0.2151788614 -0.2101541767 -0.2041647387 -0.2067872392)
5(-0.2114717323 -0.215075226 -0.2099876217 -0.2038885567 -0.2064805898)
5(-0.2113548423 -0.214932617 -0.2097426308 -0.2035985063 -0.2062221426)
5(-0.211235051 -0.214752296 -0.2095436111 -0.2033052257 -0.2057927702)
5(-0.2110663468 -0.2145713435 -0.2092937024 -0.2029678444 -0.2054246241)
5(-0.2108921786 -0.21437992 -0.2090274703 -0.202607551 -0.205027823)
5(-0.2107075284 -0.2141426142 -0.2087328861 -0.2022131205 -0.2045381686)
5(-0.2104982082 -0.2138987897 -0.2084196357 -0.2018182853 -0.2040966703)
5(-0.2102810763 -0.213641721 -0.2080798565 -0.2013669456 -0.2035765438)
5(-0.210037812 -0.2133516951 -0.2077056963 -0.2008998352 -0.203053856)
5(-0.2096750487 -0.2130152041 -0.2073383111 -0.200391941 -0.2024626193)
5(-0.2094613874 -0.2126493018 -0.2068310702 -0.1998627834 -0.2019006428)
5(-0.2091313197 -0.2122717747 -0.2063515943 -0.1992905584 -0.2012901579)
5(-0.2087603717 -0.2118568756 -0.2058402471 -0.1986600631 -0.2005930117)
5(-0.2083743101 -0.2114035588 -0.205284553 -0.1979976904 -0.1998590822)
5(-0.2079387674 -0.2108881191 -0.2046748067 -0.1973101832 -0.1991082239)
5(-0.2074463681 -0.2103270602 -0.2040139521 -0.1965483321 -0.1982765123)
5(-0.2069288945 -0.2097235031 -0.2033054923 -0.1958159099 -0.1975389468)
5(-0.2063146867 -0.2090721586 -0.2025717506 -0.1950106031 -0.1967073357)
5(-0.2056966248 -0.2083774459 -0.2017810438 -0.1941807563 -0.1958576919)
5(-0.2050277893 -0.2076338568 -0.2009349888 -0.1933022332 -0.1949744132)
5(-0.2042795235 -0.2068039191 -0.2000298062 -0.1923820252 -0.1940327528)
5(-0.2035011426 -0.2059209177 -0.1990659111 -0.1914024353 -0.1930137411)
5(-0.2026758972 -0.2049781991 -0.1980357776 -0.1904412639 -0.1920914736)
5(-0.2017833981 -0.2039863114 -0.1969692188 -0.1895651639 -0.1913811148)
5(-0.2008464059 -0.202947845 -0.1958551179 -0.1888030181 -0.1909450846)
5(-0.1998801008 -0.201862585 -0.1947538421 -0.1881275273 -0.1905924395)
5(-0.198944528 -0.2007244507 -0.1937284583 -0.1875207698 -0.1900889964)
5(-0.1980715709 -0.1995902544 -0.1928038128 -0.1868743679 -0.1892500481)
5(-0.1972475738 -0.1985124784 -0.1919944969 -0.1861962682 -0.1881809256)
5(-0.1964301445 -0.1976047451 -0.1912630622 -0.18541992 -0.1870930615)
5(-0.1957172752 -0.1969719613 -0.1906466753 -0.1845957825 -0.1861248618)
5(-0.1951776671 -0.1965757837 -0.190100889 -0.1837728669 -0.185317856)
5(-0.1950706703 -0.1964660612 -0.1896741464 -0.182997199 -0.1845075574)
5(-0.1955444146 -0.1966364387 -0.189263095 -0.1822741824 -0.1837506376)
5(-0.1964832253 -0.1970126195 -0.1889371717 -0.1816436691 -0.1829550084)
5(-0.1975612096 -0.1975397581 -0.188765585 -0.1810716418 -0.1821304203)
5(-0.1986490466 -0.1981485164 -0.1886902124 -0.1805115674 -0.1812906963)
5(-0.1996092175 -0.1987654076 -0.1887287664 -0.1799546542 -0.1803733733)
5(-0.2004328479 -0.1992930512 -0.1887693443 -0.1793745939 -0.1793637537)
5(-0.2010749626 -0.1997428721 -0.1887899009 -0.178723701 -0.178278382)
5(-0.2016111587 -0.200109579 -0.1888214953 -0.178076077 -0.1771171624)
5(-0.2021371463 -0.2002840004 -0.1889171056 -0.1777597832 -0.1761162096)
5(-0.20291375 -0.2005735473 -0.1896120203 -0.1782899325 -0.1755891691)
5(-0.1893535792 -0.1810839703 -0.1877755488 -0.1871722478 -0.1716077594)
)


60
(
5(-0.2143770925 -0.2133941027 -0.2074563098 -0.2037964258 -0.205091345)
5(-0.2123624461 -0.2147389232 -0.2093772321 -0.204792579 -0.2079460943)
5(-0.2110390139 -0.2151780615 -0.2103618505 -0.2052870215 -0.2091674511)
5(-0.2106332822 -0.2150874546 -0.2105631075 -0.2055107114 -0.2094368348)
5(-0.2108739351 -0.2149948395 -0.2105281968 -0.2055077453 -0.2090748411)
5(-0.2112491894 -0.2150384361 -0.210502965 -0.205368928 -0.2085596087)
5(-0.2114102939 -0.2150662879 -0.210503946 -0.2053044759 -0.2083233417)
5(-0.2113910723 -0.2151192297 -0.2105287598 -0.2052667795 -0.2083234263)
5(-0.2112646944 -0.2151374663 -0.2105513964 -0.2052082069 -0.2083238591)
5(-0.2112335322 -0.2151564184 -0.2105101178 -0.2050824003 -0.2082238696)
5(-0.2111679389 -0.2151052753 -0.2104549901 -0.204936286 -0.2080052037)
5(-0.2111492534 -0.2150444806 -0.2103476611 -0.2047639757 -0.2077723369)
5(-0.2111008223 -0.2149596181 -0.2102357477 -0.2045845177 -0.2075159539)
5(-0.2110093189 -0.214861594 -0.2101046784 -0.204384678 -0.2072738682)
5(-0.2109249697 -0.2147559148 -0.2099457243 -0.2041531965 -0.2070018041)
5(-0.210795096 -0.2146200373 -0.2097857463 -0.2039152841 -0.2067040543)
5(-0.2106978639 -0.2144757111 -0.2095661798 -0.2036273203 -0.2063758392)
5(-0.2105521402 -0.2143062195 -0.209371274 -0.2033472538 -0.2060122583)
5(-0.2103945318 -0.2141251741 -0.2091118277 -0.2030105179 -0.2056531969)
5(-0.2102438535 -0.2139250231 -0.2088483745 -0.2026753726 -0.2052601888)
5(-0.2100505082 -0.2137058141 -0.2085745804 -0.202316728 -0.2048454155)
5(-0.2098450968 -0.213473297 -0.2082549988 -0.2019014332 -0.204394366)
5(-0.2096484676 -0.2132115011 -0.2079455192 -0.201502923 -0.2038893423)
5(-0.2093995887 -0.212931718 -0.2076062987 -0.2010560786 -0.203363407)
5(-0.209135192 -0.2126284213 -0.207207803 -0.2005636195 -0.2028332837)
5(-0.208885691 -0.2122848535 -0.2067819241 -0.2000739486 -0.202268065)
5(-0.2085724251 -0.2119261225 -0.2063430135 -0.1995351128 -0.2016640186)
5(-0.208230039 -0.2115350938 -0.2058443998 -0.198947069 -0.201045487)
5(-0.2078531598 -0.2111049949 -0.2053135275 -0.1983211545 -0.200372084)
5(-0.2074868477 -0.2106333009 -0.2047503916 -0.197678649 -0.199636269)
5(-0.2070320223 -0.2101264198 -0.2041513011 -0.1969749614 -0.198868138)
5(-0.2065389128 -0.2095844031 -0.2035035612 -0.1962282027 -0.1980791764)
5(-0.2060282054 -0.208991516 -0.2027924653 -0.1954536197 -0.1972771355)
5(-0.2054611351 -0.2083317785 -0.2020394117 -0.1946572596 -0.1964381178)
5(-0.2048539486 -0.2076310682 -0.2012486945 -0.1938228594 -0.1955565174)
5(-0.2041936487 -0.2068917529 -0.2003949756 -0.1929323553 -0.1946646166)
5(-0.2035111053 -0.2061159728 -0.1994904105 -0.1919742317 -0.1936884827)
5(-0.2027889375 -0.2052699678 -0.1985310924 -0.1909692089 -0.1926272312)
5(-0.2020473362 -0.2043885381 -0.1975233139 -0.1899672817 -0.1916176755)
5(-0.2012595482 -0.2034776382 -0.1964499936 -0.1890460875 -0.1908879161)
5(-0.2004877693 -0.2025479844 -0.1953566942 -0.188248438 -0.1903916873)
5(-0.1997604439 -0.2016184259 -0.1942887529 -0.1875292922 -0.1899574866)
5(-0.1990929164 -0.2006829641 -0.1932977201 -0.1868331885 -0.1893439484)
5(-0.1985225102 -0.199780485 -0.1924421463 -0.1860988853 -0.1883519379)
5(-0.1980249268 -0.1989614318 -0.1917141679 -0.1853130313 -0.1870956635)
5(-0.197570638 -0.1983338972 -0.1910792735 -0.1844554596 -0.1858495286)
5(-0.1971810304 -0.1979885354 -0.1905807938 -0.1835403023 -0.1847150572)
5(-0.1968530358 -0.1978113997 -0.1901982312 -0.1826877546 -0.1837488105)
5(-0.1968547037 -0.1979298672 -0.1899138343 -0.1818663568 -0.1829100756)
5(-0.1973569635 -0.1982163273 -0.1897183648 -0.1812501573 -0.182139276)
5(-0.1981779123 -0.1986270358 -0.1896296147 -0.1808139997 -0.1814449292)
5(-0.1991451863 -0.1991884707 -0.1897572018 -0.1805529335 -0.1808232185)
5(-0.1999427828 -0.1997918635 -0.1901141414 -0.1804282805 -0.1802692224)
5(-0.2006946757 -0.2005027325 -0.1906920555 -0.1803896392 -0.1797059567)
5(-0.2013353875 -0.2012080418 -0.1913591186 -0.1803630074 -0.1790884738)
5(-0.2019986413 -0.2019933223 -0.1920741631 -0.1802912117 -0.1784221004)
5(-0.2024886386 -0.202579263 -0.1927234567 -0.1803131904 -0.177849355)
5(-0.2031775161 -0.2029794761 -0.1931753227 -0.1804710212 -0.177372833)
5(-0.2038024463 -0.2024475899 -0.1932618449 -0.1817830731 -0.17813519)
5(-0.1877249963 -0.1857869306 -0.1907359241 -0.1882312784 -0.1788395736)
)


60
(
5(-0.2141052303 -0.2122178845 -0.2059338156 -0.2030659994 -0.2045949063)
5(-0.2116415368 -0.2139503735 -0.208522924 -0.2042896711 -0.2077927046)
5(-0.2100772604 -0.2144928733 -0.2097881138 -0.2049452803 -0.2092228194)
5(-0.2096392992 -0.2143718407 -0.2100440441 -0.2052624451 -0.209541184)
5(-0.209949826 -0.2142675804 -0.2099977453 -0.2052554331 -0.2091007103)
5(-0.2103822443 -0.2143411584 -0.2100034405 -0.2050791303 -0.2084514521)
5(-0.2105857021 -0.2143819362 -0.2100002679 -0.2050283866 -0.2082344075)
5(-0.2105552652 -0.2144479945 -0.2100567218 -0.2049760467 -0.2081793737)
5(-0.2104213908 -0.2144671509 -0.2100723421 -0.2049303548 -0.2082289364)
5(-0.2103929732 -0.2145046794 -0.2100521691 -0.2047837382 -0.2080795239)
5(-0.2103305102 -0.2144419105 -0.2099775139 -0.2046406745 -0.2078796318)
5(-0.2103383246 -0.2143957282 -0.2098763255 -0.2044455526 -0.207591586)
5(-0.210256633 -0.2142872865 -0.2097570824 -0.2042681863 -0.2073401479)
5(-0.2102107831 -0.2142017998 -0.2096098707 -0.2040464032 -0.2070658815)
5(-0.2100718022 -0.2140687903 -0.2094560012 -0.2038218578 -0.2067974916)
5(-0.2099743161 -0.213934791 -0.2092717929 -0.2035564329 -0.2064645459)
5(-0.2098292709 -0.2137736331 -0.2090689453 -0.2032819131 -0.2061439309)
5(-0.2096735532 -0.213587188 -0.2088495519 -0.2029733646 -0.205748448)
5(-0.2095475718 -0.2134093673 -0.2085812924 -0.2026468109 -0.2054021998)
5(-0.2093426612 -0.2131831891 -0.2083247276 -0.2023008622 -0.2049759862)
5(-0.209193486 -0.2129763453 -0.2080071092 -0.2019205192 -0.2045860247)
5(-0.2089524371 -0.2127145904 -0.207718617 -0.2015291079 -0.2040977254)
5(-0.2087098181 -0.212440321 -0.2073917345 -0.2011099509 -0.2036072568)
5(-0.2085083009 -0.2121641055 -0.207022691 -0.2006571802 -0.2030888887)
5(-0.2082410747 -0.211843746 -0.206653074 -0.2001844806 -0.2025092306)
5(-0.2079368277 -0.2115006137 -0.2062253131 -0.1996773334 -0.2019684402)
5(-0.2076645117 -0.2111387951 -0.2057564646 -0.1991299668 -0.2013600829)
5(-0.2072952992 -0.2107318996 -0.2052848583 -0.1985566415 -0.2007120664)
5(-0.2069308298 -0.2103017637 -0.2047474521 -0.1979402936 -0.2000583807)
5(-0.2065833213 -0.2098504059 -0.2041665833 -0.1972692599 -0.1993228437)
5(-0.2061393674 -0.2093462277 -0.2035841423 -0.1965831355 -0.1985510745)
5(-0.2056464908 -0.2087938718 -0.2029412149 -0.1958466082 -0.1977520394)
5(-0.205140843 -0.2082148824 -0.2022216384 -0.1950516881 -0.1969490211)
5(-0.2046036183 -0.2075736049 -0.2014779179 -0.1942513604 -0.1960904765)
5(-0.2040176801 -0.2069017677 -0.2007003038 -0.1934065322 -0.1951983121)
5(-0.2034053387 -0.2061945146 -0.1998578858 -0.1925049665 -0.1942778519)
5(-0.2027908704 -0.2054584676 -0.1989485 -0.1915148102 -0.193258685)
5(-0.2021509631 -0.2046682692 -0.1980087274 -0.1904950499 -0.1921582203)
5(-0.2015131803 -0.2038717777 -0.197024939 -0.1894755669 -0.1911316312)
5(-0.200914932 -0.2030885505 -0.195988992 -0.1885254456 -0.1903350761)
5(-0.2003246019 -0.2023100881 -0.1949641994 -0.1877046081 -0.1897763918)
5(-0.1998261659 -0.2015709242 -0.1939781792 -0.1869542808 -0.1892678855)