/*--------------------------------*- C++ -*----------------------------------*\
| =========                 |                                                 |
| \\      /  F ield         | OpenFOAM: The Open Source CFD Toolbox           |
|  \\    /   O peration     | Version:  2.3.1                                 |
|   \\  /    A nd           | Web:      www.OpenFOAM.org                      |
|    \\/     M anipulation  |                                                 |
\*---------------------------------------------------------------------------*/
FoamFile
{
    version     2.0;
    format      ascii;
    class       dictionary;
    location    "constant";
    object      GRPSI28;
}
// * * * * * * * * * * * * * * * * * * * * * * * * * * * * * * * * * * * * * //

GRPSI28_table
60
(

60
(
5(-0.01187167921 -0.03068521131 -0.01130086045 -0.02063109883 -0.01161651074)
5(-0.02999196884 -0.08335292645 -0.03392954415 -0.04312597205 -0.03532505896)
5(-0.1046771101 -0.05864185354 -0.04801888154 -0.06493470031 -0.1303555725)
5(-0.1577235395 -0.05188493898 -0.037706002 -0.08820555866 -0.02179389668)
5(-0.120909527 -0.05886276924 -0.04596810241 -0.06697588024 -0.05796288505)
5(-0.06694966328 -0.06656576297 -0.08757950912 -0.07094373573 -0.08600211745)
5(-0.05449228866 -0.07150505774 -0.08390872963 -0.08578577896 -0.06337369884)
5(-0.0758775085 -0.07190178418 -0.06807889869 -0.07958346291 -0.100860018)
5(-0.06247543855 -0.06981146054 -0.07249997681 -0.07690634902 -0.08352779547)
5(-0.06546772643 -0.06778023855 -0.06381098528 -0.07994980731 -0.07965079381)
5(-0.06383561423 -0.06849831215 -0.06525756675 -0.07961400424 -0.08004507335)
5(-0.06483075067 -0.06890120795 -0.07193605522 -0.08001676322 -0.08537077414)
5(-0.06938548013 -0.06865056661 -0.07406686365 -0.07730852232 -0.08330949959)
5(-0.06449849086 -0.06814243429 -0.07333155535 -0.08184793935 -0.08599664401)
5(-0.06889684784 -0.07012124298 -0.07545761226 -0.07967544001 -0.08635719918)
5(-0.06758774728 -0.06972696324 -0.07432778265 -0.07944885881 -0.0859552775)
5(-0.06774501003 -0.07035551637 -0.0746255639 -0.07950934104 -0.08414928754)
5(-0.06821327442 -0.07080119027 -0.07487446114 -0.07821605175 -0.08346872539)
5(-0.06907315171 -0.07079287252 -0.07502890916 -0.07877745286 -0.08337608355)
5(-0.06781584735 -0.06904381086 -0.0737716358 -0.07618947286 -0.08380727826)
5(-0.06863424236 -0.07078082638 -0.07566845974 -0.07694230803 -0.08385553858)
5(-0.06869914502 -0.07129578419 -0.07503413374 -0.0823188331 -0.08709264479)
5(-0.06744227406 -0.07078554204 -0.0755712063 -0.07899959119 -0.08383117902)
5(-0.06855192049 -0.06925515155 -0.07551599451 -0.07885118542 -0.08407445823)
5(-0.0680079198 -0.06919608912 -0.07464412534 -0.07719465481 -0.08248106205)
5(-0.06818390072 -0.06956298543 -0.07283834922 -0.07498663196 -0.08228904806)
5(-0.06794728339 -0.07028966702 -0.074511943 -0.07402041937 -0.08163873264)
5(-0.06860672493 -0.07035330312 -0.07317689605 -0.07339267252 -0.0813070328)
5(-0.06713200125 -0.06955921345 -0.07408561523 -0.07393146871 -0.08058379952)
5(-0.06696264318 -0.06827652442 -0.07436355999 -0.07571043925 -0.08104378156)
5(-0.06587502795 -0.06722465983 -0.0727377515 -0.07371378045 -0.08026798782)
5(-0.06560624627 -0.06748997452 -0.07391251384 -0.07631859974 -0.08604341723)
5(-0.06566844615 -0.06669303607 -0.07294477019 -0.07601583527 -0.08013938186)
5(-0.06496240181 -0.0654721109 -0.07103482106 -0.07667183185 -0.08659493225)
5(-0.06416518847 -0.06549676054 -0.07152135655 -0.07666255398 -0.08652115003)
5(-0.06376862308 -0.06325604844 -0.06723260162 -0.07601176707 -0.08659632661)
5(-0.06319955716 -0.06564276331 -0.07355042541 -0.07910633259 -0.08611285364)
5(-0.06292594522 -0.06360195148 -0.07339804966 -0.07763566276 -0.1019709618)
5(-0.06193683404 -0.0636414699 -0.0715591434 -0.07960249673 -0.08782372665)
5(-0.0596430691 -0.06284366692 -0.06844096655 -0.07819899777 -0.1461134164)
5(-0.05944558294 -0.06439969955 -0.07240501361 -0.08102784386 -0.1405498476)
5(-0.06013766556 -0.06483033798 -0.07426668528 -0.1006922523 -0.1365569339)
5(-0.06006624958 -0.067266275 -0.07759751272 -0.1435315503 -0.1294929686)
5(-0.05938771356 -0.06493841714 -0.06562141575 -0.1391576065 -0.1196518594)
5(-0.05873344331 -0.06648163148 -0.07094924427 -0.1306876437 -0.1150390804)
5(-0.06058645092 -0.06531912557 -0.07856338397 -0.1238931681 -0.1075259236)
5(-0.06164962951 -0.07002525545 -0.124954803 -0.1159356135 -0.09916180989)
5(-0.06438680158 -0.08454800308 -0.1362501402 -0.1078169753 -0.09092159337)
5(-0.06371291886 -0.08061345066 -0.1303224581 -0.0994242725 -0.08276424227)
5(-0.06453131891 -0.1321228743 -0.1213955443 -0.09005307502 -0.07418305787)
5(-0.06951568255 -0.1235964643 -0.1117138044 -0.08172041587 -0.06648700389)
5(-0.1087977648 -0.113847765 -0.1014477026 -0.07243425191 -0.05875877235)
5(-0.1160178422 -0.1035320851 -0.09087541008 -0.06307382123 -0.05037684856)
5(-0.1079414008 -0.09185716163 -0.08049085254 -0.05358764095 -0.04347903975)
5(-0.0929165735 -0.0794394433 -0.06890705835 -0.04466424295 -0.03605832283)
5(-0.07483064557 -0.06595522221 -0.05650888981 -0.0348273705 -0.02860824175)
5(-0.04845321396 -0.05076866511 -0.0423219478 -0.02505106704 -0.02512343064)
5(-0.01990110962 -0.02778692661 -0.02603721721 -0.01742063812 -0.01601463948)
5(0.01115008274 0.001917448474 0.000235318868 -0.03505261003 -0.01621806935)
5(0.08584843227 0.08064943762 0.1130543625 0.11418334 0.07317540937)
)


60
(
5(-0.007648382511 -0.01922118321 -0.006772090304 -0.01267971332 -0.006794810372)
5(-0.01816992137 -0.04565401861 -0.02022145579 -0.02543141649 -0.02150499493)
5(-0.05645257833 -0.03316594988 -0.02864056389 -0.03706441 -0.07100193492)
5(-0.08307367061 -0.02960151807 -0.02355071376 -0.04871902532 -0.01696535143)
5(-0.06437142971 -0.03283635091 -0.02708138831 -0.03773266376 -0.0342779383)
5(-0.0367381075 -0.03643267807 -0.04723899588 -0.03941352973 -0.04743496704)
5(-0.03013034981 -0.03859007748 -0.04521611479 -0.04650883231 -0.03575459378)
5(-0.04068620214 -0.03861620317 -0.03712063484 -0.04318569395 -0.05441498912)
5(-0.03394619609 -0.03749764952 -0.03930471374 -0.04180098149 -0.04570122148)
5(-0.03519566206 -0.03628634601 -0.03478982211 -0.04311175842 -0.04373699542)
5(-0.03426278105 -0.03641479173 -0.03537403234 -0.04274795804 -0.04366693584)
5(-0.03447537079 -0.03642689366 -0.03844024364 -0.0427374397 -0.04599538421)
5(-0.03658263497 -0.03611840849 -0.03930340429 -0.04121161014 -0.04475371384)
5(-0.03395892243 -0.03569872948 -0.0387454424 -0.04320771522 -0.04585270091)
5(-0.03599942648 -0.03652606083 -0.03966623508 -0.04192979192 -0.04580094337)
5(-0.03510303567 -0.03611532109 -0.03885123865 -0.04159632471 -0.0453516831)
5(-0.0350475351 -0.03619965167 -0.03876895802 -0.04137833376 -0.04419895066)
5(-0.03509066032 -0.03619557945 -0.03863608249 -0.04051045986 -0.04356111093)
5(-0.03530450921 -0.03601381672 -0.03850772885 -0.04052034034 -0.04322901657)
5(-0.03447364379 -0.03490293042 -0.03762460375 -0.03895385219 -0.04311419195)
5(-0.0346352297 -0.03553892956 -0.038317064 -0.03907741688 -0.0428956587)
5(-0.03449714571 -0.03555148707 -0.03773295185 -0.04142119278 -0.04419491082)
5(-0.03363659994 -0.03506487024 -0.0377618055 -0.03950602643 -0.04223176128)
5(-0.03391564855 -0.0340285259 -0.03743661739 -0.03918510086 -0.0420607701)
5(-0.03338992482 -0.03373523398 -0.03675881304 -0.03803707837 -0.04095036299)
5(-0.03320619004 -0.0336307385 -0.03547193828 -0.03660909133 -0.04051102277)
5(-0.03280368471 -0.03371082866 -0.03597817946 -0.03576945636 -0.03988936361)
5(-0.03281979907 -0.03344155936 -0.03504688716 -0.03517133059 -0.03942926535)
5(-0.03181851595 -0.03268610957 -0.03514045531 -0.03510492459 -0.03872434908)
5(-0.03139040465 -0.03172668556 -0.0349688013 -0.03569444227 -0.03865921245)
5(-0.03053638283 -0.03091920977 -0.03383304314 -0.0343828352 -0.03796371453)
5(-0.03006771693 -0.03071255422 -0.0341106966 -0.03535794474 -0.04056945401)
5(-0.02976659674 -0.02995088757 -0.03330300906 -0.03493047362 -0.03735554959)
5(-0.02906770567 -0.02906739014 -0.03205430641 -0.03498815503 -0.04034372295)
5(-0.02833900732 -0.02874598058 -0.03194963915 -0.03472715029 -0.04008313274)
5(-0.0277197253 -0.02732127084 -0.02956153454 -0.03413317567 -0.03996471682)
5(-0.02715753452 -0.0282337127 -0.03244980642 -0.03552582463 -0.03955697044)
5(-0.02671543331 -0.0269376477 -0.03214971859 -0.03462644459 -0.04736517602)
5(-0.02593823766 -0.02679944816 -0.03103957147 -0.03544809274 -0.04022994587)
5(-0.02456738997 -0.02614785433 -0.02930133783 -0.03467521579 -0.06943158463)
5(-0.0242610969 -0.02689465197 -0.03131869806 -0.03605634992 -0.06692988141)
5(-0.0245667628 -0.02698102178 -0.03216015199 -0.0459866368 -0.06531203451)
5(-0.02444639068 -0.02821829354 -0.03386337178 -0.06761889925 -0.06227741795)
5(-0.02412620146 -0.02726424134 -0.02793924418 -0.06576576081 -0.05784397043)
5(-0.02389852296 -0.02808273391 -0.03075783067 -0.06203029926 -0.05606780999)
5(-0.02502060991 -0.02770058875 -0.03486334859 -0.05917522843 -0.05280343723)
5(-0.02576939301 -0.03030105871 -0.05849230553 -0.0557594489 -0.04913155632)
5(-0.02736736209 -0.03790283294 -0.06464766733 -0.05225339496 -0.04551397323)
5(-0.02721003245 -0.03622498352 -0.06228463747 -0.04857518636 -0.04181261812)
5(-0.02787142986 -0.06249031547 -0.05848880929 -0.04431467017 -0.0377796136)
5(-0.03057961069 -0.0588118652 -0.05429356898 -0.04053066033 -0.03401464321)
5(-0.05055910432 -0.05457265282 -0.04977839894 -0.036147205 -0.03001817251)
5(-0.0545770166 -0.0499984386 -0.04499053906 -0.03154916009 -0.02561116384)
5(-0.05109280967 -0.04480056409 -0.04016214652 -0.02669863019 -0.02154099378)
5(-0.04429656554 -0.03897417248 -0.03456072008 -0.02192459262 -0.01715623299)
5(-0.03589085188 -0.03248580828 -0.02834515601 -0.01649321115 -0.01253285742)
5(-0.02318414479 -0.02493910966 -0.02090158189 -0.01091359862 -0.009794801062)
5(-0.0089120212 -0.01301889951 -0.01212282892 -0.006123743331 -0.004068879363)
5(0.008167329324 0.003411879754 0.002632173697 -0.01353828138 -0.002824475023)
5(0.05456716296 0.05242991464 0.06912366264 0.07421235951 0.05119977295)
)


60
(
5(-0.00148462722 -0.004506073452 -6.353614435e-05 -0.001647912304 0.0004046923189)
5(-0.00310798945 -0.003989611743 -0.002863767212 -0.003514773857 -0.003541079695)
5(-0.004028226665 -0.003421572985 -0.004469646695 -0.004283455784 -0.006068249221)
5(-0.003981688316 -0.002932760038 -0.004338742976 -0.00410009841 -0.006267274982)
5(-0.003285080085 -0.002383396585 -0.003254777856 -0.003388055778 -0.004939018512)
5(-0.002210673244 -0.001820879872 -0.00219629073 -0.002796605758 -0.003569182325)
5(-0.001532317131 -0.001295593137 -0.001751790645 -0.002183089235 -0.002890655034)
5(-0.001200720291 -0.0008967844918 -0.001386063867 -0.001755028575 -0.002641809428)
5(-0.000935433091 -0.0005905725018 -0.001189642979 -0.001524158762 -0.002457305159)
5(-0.000484771506 -0.0002013105887 -0.0008490910501 -0.001120921871 -0.002183626685)
5(-0.0001855275138 0.000252756837 -0.0004629571444 -0.0006799574467 -0.00165848627)
5(0.0003191831027 0.0006276421594 3.96964186e-05 -0.0002313449102 -0.00107559583)
5(0.0007379102564 0.001051579954 0.0004805589683 0.0001663307889 -0.0006158644876)
5(0.001110326595 0.001440839703 0.0008851442488 0.0006606180009 -9.647619453e-05)
5(0.001467719942 0.001825284318 0.001261715286 0.0010953307 0.0003619691024)
5(0.001891289513 0.002247468739 0.001708081848 0.00155740257 0.0008671547476)
5(0.002283219919 0.002676938022 0.002192117439 0.002048817891 0.001389415318)
5(0.002672027591 0.00314521934 0.002691328726 0.00254935939 0.001933753421)
5(0.003125005778 0.003549748209 0.003156950753 0.003063460568 0.002506144066)
5(0.003545199864 0.004021468979 0.003671585714 0.003629330291 0.003109486051)
5(0.003990198504 0.00452384629 0.004169624787 0.004115680744 0.003651859155)
5(0.004449502805 0.005001329039 0.00467998556 0.004738960979 0.004265863233)
5(0.004922881939 0.005499785428 0.005208543517 0.005272951325 0.004889698657)
5(0.005421620548 0.006036330344 0.005827206813 0.005780776548 0.005488086053)
5(0.005914877822 0.006578517623 0.006320447021 0.006385596441 0.006067916565)
5(0.006469970936 0.007118085197 0.006978026383 0.007011162271 0.006695080612)
5(0.007025141638 0.00764621957 0.007569471491 0.007641492581 0.007314986472)
5(0.007584199485 0.008259534546 0.008155665328 0.008252003972 0.007871144514)
5(0.008157886563 0.008876823778 0.008787881018 0.008864738462 0.008554283572)
5(0.008771296516 0.009473612327 0.009400250148 0.009460933801 0.009081391469)
5(0.00938485246 0.01008392245 0.01002672531 0.01006283916 0.009716035628)
5(0.01000704192 0.01070090414 0.01065203323 0.01066479041 0.01025273121)
5(0.01063184441 0.01131726681 0.01123283764 0.01123799932 0.01078575732)
5(0.01127040116 0.01191771623 0.01181509287 0.01177093055 0.01125287205)
5(0.01187323575 0.01250783984 0.01239288856 0.01227479622 0.01174091617)
5(0.01250999709 0.0130662111 0.01292096925 0.0127595518 0.01209348348)
5(0.01305381928 0.01356905436 0.01344415898 0.01310985191 0.0124437962)
5(0.01360384859 0.01405086228 0.01383670411 0.01346964139 0.01277799596)
5(0.01408662947 0.01438297615 0.01418412693 0.01380124239 0.01294428611)
5(0.01446406719 0.01472861035 0.01444751967 0.01398428022 0.01296632837)
5(0.01474401216 0.01482806985 0.01450760307 0.01406899186 0.01265682898)
5(0.01488815912 0.01498864565 0.01461308797 0.01400380986 0.01218658231)
5(0.01497726603 0.01491887928 0.01454971389 0.01370950181 0.0115662895)
5(0.01492512329 0.01461333334 0.01439118585 0.01322493356 0.01089726896)
5(0.01474427827 0.01436237578 0.01405113515 0.01254250036 0.01019386263)
5(0.0144663317 0.01399649568 0.01360540959 0.01176378616 0.009455320841)
5(0.01416422159 0.01358133123 0.01291120522 0.01093123759 0.00867737015)
5(0.01384892556 0.01303381159 0.01211838907 0.01009370848 0.007911089549)
5(0.01368545995 0.01250172015 0.01118645103 0.009271007119 0.007241743232)
5(0.01342255908 0.01183748949 0.01021032011 0.00851824637 0.006725055747)
5(0.01328733634 0.011066235 0.00922439502 0.007813982477 0.006395064807)
5(0.01310216561 0.01025314586 0.008255480945 0.007221204315 0.00632366178)
5(0.01281209675 0.009456029103 0.007416144194 0.006822794304 0.006422792214)
5(0.01232858843 0.008655160094 0.00670166096 0.006674751281 0.006954154058)
5(0.01164404917 0.008112691948 0.006240538799 0.006851672604 0.007678311593)
5(0.01097826928 0.007741113133 0.006073262684 0.007333364969 0.008715815646)
5(0.01046094822 0.007789583531 0.006357471794 0.008118964562 0.009942592726)
5(0.01074489035 0.008635186703 0.007326543025 0.009465582243 0.01149130669)
5(0.01313269515 0.01131035848 0.01012897509 0.01183548428 0.01370974594)
5(0.02518888697 0.03786860431 0.02621402919 0.02565438059 0.03444603427)
)


60
(
5(0.001628072828 0.0004558084187 0.003428507265 0.003160146308 0.004253900212)
5(0.00185475959 0.001916840715 0.002703811964 0.002867870819 0.002790268486)
5(0.002177219006 0.002898903444 0.002624135742 0.003009850155 0.002166769839)
5(0.002611857228 0.003574713967 0.00314921789 0.003501890614 0.00244268828)
5(0.003370459672 0.004180249894 0.004023359526 0.004170052644 0.003407947056)
5(0.004160343971 0.004770214212 0.004789979764 0.004768341264 0.00432875609)
5(0.004765301709 0.005262486693 0.005323059035 0.005319163211 0.004944780812)
5(0.005203508603 0.005733399455 0.005735195709 0.005731299315 0.005323585588)
5(0.005636536221 0.006176847709 0.006112589002 0.006156016107 0.005661858145)
5(0.006064587929 0.006635641755 0.006497974855 0.006574315738 0.006151185291)
5(0.006475358524 0.007057079363 0.006969813125 0.007055666527 0.00665308097)
5(0.006918685444 0.007487196929 0.007436122134 0.007498249864 0.007159882857)
5(0.00737656376 0.007953982044 0.007892025176 0.007982580607 0.007673889928)
5(0.007824443354 0.00838717379 0.008349736808 0.008443953006 0.008165704306)
5(0.008230591106 0.008825316215 0.008809880596 0.008920371702 0.008672686109)
5(0.008618220222 0.009255432099 0.009279743634 0.009392441057 0.00918292874)
5(0.009087151684 0.009699263149 0.009753318529 0.009902283498 0.009713892955)
5(0.009526630667 0.01015486182 0.01020686564 0.0104490624 0.01022347147)
5(0.009968417348 0.01062055772 0.01074231784 0.01091287986 0.0107581149)
5(0.01042933223 0.01109788156 0.01122405099 0.01144938046 0.011312292)
5(0.01085953256 0.01159205054 0.01173390515 0.01197140148 0.01187937148)
5(0.01135374471 0.01208959503 0.01223251692 0.01247406031 0.01243151084)
5(0.01183235751 0.01260260063 0.0127907279 0.01305092544 0.0129831471)
5(0.01233436128 0.0131159794 0.01332568127 0.01358248634 0.01355705565)
5(0.01281722258 0.01362272594 0.01386658528 0.01411893619 0.01411518152)
5(0.01334346818 0.01419703168 0.01441855183 0.01468119493 0.01466844493)
5(0.01385853701 0.01464866576 0.01494907375 0.01523115793 0.01524123789)
5(0.01436423841 0.01523207105 0.01553471244 0.01583033018 0.01578352079)
5(0.01493612853 0.01576060461 0.01606802188 0.01634574463 0.01636469072)
5(0.01547155958 0.01629729459 0.01663478375 0.01692465302 0.01689571392)
5(0.01602661561 0.0168742841 0.01721043212 0.01746223047 0.01745578742)
5(0.01656200635 0.01739751192 0.01773040061 0.01799121513 0.01801160608)
5(0.01710111926 0.01787968793 0.01828785028 0.01851912346 0.01847851712)
5(0.01762768481 0.018453688 0.01880298926 0.0190259065 0.01895795964)
5(0.01814017321 0.01892725499 0.01924453391 0.01948953575 0.0194077617)
5(0.01857268496 0.01938508613 0.01972241345 0.01991079548 0.01983014902)
5(0.01903044175 0.01978439364 0.0201318194 0.02029775057 0.02020202247)
5(0.01945520266 0.02014045712 0.02048165311 0.02064341942 0.02056668089)
5(0.01979792314 0.02041951631 0.02075257038 0.02093616584 0.02082934383)
5(0.02006587756 0.02058160272 0.02091237811 0.02112816967 0.02097653442)
5(0.02023216703 0.02068697826 0.02103458551 0.0212372224 0.02102592341)
5(0.02038545294 0.02071415511 0.02101875724 0.02126305814 0.0209540792)
5(0.02043682588 0.02060752975 0.0209202137 0.02112553595 0.02077803688)
5(0.02043302338 0.02040600783 0.02069581747 0.02087499894 0.02052836128)
5(0.02038609671 0.0200771575 0.02036217434 0.02055079185 0.02025994291)
5(0.02029745057 0.01975396711 0.01997569969 0.02013885653 0.01991026834)
5(0.02022184464 0.01943441518 0.01951142336 0.01968151596 0.0195044706)
5(0.02016302507 0.01911267553 0.01900001448 0.01921934625 0.01906619007)
5(0.02020263262 0.01881023545 0.01849022761 0.01869355822 0.01860786893)
5(0.02035267607 0.0186482232 0.01801461343 0.0181726851 0.01814107623)
5(0.0206140528 0.01850034326 0.01755182649 0.01762976863 0.01766641483)
5(0.0209978208 0.01846871361 0.01710604264 0.01709430218 0.01724437577)
5(0.02148615171 0.01848209275 0.01669638966 0.01658211153 0.01688853198)
5(0.02201228645 0.01857686101 0.01627962818 0.01609353209 0.01654212788)
5(0.02256783747 0.01867040636 0.01596573761 0.01575744014 0.01639800953)
5(0.02305487268 0.01885350331 0.01576692416 0.01558354273 0.0163840368)
5(0.02359530891 0.01927513743 0.01581819003 0.01570388806 0.01659677872)
5(0.02440699111 0.02015218415 0.01662892772 0.01628360261 0.01709431391)
5(0.02598578804 0.02235936953 0.01903215533 0.01816153731 0.01856600919)
5(0.03132008481 0.03846170813 0.03192730067 0.02627280796 0.04089089893)
)


60
(
5(0.003580511967 0.00323169501 0.005638550713 0.006037668708 0.006742509191)
5(0.004650027223 0.005061801774 0.00584474644 0.006377984992 0.006374841083)
5(0.005396099652 0.006232936743 0.006331668559 0.006868703467 0.006438473292)
5(0.006030195561 0.006976085205 0.007030553743 0.007481667302 0.006978741617)
5(0.006755913684 0.007601877146 0.00779659415 0.008132389561 0.007769727426)
5(0.007488952816 0.008206085425 0.00847989983 0.008754304745 0.008547521)
5(0.008078105158 0.00876085366 0.00905387571 0.009278748788 0.009145628055)
5(0.008580898797 0.009250588175 0.009506881363 0.009733952915 0.009599367861)
5(0.009025684284 0.009722235318 0.009958578045 0.01020100534 0.01002896511)
5(0.009483364831 0.01019307397 0.01038540286 0.01067136282 0.01050755409)
5(0.009955044074 0.01066072771 0.01086683712 0.01113578211 0.01100740429)
5(0.01039813942 0.01111575975 0.01132386579 0.01159278863 0.01151756753)
5(0.01084581956 0.0115698416 0.01179812213 0.01207989342 0.01203309726)
5(0.01128807539 0.01201669347 0.01225243368 0.01256038917 0.01249754327)
5(0.0117491733 0.01245230981 0.01272579035 0.0130295727 0.01302599344)
5(0.01218174215 0.01291835305 0.01320711196 0.01349380272 0.01351398167)
5(0.01260541174 0.01336387589 0.01368105005 0.01401468855 0.01403743222)
5(0.01307760802 0.01382303727 0.0141501105 0.01447700492 0.01454764784)
5(0.01349768554 0.01429589594 0.014641422 0.01499205566 0.01505503297)
5(0.01397219006 0.01476041205 0.01511377764 0.01547128679 0.01558482317)
5(0.01443215011 0.01522144764 0.01563647667 0.01600410755 0.01610547638)
5(0.0148651894 0.01572440753 0.01611448431 0.01649094695 0.01660658436)
5(0.01533941601 0.01620098964 0.01663867394 0.01701613347 0.01712533089)
5(0.01584734997 0.0166937403 0.0171041549 0.01753080086 0.01764059624)
5(0.01631982554 0.01716177462 0.01763610744 0.01804623788 0.0182003682)
5(0.01680473017 0.01766985218 0.01816358491 0.0185507957 0.01870068113)
5(0.01730040568 0.01817798549 0.01867762693 0.01906000979 0.01920415737)
5(0.01778649274 0.01868115949 0.01918017933 0.01958405717 0.01973968805)
5(0.01826959404 0.01917475132 0.01967824129 0.02006600882 0.02021261457)
5(0.01876448183 0.01965229193 0.02019107196 0.02057569101 0.02073960183)
5(0.01925163733 0.02014559738 0.02068998175 0.02105906749 0.02121569531)
5(0.01972756022 0.02061995807 0.02110377441 0.02152908801 0.02171110554)
5(0.02018919164 0.0210606866 0.0216086662 0.02197423019 0.02215346885)
5(0.02062204192 0.02148267591 0.02204264369 0.02241311458 0.02260381745)
5(0.02104806961 0.02188069815 0.02244660745 0.02281009887 0.0229861077)
5(0.02144163912 0.02225706368 0.02281267938 0.02319540002 0.02339645879)
5(0.02180838542 0.02257673622 0.02309053188 0.02352836404 0.02374294141)
5(0.02213175216 0.02284188424 0.02337806394 0.02378894495 0.02402602488)
5(0.02241416765 0.02304480209 0.02357079937 0.0239875179 0.02430331305)
5(0.02264589537 0.0231788369 0.02368261751 0.02413926318 0.02445301961)
5(0.02284953815 0.0232431132 0.02371034047 0.02420323322 0.02456826615)
5(0.02300738708 0.02322750844 0.02363104226 0.02415167864 0.02458434675)
5(0.02315247497 0.02313548122 0.02345355198 0.02402563494 0.02451606263)
5(0.02327406199 0.02297067864 0.02318437132 0.02379781128 0.02439681018)
5(0.0233916344 0.02276580434 0.02286049457 0.02349508386 0.02423371128)
5(0.02348962187 0.02253208615 0.0224453689 0.02314585533 0.02403566782)
5(0.02359563032 0.02231536089 0.02205132555 0.02277522567 0.0237979408)
5(0.02371144411 0.0221836541 0.02169471803 0.02241700986 0.02352272611)
5(0.02380950058 0.02214414135 0.0213624631 0.02207369729 0.0232485659)
5(0.02407828701 0.02222952137 0.021187308 0.02175870219 0.02292601272)
5(0.02437919471 0.02244737936 0.02115059603 0.02147979492 0.02258970953)
5(0.02480829162 0.02284766742 0.02122015983 0.02123227207 0.02222478179)
5(0.02544651528 0.02348735529 0.02142462019 0.02101682651 0.02182349593)
5(0.0263656759 0.02431107573 0.02172800924 0.02081204012 0.02141827723)
5(0.02744702864 0.0252135129 0.02206453639 0.02063377141 0.02105074133)
5(0.02875125344 0.02629253279 0.02250267932 0.0205747294 0.02077170296)
5(0.03015742632 0.02747264028 0.02323102957 0.02083676054 0.0206949061)
5(0.03165984381 0.02883058578 0.02446189805 0.02158540353 0.02109394331)
5(0.03327033161 0.03088276917 0.02736860268 0.02404485472 0.02259859048)
5(0.03710729993 0.03284574639 0.03293994785 0.03492618839 0.03462809733)
)


60
(
5(0.004933975263 0.005037942229 0.007198005974 0.008005819685 0.008540121329)
5(0.006457421623 0.007089565831 0.007918607136 0.008674740002 0.008773622411)
5(0.007441129387 0.00837481233 0.008690649564 0.009363522966 0.009190984321)
5(0.008169070493 0.009145170941 0.009476439204 0.01003249878 0.009821581366)
5(0.00889829081 0.009786502206 0.01022430373 0.01069276147 0.0105800797)
5(0.009612797185 0.01042984622 0.01087173405 0.01129560234 0.01130215192)
5(0.0101978913 0.01098581783 0.0114583272 0.0118416126 0.01187157709)
5(0.01072471894 0.01150422002 0.01193864355 0.01233213025 0.012381522)
5(0.0112041416 0.01201033599 0.0124233366 0.01281129333 0.01283724279)
5(0.01169298809 0.0124698117 0.0128715892 0.01328839201 0.01333192552)
5(0.01216844564 0.01297006882 0.01337199436 0.01376661822 0.01382852631)
5(0.01263762823 0.01341695477 0.01382740416 0.01424804771 0.0143382572)
5(0.01309481905 0.01388041747 0.0143267181 0.01471951071 0.01482872802)
5(0.01352126148 0.01433476543 0.01476492593 0.01519250122 0.01532543652)
5(0.01398928323 0.01479627956 0.01525415704 0.01566488903 0.01580806189)
5(0.01444155908 0.01525020474 0.01568562947 0.01613258853 0.01629393522)
5(0.01488284995 0.01570408065 0.01618444285 0.016622757 0.01679108645)
5(0.01531755774 0.01615820231 0.01666298677 0.01705128118 0.01728812849)
5(0.01577924763 0.01662298723 0.01712217632 0.01758530591 0.01778059111)
5(0.01621811703 0.01707995985 0.01760627135 0.01804893464 0.01827325358)
5(0.01667355807 0.01752290437 0.01807713278 0.01854326543 0.01876416458)
5(0.01713769419 0.01801523986 0.018565718 0.01902950897 0.01924973057)
5(0.01757375501 0.01846795008 0.0190322237 0.01949585129 0.01974055803)
5(0.01803961968 0.01892600739 0.01951723516 0.01998317295 0.02022700054)
5(0.01850312526 0.01940149394 0.02001107435 0.02045411628 0.02072642894)
5(0.01895174609 0.01982085659 0.02046633644 0.02093385452 0.02118094408)
5(0.01942981413 0.02032825198 0.02094032084 0.02140285751 0.02167313747)
5(0.01987217891 0.02079018915 0.02141205398 0.02185692517 0.02214597088)
5(0.0203129794 0.0212277503 0.02186809129 0.0223205453 0.02258786081)
5(0.02076122039 0.02165671482 0.02231437329 0.02277468451 0.02304280376)
5(0.02120818471 0.02210788471 0.02275007611 0.02319854906 0.02347712378)
5(0.02162168431 0.02252162297 0.02315487269 0.02359436018 0.02385659663)
5(0.02202301499 0.02291704074 0.02353163568 0.02400089467 0.02429585751)
5(0.0224179609 0.02327349511 0.02391651462 0.0243673278 0.02467575739)
5(0.02277581566 0.02361528801 0.02425149384 0.02469602804 0.02502571796)
5(0.02311241671 0.02392364199 0.0245517589 0.02500074495 0.02534902559)
5(0.0234314233 0.02417574985 0.02477687484 0.02525705601 0.02564408991)
5(0.02372018264 0.0243952724 0.0249728311 0.02545245614 0.02588021652)
5(0.023991096 0.02457245446 0.02509751739 0.02558329309 0.02606321433)
5(0.02425357449 0.02468780756 0.02515133535 0.02566803433 0.02619105371)
5(0.02449591454 0.0247568165 0.02513367141 0.025647735 0.0262320814)
5(0.02474353899 0.02477050646 0.02503519981 0.02554616932 0.0262084463)
5(0.02499387449 0.02474294115 0.02483905937 0.02535284844 0.02613274371)
5(0.02524765008 0.02469227005 0.02458495574 0.02508396212 0.02599532689)
5(0.02550164562 0.02462420564 0.02426463078 0.02474582169 0.02580715477)
5(0.02577362284 0.02456585632 0.02395261816 0.02436186486 0.02558833351)
5(0.02599337086 0.02455053257 0.02364505611 0.02398957592 0.02535355022)
5(0.02620734013 0.02457170335 0.02338768627 0.02363220101 0.02513548811)
5(0.02639664305 0.02464505416 0.02324563217 0.02336545131 0.02493080718)
5(0.02660292944 0.02485049067 0.02330328289 0.02321883539 0.02475604396)
5(0.02681979524 0.02515067499 0.02356447912 0.02320785045 0.02461350005)
5(0.02716999402 0.02563966792 0.0240590368 0.02331691924 0.02447973797)
5(0.02759114952 0.02643502481 0.02482878138 0.02362305016 0.02432776203)
5(0.02824604923 0.02747902313 0.02587405971 0.02394603813 0.02421119529)
5(0.02917341297 0.02886489659 0.02701395948 0.02445079966 0.02408264008)
5(0.03045767955 0.03051691799 0.02839215334 0.02509584146 0.02404979953)
5(0.03204012699 0.03243572847 0.03005073746 0.02605529038 0.02425132255)
5(0.03383763781 0.0345366722 0.03202485163 0.02760008303 0.02502546914)
5(0.03573896252 0.03685858879 0.03520754803 0.03063622949 0.02722393006)
5(0.03883100491 0.03824615256 0.03772774285 0.04253836038 0.04213606944)
)


60
(
5(0.005948142378 0.006347016734 0.008382861704 0.00945200815 0.009928288198)
5(0.007760563267 0.008522790637 0.009408890059 0.01033741773 0.01051802646)
5(0.008905533225 0.00987084924 0.01036531742 0.01114296596 0.0111587748)
5(0.009671620729 0.01068814992 0.01120159795 0.01186070684 0.0118450295)
5(0.0103963856 0.01136843172 0.01194550311 0.01251617815 0.01258124541)
5(0.01110807481 0.01199661886 0.01260817629 0.01313638181 0.01327614622)
5(0.01172005835 0.0125747906 0.01316170539 0.01367870035 0.01385051576)
5(0.01225051999 0.01311921701 0.01370483388 0.01419962743 0.01437078518)
5(0.01276634925 0.0136224459 0.01416557648 0.01467536145 0.01485220171)
5(0.0132564291 0.0141306186 0.01467900582 0.01517480532 0.01534816639)
5(0.01374717221 0.01460009602 0.01513444124 0.01564243399 0.01584715424)
5(0.01422194517 0.0150841777 0.01564378764 0.01613720192 0.01634000182)
5(0.01468934035 0.0155423521 0.01609265999 0.01659526675 0.01683465748)
5(0.01514531065 0.01600746948 0.01658354295 0.0170804194 0.01731483788)
5(0.01559861155 0.01646016904 0.01702976746 0.01753148499 0.01779316238)
5(0.01603704825 0.01691695207 0.017509991 0.01801601364 0.01827314144)
5(0.01649788932 0.01737249147 0.01796133718 0.01846186836 0.01874861102)
5(0.01692364368 0.01782284597 0.0184322327 0.01894923307 0.01922395823)
5(0.01739123398 0.0182650362 0.01888767351 0.01939341389 0.01969885508)
5(0.01781998434 0.01873381081 0.01935998443 0.01987138978 0.02015950655)
5(0.01827131436 0.01916012668 0.01980767865 0.02032149964 0.02064415674)
5(0.01872632441 0.01963718617 0.02029395012 0.02079010544 0.02108605528)
5(0.01915010562 0.02007762303 0.02073452852 0.02124357437 0.02156657766)
5(0.01960188697 0.02051665166 0.02118252339 0.02170630391 0.02201360794)
5(0.020038372 0.02097368415 0.02166051614 0.02214006043 0.02246439281)
5(0.02048019628 0.02139768658 0.02207761543 0.02257593931 0.02291187445)
5(0.02090795169 0.02184151068 0.02252736534 0.02303190557 0.0233396625)
5(0.02131906688 0.02225862501 0.02296411048 0.02343586339 0.02377062372)