/*--------------------------------*- C++ -*----------------------------------*\
| =========                 |                                                 |
| \\      /  F ield         | OpenFOAM: The Open Source CFD Toolbox           |
|  \\    /   O peration     | Version:  2.3.1                                 |
|   \\  /    A nd           | Web:      www.OpenFOAM.org                      |
|    \\/     M anipulation  |                                                 |
\*---------------------------------------------------------------------------*/
FoamFile
{
    version     2.0;
    format      ascii;
    class       dictionary;
    location    "constant";
    object      GRPSI1;
}
// * * * * * * * * * * * * * * * * * * * * * * * * * * * * * * * * * * * * * //

GRPSI1_table
60
(

60
(
5(31790.70522 34203.99714 30316.89545 34607.93595 27946.59108)
5(31115.79992 37896.30409 33298.20772 36268.56759 27772.65723)
5(32383.2328 41100.53453 39217.80819 38957.21293 41047.35357)
5(38404.87619 40175.27722 42203.42086 42769.77931 48244.83549)
5(43285.05168 39720.10973 40708.82667 44335.29724 42575.12525)
5(42215.399 39753.4306 40884.37524 42355.23256 45190.68357)
5(38844.34332 39942.04713 42937.45194 42486.04145 43578.64229)
5(38731.03025 40166.52398 42248.60518 43159.08351 42774.55375)
5(39511.10069 40277.95227 41956.5423 42725.42051 45059.56584)
5(39086.93449 40202.01585 42278.77166 42724.48856 44402.09123)
5(39124.35942 40108.55027 41652.76728 42909.24759 44070.49093)
5(38837.4771 40145.60048 41635.18996 43021.63814 44180.78202)
5(39106.02308 40181.53525 41937.55281 42785.33693 44237.71656)
5(39133.81108 40073.98612 41900.80338 42739.42933 44056.41838)
5(38995.19708 40074.51382 41925.99834 42980.06135 44221.50194)
5(39171.68391 40138.91884 42027.79644 42875.40325 44360.00516)
5(39092.43825 40100.31814 41962.36667 42931.10889 44373.53562)
5(39067.42492 40128.55505 41968.422 42907.71931 44281.71025)
5(39146.71531 40230.80062 42045.01242 42985.12407 44223.43284)
5(39151.34376 40156.94738 41956.43648 42967.04322 44206.10489)
5(39094.58357 40058.51809 41924.73511 42555.04609 44053.62317)
5(39187.32747 40164.47902 41995.5678 42773.2228 44249.7123)
5(39151.96508 40263.59445 41977.39924 43049.42525 44407.79793)
5(39127.80828 40249.68447 42052.61863 42976.31068 44317.88724)
5(39175.94678 40170.90998 42160.40244 43111.94383 44358.12983)
5(39172.36566 40135.18421 42035.39163 43092.60667 44317.08108)
5(39155.17191 40153.28818 42010.10462 43013.46861 44328.72399)
5(39226.2286 40248.39563 42064.91756 42930.04104 44351.71292)
5(39280.90997 40331.26377 41988.45744 42801.40374 44323.08284)
5(39279.89469 40359.78508 42146.01672 42964.04958 44348.82819)
5(39299.62957 40293.15023 42106.16685 42925.31914 44060.61373)
5(39255.74401 40299.60784 42092.4502 42850.94247 44380.59953)
5(39300.21184 40409.80494 42304.8104 42990.52547 44340.8632)
5(39370.00079 40382.85237 42235.14549 42991.36929 44010.02086)
5(39380.48275 40479.82247 42427.39634 43095.93356 44421.38742)
5(39391.85635 40335.61606 42040.40005 42910.64642 44475.45724)
5(39409.2238 40350.01056 41774.69122 42980.23856 43633.42456)
5(39471.85488 40520.27796 42359.93846 43079.12708 44412.22899)
5(39646.07818 40454.40856 42576.49569 43078.49467 42220.75452)
5(39605.51156 40341.93204 42119.4363 43028.74859 41394.40121)
5(39369.23759 40256.34521 41790.62972 41902.37431 44309.27117)
5(39359.52064 40175.99962 41895.52877 39737.95477 44306.74309)
5(39476.34675 40323.70766 42955.5576 40738.20387 44598.91311)
5(39501.23092 40376.42377 42824.34762 43061.83994 44579.52532)
5(39216.42011 40321.74283 41199.00143 43143.98189 44546.79092)
5(38998.33526 40168.91759 39071.46724 43267.28846 44803.43746)
5(38993.72771 39037.0444 38936.84659 43381.21882 45018.61693)
5(39015.16402 39496.32699 41431.6651 43533.15229 45265.82359)
5(39025.62858 38037.45098 42428.92096 43751.09395 45561.33097)
5(38758.45642 37971.46918 42695.3832 44014.63448 45929.65464)
5(36861.13947 40691.10622 42913.4488 44337.18322 46383.36291)
5(36586.28573 40907.55128 43174.05977 44722.06044 46927.59513)
5(38768.64982 41112.78785 43495.6099 45185.30532 47598.55034)
5(39746.57236 41360.923 43883.75046 45747.686 48387.90117)
5(40246.86472 41668.73002 44349.752 46398.15684 49291.48412)
5(40956.99753 42051.90791 44918.23998 47149.89878 50244.12398)
5(41371.49769 42823.37835 45627.8572 48004.96055 51244.65287)
5(41318.83195 43738.33608 46936.87859 47379.0505 52374.36689)
5(41356.91285 44674.91991 49337.81311 54688.56887 59058.01957)
5(41437.35055 45254.23059 50827.27702 63065.30083 65146.22338)
)


60
(
5(34704.05967 40248.61768 33582.96806 37675.48399 31691.21566)
5(35815.59195 40253.87136 35904.60697 39118.54988 35027.29324)
5(37795.46741 40304.56533 39867.58002 41556.36845 40813.63538)
5(39238.42749 40437.6827 42334.19984 43066.10577 44598.42925)
5(39976.4597 40529.65518 43167.8151 43587.81198 46059.14667)
5(39877.73843 40442.00136 42735.91641 43361.53265 45520.28668)
5(39377.19962 40282.55921 42037.31813 42961.17551 44406.75539)
5(39075.79397 40187.01831 41705.82663 42743.57573 43873.30964)
5(39074.24285 40178.19485 41728.0813 42759.89077 43939.7872)
5(39167.45773 40211.31573 41903.34521 42870.42542 44216.064)
5(39228.61529 40225.20513 42023.22478 42922.75005 44375.48018)
5(39243.9382 40221.5346 42045.53852 42919.80914 44358.17423)
5(39211.01183 40212.81768 41998.35931 42904.47974 44273.83943)
5(39187.06308 40205.83848 41960.6435 42889.00224 44234.02956)
5(39190.97486 40214.98483 41968.06622 42884.28178 44236.13169)
5(39206.6359 40231.5292 41998.12395 42905.74059 44261.10182)
5(39224.10803 40248.68038 42020.77303 42929.01697 44285.48506)
5(39245.73467 40267.01104 42036.45351 42953.92633 44301.28173)
5(39264.92668 40287.68412 42050.9354 42981.84725 44323.86838)
5(39287.87711 40315.12419 42072.53975 42998.42081 44337.45888)
5(39314.81428 40343.88904 42098.37884 43012.7124 44348.01168)
5(39340.25319 40374.76523 42126.23847 43026.06078 44377.29)
5(39378.07397 40413.14231 42167.1743 43043.73906 44400.81547)
5(39422.79587 40452.72582 42208.21338 43090.27945 44430.09841)
5(39469.58587 40497.17655 42259.80694 43156.52745 44472.15286)
5(39525.48607 40548.5745 42314.86969 43215.62952 44511.19461)
5(39583.68749 40609.76888 42362.38031 43258.23771 44546.28317)
5(39651.36294 40680.32866 42424.09314 43296.76914 44596.90192)
5(39730.19849 40746.29806 42489.22957 43347.61189 44642.18754)
5(39815.46759 40821.65614 42560.75915 43410.13594 44685.0199)
5(39907.98747 40911.02409 42635.33554 43474.88178 44730.21812)
5(40006.68681 41002.41284 42716.23306 43535.45367 44753.87947)
5(40112.94333 41094.65846 42799.36266 43591.04033 44758.25122)
5(40225.63699 41198.51282 42880.98695 43635.67628 44751.08743)
5(40350.90585 41294.60509 42958.09633 43668.16762 44752.56159)
5(40469.2555 41377.29508 43016.65168 43683.27995 44777.42482)
5(40582.867 41463.00001 43066.17911 43686.94674 44796.17493)
5(40691.89952 41508.65755 43078.3435 43665.02259 44668.14304)
5(40763.23069 41541.88305 43040.94803 43586.25284 44287.26997)
5(40798.82604 41531.75163 42945.43521 43437.35594 43689.75669)
5(40773.23714 41471.53076 42847.73644 43160.17366 43091.59059)
5(40711.51926 41348.46064 42749.60854 42696.58456 42704.5811)
5(40586.35008 41094.48903 42599.73438 42075.12561 42579.42169)
5(40337.9456 40847.66385 42319.96374 41479.6902 42585.19536)
5(39990.42356 40603.79467 41815.06001 41103.87427 42588.03438)
5(39574.7371 40318.81497 41102.32644 40982.77684 42634.71071)
5(39120.25478 39932.4717 40373.72546 41028.69391 42778.80751)
5(38660.99799 39353.73514 39882.78458 41138.09724 43053.48167)
5(38163.45823 38610.01134 39672.39238 41299.6151 43466.91651)
5(37631.91844 37876.64169 39674.46902 41564.84561 43971.4738)
5(37037.1781 37431.00588 39814.82312 41964.46829 44561.43624)
5(36388.04675 37350.19721 40079.26266 42443.82894 45211.69862)
5(35806.27758 37487.27293 40435.41565 42974.07446 45956.42411)
5(35386.62722 37751.37439 40859.79755 43632.37461 46839.78337)
5(35234.55383 38061.4105 41337.7734 44395.45384 47847.89085)
5(35297.14761 38350.23925 41863.39207 45208.29334 48990.86422)
5(35517.49934 38691.7426 42428.42448 46100.61366 50257.58255)
5(35873.72881 39017.52358 42939.66839 47081.33703 51672.55597)
5(35914.45043 39127.79365 42469.624 48161.66407 53321.31347)
5(35752.8315 39102.73241 41769.89349 48729.31803 54221.02309)
)


60
(
5(36529.86237 42002.85155 35283.83325 38994.22784 33656.04689)
5(37195.06247 41572.21228 37297.47951 40190.08076 36639.17262)
5(38442.52088 40941.99817 40658.05409 42189.25966 41703.77223)
5(39511.0579 40756.65008 42661.63505 43397.72077 44912.21106)
5(40117.46739 40763.73913 43274.46361 43791.00006 46125.17315)
5(39970.51344 40635.44844 42831.30489 43531.66263 45594.91693)
5(39468.17936 40445.56841 42167.0097 43117.70563 44556.14958)
5(39167.86601 40345.45172 41830.93542 42909.10218 44045.63944)
5(39142.04953 40315.97531 41833.82891 42912.33738 44104.69126)
5(39214.44232 40325.14297 41985.1331 42997.39606 44340.60994)
5(39262.48339 40329.1263 42087.43356 43043.77802 44452.94907)
5(39267.70307 40321.05306 42098.95807 43036.39543 44439.55937)
5(39237.46429 40310.85292 42057.87226 43010.90668 44365.87937)
5(39212.37193 40306.47406 42026.72753 42993.00279 44322.06487)
5(39212.44222 40313.38591 42030.7923 42998.25018 44325.2048)
5(39230.76756 40325.94169 42055.54312 43021.1679 44353.15119)
5(39253.4638 40346.16124 42080.79332 43046.53844 44377.79876)
5(39275.84866 40371.01083 42104.78696 43075.83699 44402.1496)
5(39301.88555 40399.73582 42130.35592 43108.70578 44428.71951)
5(39328.03005 40435.36417 42156.77245 43136.93792 44453.25998)
5(39366.60322 40473.47064 42191.32825 43157.84723 44479.49158)
5(39407.50373 40515.47013 42234.19461 43186.989 44509.94749)
5(39453.56737 40563.33431 42286.17573 43227.47494 44550.64695)
5(39509.11266 40617.1126 42343.9606 43282.22504 44596.07265)
5(39571.76607 40678.27052 42407.18208 43361.98838 44647.31493)
5(39644.98807 40749.13946 42477.00389 43435.39608 44710.5244)
5(39719.75599 40828.61519 42549.04577 43501.20789 44771.19607)
5(39810.74966 40914.03974 42627.29825 43568.69381 44837.50699)
5(39910.76443 41004.46906 42724.33191 43642.21232 44911.59724)
5(40014.75851 41109.71601 42822.80584 43727.94794 44982.50381)
5(40131.10582 41225.75839 42923.23307 43819.20025 45053.27371)
5(40257.81239 41342.02301 43035.22833 43922.34872 45105.83827)
5(40392.75191 41466.95706 43156.88368 44008.70356 45148.8312)
5(40530.73973 41602.25057 43274.53477 44084.74121 45178.19975)
5(40659.50765 41733.31544 43381.7842 44164.5532 45211.65516)
5(40815.48263 41849.16764 43489.34703 44226.63383 45270.62543)
5(40959.95438 41958.58204 43574.76402 44263.00955 45303.63093)
5(41069.51844 42061.18115 43611.16834 44261.09045 45183.45307)
5(41158.19878 42117.52741 43614.49872 44204.11167 44817.59198)
5(41177.40224 42110.0117 43580.35563 44071.37015 44238.2664)
5(41171.03207 42069.08756 43475.5273 43795.59598 43635.31428)
5(41087.20733 41939.16524 43333.34266 43311.8946 43184.22012)
5(40887.96809 41692.41123 43146.63234 42657.77162 42907.85623)
5(40602.0248 41357.81144 42789.66541 41988.42925 42744.2333)
5(40204.24902 41002.38132 42195.23699 41457.58717 42595.27345)
5(39696.62333 40622.28124 41392.48953 41134.86763 42454.90195)
5(39113.36193 40080.65419 40539.23145 40954.981 42391.72588)
5(38498.94139 39314.40438 39848.15047 40829.08583 42468.65622)
5(37877.50901 38434.81261 39399.83233 40779.09374 42716.71871)
5(37229.2836 37596.72141 39163.54972 40848.37824 43123.34275)
5(36528.67551 36967.69643 39086.63078 41049.63503 43610.11776)
5(35796.97648 36662.44414 39125.74821 41379.36385 44168.71069)
5(35134.66391 36610.16492 39283.70535 41829.72886 44867.24094)
5(34656.00957 36660.997 39560.80016 42402.87808 45722.08778)
5(34375.12442 36775.74242 39923.23578 43079.33777 46712.39874)
5(34267.29067 36972.32018 40357.82477 43849.28268 47821.53235)
5(34317.15 37195.80614 40829.06811 44726.42266 49053.42699)
5(34448.53125 37414.78329 41302.73191 45618.94972 50373.15217)
5(33799.46006 36998.87169 40412.45797 46153.37492 51583.50993)
5(33082.87469 36480.21588 39287.65967 46259.12792 52121.32649)
)


60
(
5(38147.37365 43616.06951 36684.91966 40048.84839 35192.81961)
5(38388.1985 42779.04494 38421.60974 41044.00249 37863.51829)
5(38971.431 41509.25827 41292.08001 42697.76336 42375.52279)
5(39722.28229 41022.47454 42947.49323 43678.62983 45190.01384)
5(40229.96046 40949.49839 43385.33026 43966.45786 46225.77491)
5(40045.39313 40789.7711 42913.69318 43673.43991 45687.60667)
5(39518.76583 40566.76414 42259.17232 43245.59339 44674.5537)
5(39200.71429 40442.00741 41909.18444 43026.71399 44169.24308)
5(39156.27627 40395.82333 41891.4567 43014.46378 44200.04842)
5(39214.90587 40390.00948 42020.91833 43080.80287 44406.62165)
5(39249.30571 40383.3756 42108.17309 43114.08526 44509.99968)
5(39241.05737 40367.22686 42114.65065 43103.50612 44491.20077)
5(39207.17702 40349.19688 42071.00703 43075.82372 44411.85326)
5(39181.59202 40342.51156 42038.36928 43057.20586 44370.35259)
5(39179.6702 40345.60369 42042.98826 43058.55735 44375.17701)
5(39194.29068 40359.72831 42066.69163 43080.03195 44399.93595)
5(39217.62241 40382.99155 42093.24121 43104.25756 44431.01742)
5(39242.97846 40408.81624 42118.10594 43140.87459 44453.95286)
5(39268.87544 40438.83905 42145.10449 43180.99387 44481.33993)
5(39301.83952 40479.07977 42181.35649 43211.26586 44511.69732)
5(39344.49353 40523.55555 42221.19587 43242.62503 44547.24479)
5(39392.26214 40570.34304 42269.45186 43278.58613 44592.12263)
5(39443.76189 40623.93808 42330.73808 43328.76678 44641.09129)
5(39507.78665 40688.62006 42397.35885 43396.89774 44704.47322)
5(39579.92607 40763.21628 42472.81529 43480.0997 44769.32161)
5(39659.35654 40841.05402 42558.82107 43573.12147 44835.03753)
5(39747.03869 40930.15386 42644.63325 43659.13046 44920.4157)
5(39847.26883 41032.35823 42738.41433 43739.92605 44999.92942)
5(39958.90926 41141.15827 42849.37254 43835.76095 45094.51204)
5(40073.59381 41258.50206 42964.13093 43944.2487 45194.7243)
5(40200.56739 41387.6725 43089.95774 44056.97085 45288.17733)
5(40338.49417 41522.02727 43223.62598 44188.84815 45380.54795)
5(40476.64209 41669.34466 43361.93653 44300.85105 45452.74015)
5(40624.46417 41816.14583 43508.66262 44404.51408 45512.42745)
5(40776.33297 41965.75304 43640.50159 44531.4203 45581.01115)
5(40918.27127 42099.84929 43772.1876 44624.43843 45671.42084)
5(41055.13734 42224.81629 43886.26851 44690.90739 45728.57541)
5(41163.84297 42337.95959 43965.0141 44728.79768 45650.90159)
5(41232.97793 42394.37869 44013.55563 44704.20278 45323.20529)
5(41264.41642 42431.25332 43981.48754 44597.06248 44779.84524)
5(41213.52 42395.43059 43887.67913 44348.29886 44208.52242)
5(41086.83633 42241.96187 43759.36368 43884.585 43730.32709)
5(40877.71363 41986.72754 43548.2537 43219.50578 43393.84621)
5(40561.15611 41645.65199 43161.51135 42517.81511 43137.99782)
5(40133.56032 41232.05203 42511.05879 41918.53235 42852.38219)
5(39583.08789 40721.78534 41653.30394 41455.71377 42544.59778)
5(38984.09162 40113.25519 40711.13134 41114.06802 42290.51277)
5(38321.2797 39324.43998 39901.79171 40819.0542 42185.78496)
5(37675.57501 38344.64282 39330.58558 40566.48673 42249.02601)
5(37005.41139 37388.4803 38892.40306 40406.35401 42466.75124)
5(36225.11585 36671.22836 38595.85136 40409.12589 42819.85606)
5(35463.91394 36247.03316 38451.11859 40556.10933 43280.30584)
5(34766.04984 36027.58214 38426.62484 40836.03098 43863.28547)
5(34212.32536 35918.54974 38533.29388 41283.49105 44623.18363)
5(33842.93432 35914.71123 38762.45364 41858.9405 45567.00503)
5(33642.36626 35992.80261 39090.13311 42560.98893 46594.95401)
5(33576.14173 36119.50141 39475.5247 43327.80792 47714.71142)
5(33513.09607 36223.3211 39847.68353 44088.33035 48953.48165)
5(32391.26276 35035.51086 38885.15086 44245.56202 49736.75977)
5(31324.0825 33822.41202 37748.94306 44024.31714 49881.8837)
)


60
(
5(39662.82908 45138.12687 37915.48912 40946.29658 36497.45138)
5(39494.22584 43900.89069 39394.47183 41761.60667 38885.96142)
5(39435.30829 41999.08035 41817.14448 43105.38143 42908.51649)
5(39886.62269 41215.29298 43167.19997 43882.03068 45402.54189)
5(40307.27756 41067.50349 43446.22092 44070.6393 46293.73685)
5(40081.48317 40872.32327 42935.03877 43743.56337 45729.80732)
5(39523.23668 40612.92936 42279.5862 43301.79093 44725.56437)
5(39187.54967 40467.04169 41912.91028 43065.22794 44215.78789)
5(39124.91803 40398.14018 41872.67005 43032.15361 44223.14044)
5(39164.23926 40378.37679 41985.22677 43085.44008 44408.90093)
5(39185.25548 40360.99346 42061.25285 43110.52891 44498.84093)
5(39168.56899 40333.78003 42058.92977 43090.47993 44470.61257)
5(39126.40013 40311.57025 42009.51978 43056.10598 44393.87689)
5(39094.64745 40300.36868 41971.90524 43036.79413 44346.1748)
5(39090.73856 40299.95076 41971.53891 43038.58801 44345.84656)
5(39104.15036 40310.12268 41996.28471 43055.88794 44375.27305)
5(39124.45925 40330.94651 42025.18367 43079.38681 44404.40474)
5(39148.70756 40357.16194 42048.98215 43118.55231 44430.08605)
5(39177.02588 40390.97697 42078.69574 43159.14454 44460.82081)
5(39211.24712 40431.30916 42118.17161 43194.9638 44497.7104)
5(39254.72211 40476.85222 42163.71092 43232.55823 44537.229)
5(39303.26757 40528.63402 42214.36678 43273.19551 44584.41643)
5(39360.88851 40589.58134 42276.61909 43325.71918 44646.42529)
5(39431.79101 40659.42596 42354.5961 43403.64346 44712.80183)
5(39503.9507 40740.19273 42441.27198 43499.91337 44789.41946)
5(39588.57456 40819.83928 42532.15451 43601.87389 44881.10362)
5(39687.75778 40914.38935 42623.84958 43697.05007 44972.55016)
5(39793.00157 41024.29348 42728.30117 43796.47686 45068.96728)
5(39899.61132 41138.09822 42847.70342 43904.58538 45176.35818)
5(40019.0488 41274.75548 42978.60791 44021.87709 45289.79738)
5(40156.0505 41406.18313 43111.81919 44161.44772 45406.95172)
5(40289.4474 41544.60737 43257.92367 44307.11349 45523.0144)
5(40425.9326 41694.89185 43427.33492 44443.51093 45626.71661)
5(40567.73961 41849.29849 43573.13539 44575.53959 45716.56814)
5(40711.51072 42014.5799 43718.68686 44710.87785 45815.47232)
5(40850.68861 42147.36449 43880.73861 44828.56392 45934.23476)
5(40964.37466 42264.73212 44011.8256 44939.12548 46028.08378)
5(41051.64821 42397.32633 44113.56552 45013.47217 45991.86598)
5(41102.5858 42467.99187 44155.56797 45016.40879 45723.50707)
5(41093.88837 42478.59728 44147.65059 44953.8501 45233.33212)
5(41019.65923 42423.40408 44094.67884 44735.0431 44686.27299)
5(40861.97458 42265.16778 43959.87846 44298.50431 44237.98733)
5(40612.93575 42024.43758 43736.62134 43669.66313 43896.63694)
5(40275.00721 41663.38115 43349.22258 42965.07727 43575.73047)
5(39872.32268 41220.89385 42703.95986 42339.01239 43200.81173)
5(39372.69291 40723.7795 41810.89768 41797.82196 42783.01594)
5(38802.93325 40074.65717 40828.37061 41321.59484 42397.8844)
5(38189.86268 39239.41753 39939.23633 40905.07491 42121.81449)
5(37535.83752 38243.44619 39238.24351 40485.51781 41986.00987)
5(36860.50953 37261.99062 38688.06543 40136.03136 42001.79049)
5(36112.94493 36497.20414 38243.15448 39941.65763 42160.66247)
5(35307.96851 35972.35475 37939.77021 39890.66918 42450.79241)
5(34543.20407 35643.67442 37785.57965 40022.85585 42904.29211)
5(33931.6264 35442.70784 37759.43327 40316.35396 43536.12298)
5(33488.67645 35332.01881 37841.00388 40733.91056 44340.85222)
5(33197.50936 35299.21429 38043.48711 41291.8635 45270.40167)
5(33019.98007 35318.3967 38329.02901 41967.1881 46303.19213)
5(32802.31825 35262.35122 38595.4734 42667.19993 47420.55291)
5(31372.04938 33955.88797 36930.75507 42204.07172 47513.84265)
5(30087.91038 32722.98733 35147.43426 41399.66119 47038.95582)
)


60
(
5(41144.36957 46619.4585 39060.77784 41766.88188 37677.63492)
5(40571.77315 44983.16314 40294.35752 42409.42246 39803.42895)
5(39881.04008 42455.20136 42293.97684 43459.79879 43375.49691)
5(40040.37437 41377.45411 43353.90824 44045.32909 45579.11839)
5(40376.37203 41150.55412 43478.8804 44138.14731 46339.12747)
5(40109.35304 40919.449 42925.32213 43775.2175 45746.90534)
5(39516.69903 40624.50012 42264.09562 43312.99422 44740.38944)
5(39159.55006 40455.43396 41879.29765 43059.92504 44220.13526)
5(39078.54697 40367.28489 41817.30128 43009.45445 44209.1727)
5(39099.06852 40329.42144 41911.42291 43045.85403 44373.16649)
5(39105.34111 40298.68914 41973.97571 43059.88823 44449.84048)
5(39078.26197 40264.17833 41963.95291 43032.83237 44413.6106)
5(39030.40816 40231.6371 41907.46214 42992.64006 44333.62478)
5(38992.60014 40214.42502 41866.62976 42970.53402 44285.73773)
5(38981.33565 40211.83073 41864.54349 42968.54128 44282.88697)
5(38990.70576 40218.35934 41884.19543 42981.71558 44307.12275)
5(39009.76849 40236.24429 41908.25678 43009.10339 44334.39326)
5(39032.32138 40261.21091 41934.49562 43046.91018 44365.64069)
5(39059.97577 40292.41608 41966.34953 43086.50286 44395.80051)
5(39095.37645 40334.69751 42005.33247 43125.31561 44432.21518)
5(39136.04333 40381.22351 42049.52936 43163.91823 44480.63071)
5(39186.04812 40433.82452 42107.35124 43204.64292 44535.14134)
5(39248.04944 40498.27724 42177.62042 43266.3243 44598.45385)
5(39316.70861 40563.68024 42250.43636 43354.38008 44674.09152)
5(39392.3136 40643.39257 42341.11315 43451.20788 44756.89343)
5(39478.17741 40741.28978 42436.16206 43557.23698 44848.98661)
5(39574.9185 40841.49566 42537.64014 43663.48984 44949.88673)
5(39682.28613 40945.29561 42650.11259 43769.44844 45065.0304)
5(39793.56665 41065.01048 42773.08026 43888.7923 45191.12127)
5(39913.11642 41197.9573 42908.01183 44021.88401 45318.27423)
5(40038.4298 41328.353 43056.44871 44168.07867 45451.52126)
5(40166.05907 41481.73932 43206.20165 44323.10687 45582.6333)
5(40300.48404 41629.48699 43365.64452 44480.10348 45700.10176)
5(40430.50025 41768.42446 43528.85243 44628.49955 45821.12979)
5(40558.57317 41926.42506 43679.69508 44775.49386 45950.23684)
5(40665.98225 42060.28674 43845.18515 44921.52662 46089.39467)
5(40753.38486 42188.56561 43983.13567 45040.44866 46217.35239)
5(40811.08629 42292.90956 44087.36995 45130.62792 46216.16154)
5(40820.60708 42327.48121 44162.59368 45176.22481 45993.87246)
5(40777.57217 42337.74748 44149.24168 45143.83158 45545.12326)
5(40659.92623 42276.03295 44091.39202 44948.53985 45063.52221)
5(40470.44176 42092.99188 43960.00574 44539.54302 44655.5098)
5(40220.40562 41846.19925 43743.46745 43957.34675 44312.17507)
5(39911.18642 41496.2766 43364.0272 43287.08832 43985.63116)
5(39530.1211 41056.01488 42706.49765 42647.84544 43581.76705)
5(39055.89699 40566.25979 41816.675 42085.62102 43098.64375)
5(38559.38665 39942.19308 40818.02352 41535.96048 42588.60638)
5(38035.14891 39130.92396 39941.36403 40980.87363 42173.86473)
5(37427.75939 38152.24157 39192.8581 40460.95323 41884.33692)
5(36805.66738 37210.45177 38529.88096 39972.75052 41692.67076)
5(36094.42287 36407.10981 37997.65882 39598.18427 41676.88658)
5(35286.72852 35833.84429 37576.83656 39399.53028 41801.73988)
5(34477.09165 35444.63267 37303.19135 39339.46917 42040.48472)
5(33793.67173 35120.22239 37179.21188 39470.49123 42501.55975)
5(33260.21523 34924.10236 37169.61102 39782.36939 43154.56743)
5(32862.62759 34789.29826 37262.68895 40202.35484 43967.661)
5(32580.61265 34692.01712 37417.75657 40743.58626 44910.60707)
5(32239.89717 34495.07646 37504.86826 41318.47476 45887.09967)
5(30603.50943 32896.31359 35550.71706 40496.36105 45584.1945)
5(29166.61064 31456.7251 33599.01413 39400.48196 44798.68013)
)


60
(
5(42648.48082 48101.31414 40155.04929 42518.59131 38754.04322)
5(41674.25977 46068.63421 41152.03138 42993.07976 40628.69583)
5(40354.47118 42914.22578 42740.48045 43759.17329 43773.7608)
5(40224.58254 41540.74283 43520.36448 44160.15158 45703.93431)
5(40478.04333 41236.55577 43493.35966 44158.78866 46337.20686)
5(40167.53508 40969.25829 42894.07164 43758.41179 45716.30204)
5(39539.39414 40636.36688 42225.51473 43276.29267 44702.85742)
5(39160.08172 40443.85034 41820.77291 43002.95555 44169.85487)
5(39059.77873 40334.37435 41735.38525 42935.44645 44140.0668)
5(39061.04951 40279.21133 41812.36954 42956.36434 44283.48413)
5(39052.22305 40235.20239 41862.18854 42956.06842 44345.39122)
5(39015.08722 40188.89968 41841.7429 42922.06818 44302.25676)
5(38958.77589 40150.51312 41779.10154 42876.04389 44216.7412)
5(38913.6017 40127.41263 41732.38779 42848.77244 44164.97803)
5(38897.66773 40117.22212 41724.65757 42841.97001 44161.48257)
5(38902.15491 40118.79452 41742.52142 42853.59793 44181.88349)
5(38915.94994 40132.88905 41762.52193 42879.3892 44208.09426)
5(38938.0346 40158.14507 41787.73916 42915.31755 44235.17768)
5(38962.73802 40189.16871 41818.28768 42953.39421 44268.14086)
5(38993.85055 40225.59957 41853.07456 42994.731 44308.33175)
5(39038.34803 40273.127 41904.59282 43034.05643 44354.63612)
5(39087.0316 40326.92441 41962.08809 43079.20027 44411.96104)
5(39148.06679 40388.06388 42028.03145 43142.88697 44479.84156)
5(39215.42804 40464.23787 42110.2488 43224.71105 44558.79078)
5(39289.88495 40536.34835 42197.77473 43333.11442 44651.12924)
5(39381.19347 40627.67723 42292.1861 43448.34809 44752.7178)
5(39479.06276 40740.30189 42414.19371 43551.49503 44858.10234)
5(39573.23871 40846.19256 42516.55572 43658.81849 44979.7848)
5(39678.73229 40957.23022 42626.81553 43802.41148 45107.23534)
5(39794.68338 41087.98953 42777.94506 43927.49096 45249.38195)
5(39919.69881 41230.5248 42928.24272 44064.187 45393.45443)
5(40040.72804 41360.75121 43076.20465 44243.0874 45533.55983)
5(40147.84537 41499.43412 43232.62005 44408.1317 45673.39462)
5(40262.42426 41649.20179 43411.4015 44564.15953 45812.03968)
5(40367.18893 41776.42778 43555.69324 44720.40959 45962.78235)
5(40446.727 41906.03884 43697.75267 44882.71552 46122.48835)
5(40497.37236 42007.08024 43850.49578 45014.79639 46267.60311)
5(40511.83172 42075.59421 43949.24317 45097.88096 46293.2724)
5(40475.38261 42119.14156 44003.19992 45147.41565 46109.39793)
5(40388.47334 42087.78585 43991.82687 45154.34624 45725.20425)
5(40246.83667 41989.99111 43918.45703 44987.64493 45279.2447)
5(40037.26127 41794.92441 43810.15229 44616.07584 44909.75969)
5(39771.60825 41518.79242 43585.68939 44056.51818 44611.49295)
5(39466.93238 41183.55246 43180.10683 43398.00635 44290.35347)
5(39120.90712 40780.92544 42554.44986 42800.98951 43878.45125)
5(38731.4265 40289.62248 41693.29815 42231.04886 43346.81557)
5(38304.37805 39727.30826 40759.33931 41642.69262 42771.05952)
5(37834.43586 39014.73755 39871.57002 41053.37329 42264.76082)
5(37310.25209 38095.89018 39080.95251 40418.96526 41848.6328)
5(36745.50208 37195.96874 38411.73822 39817.55712 41522.97465)
5(36078.78819 36429.47748 37833.61986 39345.91805 41308.22379)
5(35316.75103 35812.14774 37329.25293 39000.92945 41231.53059)
5(34537.49416 35329.47109 36988.25021 38835.04889 41317.30393)
5(33817.0682 34934.71553 36768.83319 38839.31737 41610.55804)
5(33223.67699 34646.13034 36646.87948 38997.03071 42104.46007)
5(32711.95022 34416.54439 36661.92032 39301.55657 42756.26907)
5(32286.94529 34195.96265 36698.71274 39731.64951 43545.88698)
5(31830.41613 33852.96889 36603.29861 40143.54998 44399.97803)
5(30025.97982 32123.89258 34280.88985 38766.74342 43444.03059)
5(28495.98223 30629.14495 32070.44641 37220.68944 42060.05512)
)


60
(
5(44190.47386 49614.32276 41250.68168 43239.12227 39761.7818)
5(42815.14243 47183.93586 42014.08215 43551.19698 41391.23727)
5(40868.41102 43401.30019 43199.02796 44038.93088 44121.69906)
5(40450.06558 41731.08881 43700.62207 44257.9474 45790.34127)
5(40620.74977 41350.12777 43523.58848 44162.65007 46302.99683)
5(40266.09961 41046.08465 42881.52048 43726.23433 45647.57233)
5(39600.92309 40674.22247 42201.75088 43221.13259 44626.43115)
5(39198.98516 40456.28704 41775.9633 42928.55699 44080.09814)
5(39078.7798 40325.29736 41666.00636 42841.7767 44029.06708)
5(39061.00725 40254.02701 41725.36178 42846.56127 44152.20502)
5(39037.70991 40197.07297 41763.11055 42835.61897 44200.67154)
5(38988.15002 40138.55013 41730.21236 42789.63504 44148.7187)
5(38921.55254 40091.40159 41662.01449 42737.6575 44057.69793)
5(38870.01627 40060.57584 41608.82082 42704.21889 44000.77417)
5(38847.68184 40043.60351 41595.31541 42695.75655 43991.46702)
5(38849.34257 40042.66625 41608.63516 42701.95858 44010.42368)
5(38858.93278 40053.66705 41629.04655 42724.92783 44036.28923)
5(38875.55767 40071.77989 41646.38579 42757.01013 44063.34405)
5(38897.43799 40103.42605 41675.40295 42795.86828 44092.01306)
5(38925.30745 40137.10605 41714.26715 42835.13287 44129.93582)
5(38967.5743 40178.73958 41758.75115 42872.79416 44179.90997)
5(39017.30808 40237.34046 41818.72381 42923.66599 44241.8528)
5(39076.80271 40295.27841 41883.79865 42986.38669 44312.51412)
5(39142.17561 40362.32269 41970.16449 43075.31243 44390.50067)
5(39218.70163 40442.32222 42056.28059 43174.77733 44480.68756)
5(39302.45991 40543.9983 42149.77453 43283.08348 44588.32534)
5(39388.89317 40650.21295 42261.6549 43401.26028 44705.84344)
5(39487.87172 40739.49521 42367.85577 43523.83103 44832.08903)
5(39595.9062 40847.51003 42494.48137 43649.79714 44965.7759)
5(39701.58429 40987.40501 42633.5799 43775.37611 45106.66869)
5(39805.19566 41113.80768 42772.89568 43933.42346 45253.85352)
5(39907.65675 41238.43605 42936.01394 44112.96823 45408.72985)
5(40003.01999 41381.28323 43084.1126 44263.63892 45550.16744)
5(40094.96428 41495.84478 43224.17018 44420.20227 45694.65311)
5(40169.01832 41613.7533 43386.04441 44593.06423 45862.00175)
5(40212.17369 41723.26328 43520.36281 44734.34831 46029.07652)
5(40220.92494 41789.85678 43652.106 44869.92523 46200.83409)
5(40186.40028 41826.36911 43751.57828 44990.70161 46246.98594)
5(40103.40296 41823.09133 43775.54521 45057.79931 46076.59279)
5(39969.19866 41761.39736 43741.75172 45024.00308 45753.9567)
5(39788.19418 41629.49639 43647.86286 44859.87395 45357.52994)
5(39567.00838 41415.38013 43513.59495 44522.69462 45008.72418)
5(39305.86565 41125.40117 43284.97109 43991.56218 44744.17187)
5(39029.20144 40788.08571 42891.75608 43383.83511 44452.50477)
5(38729.37772 40406.45931 42291.35856 42786.16376 44016.53834)
5(38382.50208 39996.09961 41477.38921 42207.70667 43494.69005)