/*--------------------------------*- C++ -*----------------------------------*\
| =========                 |                                                 |
| \\      /  F ield         | OpenFOAM: The Open Source CFD Toolbox           |
|  \\    /   O peration     | Version:  2.3.1                                 |
|   \\  /    A nd           | Web:      www.OpenFOAM.org                      |
|    \\/     M anipulation  |                                                 |
\*---------------------------------------------------------------------------*/
FoamFile
{
    version     2.0;
    format      ascii;
    class       dictionary;
    location    "constant";
    object      GRPSI32;
}
// * * * * * * * * * * * * * * * * * * * * * * * * * * * * * * * * * * * * * //

GRPSI32_table
60
(

60
(
5(6.981968654e-05 9.799423575e-05 0.0001209176062 0.000165293747 0.0001763117228)
5(8.797163836e-05 0.0001535918911 0.000149664485 0.0001969109288 0.0002264412784)
5(0.0001433611017 0.0001360539307 0.0001607218721 0.0002219322086 0.0003512180191)
5(0.0001792115517 0.0001328442504 0.0001522463718 0.000248255048 0.0002184681157)
5(0.0001633624239 0.0001412631824 0.0001651129507 0.0002259319047 0.0002613031919)
5(0.0001272023949 0.000149397911 0.0002079006962 0.0002290234038 0.0002900343714)
5(0.0001154123285 0.000153709102 0.0002036544314 0.000241408784 0.0002562726732)
5(0.0001303961506 0.000153282544 0.0001862916933 0.0002297836492 0.0002914068634)
5(0.0001249929745 0.0001501299092 0.000186849771 0.0002205214735 0.0002617476813)
5(0.000128376639 0.0001467357259 0.0001749473241 0.0002162800986 0.0002460558255)
5(0.0001262006802 0.0001447828479 0.0001712373434 0.0002076509278 0.0002337050801)
5(0.000120465199 0.000141538537 0.0001710059216 0.0001984903805 0.0002254679415)
5(0.0001198800288 0.0001374557406 0.000166026845 0.0001858034686 0.0002084877388)
5(0.0001143016493 0.0001325860026 0.0001580885612 0.0001790008592 0.0001958948071)
5(0.0001138343195 0.0001287892294 0.0001516498269 0.0001657334846 0.0001808261398)
5(0.0001096007611 0.0001231720823 0.0001423499945 0.0001539133489 0.0001648913772)
5(0.0001056523121 0.0001174443609 0.0001337153015 0.0001421061208 0.0001480680937)
5(0.0001015135652 0.0001112991482 0.0001248152345 0.0001293963644 0.0001329551798)
5(9.723701431e-05 0.0001046417503 0.000115690985 0.0001183294024 0.0001188167394)
5(9.162692761e-05 9.699282009e-05 0.0001058235141 0.0001057210277 0.0001060869048)
5(8.684719256e-05 9.116539358e-05 9.799672122e-05 9.582203471e-05 9.416231837e-05)
5(8.160872689e-05 8.480428819e-05 8.903747343e-05 8.899334243e-05 8.509135449e-05)
5(7.58323851e-05 7.816875143e-05 8.127323275e-05 7.842436014e-05 7.383668472e-05)
5(7.119495446e-05 7.144056617e-05 7.38566056e-05 7.045219621e-05 6.575027529e-05)
5(6.601041273e-05 6.584199991e-05 6.682059446e-05 6.292691299e-05 5.813445796e-05)
5(6.149545118e-05 6.091841457e-05 6.027869767e-05 5.629793855e-05 5.24180171e-05)
5(5.715039547e-05 5.663130837e-05 5.586777723e-05 5.116091853e-05 4.760693605e-05)
5(5.354815134e-05 5.269378123e-05 5.110277719e-05 4.701351908e-05 4.384805542e-05)
5(4.967863287e-05 4.900886304e-05 4.778397113e-05 4.392917046e-05 4.069404751e-05)
5(4.669787424e-05 4.568057652e-05 4.480296635e-05 4.169853426e-05 3.838636592e-05)
5(4.384854941e-05 4.286328438e-05 4.175373359e-05 3.880352374e-05 3.605967579e-05)
5(4.159376817e-05 4.073719787e-05 3.977385862e-05 3.729907847e-05 3.534567436e-05)
5(3.971207246e-05 3.858324143e-05 3.748827019e-05 3.519284081e-05 3.211485392e-05)
5(3.785392294e-05 3.652224609e-05 3.517918238e-05 3.333838494e-05 3.126531467e-05)
5(3.614094387e-05 3.486026764e-05 3.34571942e-05 3.136337763e-05 2.885310618e-05)
5(3.4653844e-05 3.283031972e-05 3.094686096e-05 2.931319855e-05 2.679411744e-05)
5(3.318784865e-05 3.1710261e-05 3.024316334e-05 2.778855472e-05 2.492999043e-05)
5(3.186301293e-05 2.986040591e-05 2.846858699e-05 2.568621767e-05 2.455830531e-05)
5(3.044595107e-05 2.83910179e-05 2.651409113e-05 2.404665641e-05 2.112449226e-05)
5(2.886461453e-05 2.685544249e-05 2.452482095e-05 2.211336542e-05 2.455692728e-05)
5(2.767160183e-05 2.56501941e-05 2.337557057e-05 2.05831509e-05 2.174880349e-05)
5(2.662270289e-05 2.43473166e-05 2.198104559e-05 2.026320498e-05 1.931403384e-05)
5(2.550504784e-05 2.32681941e-05 2.075642542e-05 2.166576111e-05 1.69241156e-05)
5(2.431341231e-05 2.171850943e-05 1.840253173e-05 1.933334277e-05 1.435038649e-05)
5(2.314530818e-05 2.058583014e-05 1.738261863e-05 1.710912412e-05 1.277507573e-05)
5(2.224720668e-05 1.922235126e-05 1.64847481e-05 1.502118892e-05 1.11018497e-05)
5(2.122906261e-05 1.823872163e-05 1.705538015e-05 1.30906531e-05 9.552962894e-06)
5(2.008872441e-05 1.774132906e-05 1.59554048e-05 1.140557646e-05 8.184767782e-06)
5(1.901764396e-05 1.6140741e-05 1.412114986e-05 9.862753605e-06 7.001823284e-06)
5(1.779477593e-05 1.655517794e-05 1.231493387e-05 8.493290278e-06 5.99355812e-06)
5(1.660704296e-05 1.461871957e-05 1.065749746e-05 7.287291517e-06 5.136287431e-06)
5(1.658907071e-05 1.271398301e-05 9.16458876e-06 6.251814708e-06 4.41516852e-06)
5(1.521718165e-05 1.095811487e-05 7.851710675e-06 5.363125877e-06 3.804802593e-06)
5(1.318448573e-05 9.365889691e-06 6.702239708e-06 4.609541219e-06 3.29872631e-06)
5(1.113238936e-05 7.968094545e-06 5.712697011e-06 3.981094186e-06 2.880560782e-06)
5(9.211254242e-06 6.730180686e-06 4.863705291e-06 3.463136198e-06 2.543868059e-06)
5(7.461187247e-06 5.646982461e-06 4.146312728e-06 3.037889844e-06 2.273879311e-06)
5(5.954347768e-06 4.698315534e-06 3.539880327e-06 2.696768722e-06 2.085336967e-06)
5(4.716395292e-06 3.879243369e-06 3.012263161e-06 2.536859431e-06 1.951215611e-06)
5(3.922476162e-06 3.413755356e-06 2.854472665e-06 2.519953764e-06 2.016082582e-06)
)


60
(
5(6.903076489e-05 9.343679306e-05 0.0001165101209 0.0001551533734 0.0001667226297)
5(8.507835038e-05 0.0001285552303 0.0001393608231 0.000178042246 0.0002037853501)
5(0.0001165334964 0.0001234108546 0.0001497942289 0.0001939736318 0.0002729444448)
5(0.0001361738575 0.0001232031879 0.0001474293707 0.0002078522676 0.0002072587494)
5(0.0001292061799 0.0001279373393 0.0001535193922 0.0001955991896 0.0002256523514)
5(0.000111589182 0.0001321418032 0.0001737542223 0.0001952256816 0.0002357642528)
5(0.000105825116 0.0001338442561 0.0001704426953 0.0001989429618 0.0002150274106)
5(0.0001132022388 0.0001329050125 0.0001600962395 0.0001902694499 0.0002287591181)
5(0.0001101570261 0.0001302942137 0.0001584601447 0.0001825702249 0.0002097015761)
5(0.000111118262 0.0001271048573 0.00014999024 0.0001766804592 0.000197204978)
5(0.00010906523 0.0001242921994 0.0001453244718 0.0001683207127 0.0001856486307)
5(0.0001048508129 0.0001205791005 0.0001419502084 0.0001594303494 0.0001758712016)
5(0.0001030669621 0.000116240126 0.0001360812378 0.0001487319724 0.0001619479568)
5(9.857877702e-05 0.0001112902346 0.0001285781734 0.000140732567 0.0001501973361)
5(9.64116719e-05 0.0001067375275 0.0001217379377 0.0001296274804 0.0001372400197)
5(9.211617222e-05 0.0001010583547 0.0001132857419 0.000119253771 0.0001241481261)
5(8.799140277e-05 9.526999455e-05 0.0001052223939 0.0001089962908 0.0001108635321)
5(8.359816598e-05 8.923400837e-05 9.7092387e-05 9.851400961e-05 9.866985153e-05)
5(7.905365117e-05 8.301819947e-05 8.900168162e-05 8.90358924e-05 8.736583785e-05)
5(7.38147158e-05 7.629867479e-05 8.06445178e-05 7.907181406e-05 7.7101862e-05)
5(6.900638489e-05 7.064861309e-05 7.354345012e-05 7.080219528e-05 6.775102235e-05)
5(6.405917659e-05 6.484863918e-05 6.61350525e-05 6.431448311e-05 6.013678256e-05)
5(5.891417645e-05 5.909984653e-05 5.960948542e-05 5.6379965e-05 5.189830286e-05)
5(5.440436904e-05 5.34980353e-05 5.35253519e-05 5.012441412e-05 4.564609584e-05)
5(4.986359654e-05 4.868215069e-05 4.795533983e-05 4.439252431e-05 4.003884904e-05)
5(4.579906357e-05 4.444850215e-05 4.287000053e-05 3.943219516e-05 3.569912185e-05)
5(4.203679961e-05 4.07865547e-05 3.917476624e-05 3.553377415e-05 3.217813972e-05)
5(3.883506773e-05 3.753497194e-05 3.561209422e-05 3.243088403e-05 2.946114155e-05)
5(3.576191646e-05 3.461856456e-05 3.299012332e-05 3.010390243e-05 2.725536064e-05)
5(3.327645251e-05 3.210949436e-05 3.076614533e-05 2.840845692e-05 2.568999164e-05)
5(3.108572938e-05 3.004868427e-05 2.868696261e-05 2.654369586e-05 2.424965704e-05)
5(2.933310505e-05 2.846507773e-05 2.72896389e-05 2.549002066e-05 2.372191763e-05)
5(2.790347456e-05 2.69794568e-05 2.583782711e-05 2.42283938e-05 2.199558905e-05)
5(2.659291276e-05 2.564872227e-05 2.444843227e-05 2.313557057e-05 2.148602605e-05)
5(2.543282811e-05 2.456172747e-05 2.338463061e-05 2.200469424e-05 2.019245118e-05)
5(2.439814409e-05 2.333168475e-05 2.196422289e-05 2.083384556e-05 1.907245873e-05)
5(2.347400269e-05 2.257675072e-05 2.144681381e-05 1.993313037e-05 1.800603417e-05)
5(2.261653418e-05 2.14629961e-05 2.03930203e-05 1.87219732e-05 1.766679048e-05)
5(2.172545632e-05 2.056282557e-05 1.924344569e-05 1.77214827e-05 1.577797323e-05)
5(2.076186563e-05 1.960197958e-05 1.807229183e-05 1.657244669e-05 1.731434556e-05)
5(1.998804574e-05 1.884125117e-05 1.734585506e-05 1.561899513e-05 1.574081016e-05)
5(1.932930746e-05 1.801006714e-05 1.646812757e-05 1.527890049e-05 1.434352364e-05)
5(1.860924058e-05 1.731644422e-05 1.568735019e-05 1.580649814e-05 1.295703212e-05)
5(1.78824561e-05 1.641709992e-05 1.433946411e-05 1.447156037e-05 1.145422063e-05)
5(1.718309745e-05 1.569865355e-05 1.366799815e-05 1.319142449e-05 1.0438887e-05)
5(1.664689034e-05 1.489125154e-05 1.307043463e-05 1.196062134e-05 9.358159197e-06)
5(1.606029384e-05 1.427533708e-05 1.321651686e-05 1.078819035e-05 8.328729119e-06)
5(1.54226051e-05 1.390914254e-05 1.251511716e-05 9.714544022e-06 7.377926586e-06)
5(1.481238147e-05 1.297436212e-05 1.142262428e-05 8.690971311e-06 6.513415342e-06)
5(1.414325836e-05 1.305335738e-05 1.031530654e-05 7.737757869e-06 5.739140835e-06)
5(1.34671729e-05 1.192761175e-05 9.250005809e-06 6.85710539e-06 5.049999364e-06)
5(1.33593571e-05 1.07768666e-05 8.243217208e-06 6.057069606e-06 4.443475941e-06)
5(1.252433122e-05 9.654882696e-06 7.302935309e-06 5.338913084e-06 3.912520673e-06)
5(1.131620162e-05 8.585144963e-06 6.439654701e-06 4.704714755e-06 3.453095667e-06)
5(1.004448681e-05 7.577543917e-06 5.660325315e-06 4.150228846e-06 3.063680449e-06)
5(8.790884977e-06 6.64975437e-06 4.966949954e-06 3.674145454e-06 2.73731364e-06)
5(7.590834093e-06 5.808788913e-06 4.35944922e-06 3.271027332e-06 2.467893829e-06)
5(6.512764858e-06 5.054098299e-06 3.835820654e-06 2.939328534e-06 2.263436802e-06)
5(5.604030664e-06 4.413713508e-06 3.397247781e-06 2.728534101e-06 2.110901887e-06)
5(5.141058035e-06 4.158574977e-06 3.440091679e-06 2.864639402e-06 2.228169601e-06)
)


60
(
5(6.753378685e-05 8.722364525e-05 0.0001089029695 0.0001391821072 0.0001521617005)
5(8.121844857e-05 0.0001012473274 0.000124602404 0.0001517919444 0.0001726839786)
5(8.840791468e-05 0.0001080489035 0.0001334019489 0.0001576790307 0.0001833429146)
5(9.161919635e-05 0.0001105305732 0.0001364896594 0.0001586067041 0.000184215676)
5(9.323183847e-05 0.0001112645017 0.0001355126834 0.00015621715 0.0001787211053)
5(9.388015161e-05 0.0001111501923 0.0001330151678 0.0001523611706 0.0001711241859)
5(9.386703232e-05 0.0001100587928 0.0001302961613 0.0001473245092 0.0001637530171)
5(9.336861515e-05 0.0001082800397 0.0001267887662 0.0001416801843 0.0001563005319)
5(9.233666411e-05 0.0001058360186 0.0001226861758 0.0001354846283 0.000148038603)
5(9.059760005e-05 0.0001026476748 0.000117632652 0.0001282634396 0.0001388601449)
5(8.835073899e-05 9.881899653e-05 0.0001119247107 0.0001204238239 0.0001287265519)
5(8.552066588e-05 9.454979102e-05 0.0001055421709 0.0001122029358 0.0001182592553)
5(8.2253744e-05 8.979668462e-05 9.884096727e-05 0.0001038419006 0.0001079018407)
5(7.868790543e-05 8.471693281e-05 9.196267409e-05 9.524104777e-05 9.763508518e-05)
5(7.471805945e-05 7.939600634e-05 8.494705624e-05 8.67842085e-05 8.760441376e-05)
5(7.044011417e-05 7.385913204e-05 7.781638591e-05 7.84154518e-05 7.799521708e-05)
5(6.596564396e-05 6.818800583e-05 7.070143664e-05 7.027295914e-05 6.883815438e-05)
5(6.136248781e-05 6.24511314e-05 6.373520636e-05 6.248765698e-05 6.02466893e-05)
5(5.658256354e-05 5.687415657e-05 5.70865428e-05 5.514317134e-05 5.228833227e-05)
5(5.190969296e-05 5.138104229e-05 5.072678366e-05 4.829962035e-05 4.501510359e-05)
5(4.725806491e-05 4.609466356e-05 4.481162886e-05 4.210970274e-05 3.859711441e-05)
5(4.264507721e-05 4.114523019e-05 3.939127147e-05 3.644821671e-05 3.281031762e-05)
5(3.829863538e-05 3.651938227e-05 3.44354702e-05 3.148008003e-05 2.786561933e-05)
5(3.430473223e-05 3.22858167e-05 2.997070968e-05 2.71909673e-05 2.364689585e-05)
5(3.057059398e-05 2.848433799e-05 2.614894581e-05 2.34768986e-05 2.017942597e-05)
5(2.716075425e-05 2.51665484e-05 2.280110701e-05 2.03577362e-05 1.731314081e-05)
5(2.414962853e-05 2.232105409e-05 2.003408016e-05 1.782033604e-05 1.50718555e-05)
5(2.156195128e-05 1.988568109e-05 1.777626506e-05 1.581704982e-05 1.339334757e-05)
5(1.934955854e-05 1.787492945e-05 1.59610744e-05 1.429146662e-05 1.212396672e-05)
5(1.749666203e-05 1.626569874e-05 1.456109828e-05 1.314858792e-05 1.128675269e-05)
5(1.601478508e-05 1.499555518e-05 1.350371609e-05 1.233249988e-05 1.070556804e-05)
5(1.484040061e-05 1.40191345e-05 1.27304067e-05 1.17607711e-05 1.036788804e-05)
5(1.392178594e-05 1.327444144e-05 1.217329307e-05 1.137131068e-05 1.017195258e-05)
5(1.321266517e-05 1.27127809e-05 1.176616082e-05 1.109823359e-05 1.005513296e-05)
5(1.26758843e-05 1.227956486e-05 1.145229127e-05 1.089091959e-05 9.952398298e-06)
5(1.223358466e-05 1.193215302e-05 1.119534737e-05 1.070334653e-05 9.857495011e-06)
5(1.189736747e-05 1.163485245e-05 1.095878765e-05 1.052533296e-05 9.714513876e-06)
5(1.159172878e-05 1.135864904e-05 1.073549118e-05 1.031578422e-05 9.517919581e-06)
5(1.131555099e-05 1.110998329e-05 1.05070848e-05 1.007593874e-05 9.304556434e-06)
5(1.106369781e-05 1.084613097e-05 1.027358329e-05 9.826228329e-06 9.064038745e-06)
5(1.082685207e-05 1.061793986e-05 1.004798244e-05 9.563592049e-06 8.835849879e-06)
5(1.060960697e-05 1.036275668e-05 9.795082865e-06 9.304924395e-06 8.583571427e-06)
5(1.039188293e-05 1.014158437e-05 9.552123701e-06 9.058623144e-06 8.306643247e-06)
5(1.020642586e-05 9.957395422e-06 9.312035764e-06 8.820347905e-06 7.993877687e-06)
5(1.005581659e-05 9.765432727e-06 9.092698855e-06 8.580299314e-06 7.650295423e-06)
5(9.943070048e-06 9.596152698e-06 8.88530688e-06 8.316380955e-06 7.281887425e-06)
5(9.855273356e-06 9.438813263e-06 8.702613729e-06 8.017407036e-06 6.885285326e-06)
5(9.798227746e-06 9.308152965e-06 8.506039923e-06 7.680802569e-06 6.459385329e-06)
5(9.741206719e-06 9.176181521e-06 8.280594364e-06 7.305090793e-06 6.014729076e-06)
5(9.731869447e-06 9.040420332e-06 8.005536662e-06 6.888690995e-06 5.555689011e-06)
5(9.701219306e-06 8.867219503e-06 7.665591104e-06 6.436342435e-06 5.099043529e-06)
5(9.657322863e-06 8.629283292e-06 7.267088803e-06 5.962238895e-06 4.651412596e-06)
5(9.560840457e-06 8.300485147e-06 6.811941643e-06 5.48028823e-06 4.230242236e-06)
5(9.38202554e-06 7.891656554e-06 6.323412142e-06 5.008794377e-06 3.833731645e-06)
5(9.088333721e-06 7.404571713e-06 5.822068181e-06 4.558297319e-06 3.477841888e-06)
5(8.677795586e-06 6.881878617e-06 5.329072894e-06 4.141210582e-06 3.162567332e-06)
5(8.170996375e-06 6.349270213e-06 4.861946178e-06 3.767458203e-06 2.88730376e-06)
5(7.614542959e-06 5.841929611e-06 4.443988439e-06 3.444645418e-06 2.658568437e-06)
5(7.092112788e-06 5.41625814e-06 4.118639398e-06 3.190620688e-06 2.487590398e-06)
5(7.029248308e-06 5.680074541e-06 4.554782618e-06 3.485206517e-06 2.84248766e-06)
)


60
(
5(6.605382995e-05 8.404425909e-05 0.0001031310963 0.0001294389813 0.0001444941746)
5(7.91378076e-05 9.693800647e-05 0.0001167251137 0.000139695059 0.000159864752)
5(8.572914446e-05 0.0001029753928 0.0001239420295 0.000144232145 0.0001668128397)
5(8.851448723e-05 0.0001049090309 0.0001260483713 0.0001445013552 0.0001670429806)
5(8.966881674e-05 0.0001051655862 0.0001247232948 0.0001420336929 0.0001625486646)
5(8.988038423e-05 0.0001045216577 0.0001220008035 0.000138241176 0.0001564056096)
5(8.94159389e-05 0.0001030501845 0.0001188749015 0.0001334431599 0.0001497049142)
5(8.844767303e-05 0.000100823076 0.0001151772615 0.0001280667375 0.0001426077616)
5(8.692191866e-05 9.799715328e-05 0.0001108564022 0.000121958241 0.0001347460836)
5(8.48193325e-05 9.454411117e-05 0.0001058492971 0.0001152818737 0.0001261512847)
5(8.217112359e-05 9.059626553e-05 0.0001002012026 0.0001080518845 0.0001169174884)
5(7.906070732e-05 8.622262331e-05 9.415290239e-05 0.0001005958316 0.0001076118664)
5(7.557741734e-05 8.142518368e-05 8.786713189e-05 9.290173703e-05 9.82264706e-05)
5(7.172917752e-05 7.644512519e-05 8.142093682e-05 8.522808108e-05 8.901177878e-05)
5(6.774557257e-05 7.127171357e-05 7.495831065e-05 7.760036866e-05 8.008341959e-05)
5(6.358297006e-05 6.604793457e-05 6.850836519e-05 7.012556441e-05 7.141556581e-05)
5(5.910440491e-05 6.074781671e-05 6.212807796e-05 6.287004784e-05 6.311590384e-05)
5(5.462302333e-05 5.547259176e-05 5.595426433e-05 5.592591582e-05 5.543150131e-05)
5(5.012917616e-05 5.030613704e-05 4.999472796e-05 4.944137246e-05 4.823689209e-05)
5(4.568956725e-05 4.529090271e-05 4.439482526e-05 4.335095082e-05 4.167187536e-05)
5(4.136009788e-05 4.048178248e-05 3.915158294e-05 3.774457776e-05 3.569091176e-05)
5(3.720352659e-05 3.597128684e-05 3.431788474e-05 3.272017659e-05 3.042224865e-05)
5(3.321414552e-05 3.17755232e-05 2.988737091e-05 2.81783479e-05 2.579013098e-05)
5(2.955052236e-05 2.793646266e-05 2.592853749e-05 2.416260185e-05 2.173866597e-05)
5(2.611253524e-05 2.448962867e-05 2.244282276e-05 2.068267845e-05 1.831316282e-05)
5(2.305163578e-05 2.141242074e-05 1.941646504e-05 1.77260312e-05 1.550065637e-05)
5(2.029816098e-05 1.879847728e-05 1.687060795e-05 1.527158952e-05 1.3187089e-05)
5(1.791296697e-05 1.651965544e-05 1.47210807e-05 1.327495041e-05 1.139244341e-05)
5(1.585526125e-05 1.463277747e-05 1.299390952e-05 1.172185317e-05 1.00179359e-05)
5(1.414584791e-05 1.30932157e-05 1.163516414e-05 1.05335979e-05 9.043047354e-06)
5(1.274307846e-05 1.186870355e-05 1.059911758e-05 9.664935467e-06 8.375495191e-06)
5(1.16406916e-05 1.092815402e-05 9.840350425e-06 9.072414428e-06 7.956764712e-06)
5(1.077264932e-05 1.023400169e-05 9.298990647e-06 8.680029775e-06 7.752149527e-06)
5(1.012025592e-05 9.713747557e-06 8.942967839e-06 8.446384282e-06 7.657418893e-06)
5(9.64795761e-06 9.354668788e-06 8.716338369e-06 8.314723119e-06 7.637653824e-06)
5(9.334390227e-06 9.102676426e-06 8.559971085e-06 8.240054686e-06 7.641764443e-06)
5(9.080314386e-06 8.925247696e-06 8.456368766e-06 8.18708671e-06 7.652341341e-06)
5(8.887932285e-06 8.788790223e-06 8.375567884e-06 8.133159312e-06 7.629677945e-06)
5(8.749408759e-06 8.677715726e-06 8.301924393e-06 8.067238081e-06 7.586703312e-06)
5(8.641511865e-06 8.582242696e-06 8.223396155e-06 7.98629972e-06 7.530319435e-06)
5(8.557951593e-06 8.483834912e-06 8.129310229e-06 7.89049383e-06 7.453212228e-06)
5(8.457569754e-06 8.379177907e-06 8.034444023e-06 7.786022869e-06 7.355349873e-06)
5(8.378266513e-06 8.286733457e-06 7.934668682e-06 7.688465771e-06 7.244054318e-06)
5(8.302326873e-06 8.211622417e-06 7.84231226e-06 7.595846469e-06 7.107656143e-06)
5(8.246753825e-06 8.16034853e-06 7.77150791e-06 7.504238717e-06 6.946937913e-06)
5(8.221416833e-06 8.116850012e-06 7.710937534e-06 7.407716995e-06 6.76608981e-06)
5(8.21005541e-06 8.100920047e-06 7.674234111e-06 7.2926505e-06 6.557597189e-06)
5(8.237096389e-06 8.112981385e-06 7.651379196e-06 7.154324715e-06 6.321605489e-06)
5(8.298067662e-06 8.159511444e-06 7.622056568e-06 6.99181785e-06 6.05224107e-06)
5(8.395678476e-06 8.212501083e-06 7.563580052e-06 6.784079696e-06 5.747291735e-06)
5(8.534051411e-06 8.272359066e-06 7.461639259e-06 6.528998301e-06 5.415799133e-06)
5(8.704089053e-06 8.30587204e-06 7.298635382e-06 6.227381732e-06 5.065878995e-06)
5(8.893470944e-06 8.278026325e-06 7.068217971e-06 5.888205932e-06 4.707732649e-06)
5(9.054427196e-06 8.166434519e-06 6.772863304e-06 5.518363368e-06 4.351677629e-06)
5(9.153431451e-06 7.969337761e-06 6.422353699e-06 5.136366014e-06 4.009509841e-06)
5(9.12813314e-06 7.682176123e-06 6.035498794e-06 4.759455243e-06 3.693032594e-06)
5(8.987656584e-06 7.325132005e-06 5.641781621e-06 4.403800041e-06 3.408873257e-06)
5(8.722966227e-06 6.940460567e-06 5.275072258e-06 4.090294219e-06 3.167805463e-06)
5(8.383294417e-06 6.586388019e-06 4.998816651e-06 3.862184107e-06 2.999063163e-06)
5(8.475021528e-06 6.998937175e-06 5.609915907e-06 4.219747947e-06 3.567147564e-06)
)


60
(
5(6.450512086e-05 8.107862945e-05 9.845013358e-05 0.0001228003844 0.0001401553417)
5(7.688382476e-05 9.303783896e-05 0.0001105550028 0.0001318915666 0.0001532672884)
5(8.304582632e-05 9.851235684e-05 0.0001167747511 0.000135888731 0.0001591288339)
5(8.542247519e-05 0.0001000842971 0.0001183991277 0.000136050283 0.0001588646301)
5(8.622974526e-05 0.000100083442 0.0001171069687 0.0001338176853 0.0001551522903)
5(8.618287607e-05 9.924767051e-05 0.0001144409723 0.0001302241644 0.0001498987163)
5(8.542919141e-05 9.755205597e-05 0.0001113218374 0.0001259189429 0.0001436976674)
5(8.420304617e-05 9.521643796e-05 0.0001077627139 0.0001209121282 0.0001370423542)
5(8.244076406e-05 9.228189995e-05 0.0001035448185 0.0001152164553 0.0001296113775)
5(8.019922683e-05 8.884306709e-05 9.874574752e-05 0.0001089869599 0.0001214991561)
5(7.738357897e-05 8.494907684e-05 9.339876073e-05 0.0001023469043 0.0001129505233)
5(7.428649641e-05 8.070488568e-05 8.780230595e-05 9.546687026e-05 0.0001042035512)
5(7.078029492e-05 7.617709838e-05 8.200114579e-05 8.837820747e-05 9.546363622e-05)
5(6.705340942e-05 7.148510632e-05 7.609243088e-05 8.125877071e-05 8.683161322e-05)
5(6.308685221e-05 6.664753419e-05 7.013544465e-05 7.421488873e-05 7.833097409e-05)
5(5.900985032e-05 6.167504053e-05 6.420230191e-05 6.735067154e-05 7.02106476e-05)
5(5.488044278e-05 5.67511743e-05 5.840663011e-05 6.063465132e-05 6.235931211e-05)
5(5.063506298e-05 5.188429743e-05 5.278286156e-05 5.424176053e-05 5.502465005e-05)
5(4.651339204e-05 4.710503857e-05 4.732539071e-05 4.813853184e-05 4.813963939e-05)
5(4.226011037e-05 4.249574825e-05 4.216678492e-05 4.243177263e-05 4.18938165e-05)
5(3.823954627e-05 3.809735101e-05 3.728141362e-05 3.710845312e-05 3.60871496e-05)
5(3.450374454e-05 3.389158467e-05 3.276498721e-05 3.22699131e-05 3.084798391e-05)
5(3.084271782e-05 3.000184389e-05 2.862148947e-05 2.784716897e-05 2.618774584e-05)
5(2.728513748e-05 2.642188408e-05 2.490863093e-05 2.389180221e-05 2.213023043e-05)
5(2.414965696e-05 2.316984365e-05 2.154685477e-05 2.042044707e-05 1.860021743e-05)
5(2.124389569e-05 2.02304744e-05 1.859446461e-05 1.740902361e-05 1.56196391e-05)
5(1.866764028e-05 1.760199368e-05 1.602330501e-05 1.485060276e-05 1.314055314e-05)
5(1.633808596e-05 1.534070268e-05 1.385775281e-05 1.272755868e-05 1.11325551e-05)
5(1.436538509e-05 1.341783593e-05 1.205120439e-05 1.100926809e-05 9.561485023e-06)
5(1.267586098e-05 1.182824377e-05 1.059133859e-05 9.66199111e-06 8.371449358e-06)
5(1.126987408e-05 1.054009434e-05 9.457261998e-06 8.658817241e-06 7.539751919e-06)
5(1.012790242e-05 9.53330043e-06 8.615267557e-06 7.925934503e-06 6.967677847e-06)
5(9.242425238e-06 8.778117483e-06 7.998712431e-06 7.437688304e-06 6.633248932e-06)
5(8.57092718e-06 8.226591795e-06 7.574716132e-06 7.137305968e-06 6.485467652e-06)
5(8.089811567e-06 7.840635124e-06 7.308658156e-06 6.973697567e-06 6.433546985e-06)
5(7.748575836e-06 7.587433519e-06 7.16037517e-06 6.89933746e-06 6.441074158e-06)
5(7.513865193e-06 7.439256324e-06 7.092039847e-06 6.881679957e-06 6.484444456e-06)
5(7.373164978e-06 7.355855642e-06 7.059356403e-06 6.888364489e-06 6.537094153e-06)
5(7.287376771e-06 7.308646009e-06 7.044844454e-06 6.897731419e-06 6.564311517e-06)
5(7.245349084e-06 7.277532357e-06 7.034036082e-06 6.897445889e-06 6.592857417e-06)
5(7.214891796e-06 7.251475464e-06 7.021979814e-06 6.88466772e-06 6.592857044e-06)
5(7.193852498e-06 7.227045115e-06 7.00502116e-06 6.863571894e-06 6.582687293e-06)
5(7.172023217e-06 7.207264896e-06 6.983220678e-06 6.840012157e-06 6.555291393e-06)
5(7.148732452e-06 7.198156712e-06 6.96676684e-06 6.82154374e-06 6.511093808e-06)
5(7.122750813e-06 7.191372565e-06 6.962577282e-06 6.809258585e-06 6.455149439e-06)
5(7.113236088e-06 7.197686712e-06 6.979769132e-06 6.801880245e-06 6.388038225e-06)
5(7.113746217e-06 7.225081496e-06 7.017166378e-06 6.795279945e-06 6.305390381e-06)
5(7.142644344e-06 7.275398545e-06 7.08524195e-06 6.78254406e-06 6.208859695e-06)
5(7.208189809e-06 7.360180893e-06 7.165844227e-06 6.760101074e-06 6.081034524e-06)
5(7.296256936e-06 7.486700188e-06 7.247746108e-06 6.71786566e-06 5.921493378e-06)
5(7.452338783e-06 7.656738538e-06 7.325208804e-06 6.641854431e-06 5.720825236e-06)
5(7.659731068e-06 7.838092035e-06 7.373551948e-06 6.514881528e-06 5.486463669e-06)
5(7.926589114e-06 8.039854731e-06 7.371152665e-06 6.340405923e-06 5.21766217e-06)
5(8.228887499e-06 8.206851792e-06 7.311049953e-06 6.107981441e-06 4.927497381e-06)
5(8.561978735e-06 8.315883103e-06 7.173946456e-06 5.8365642e-06 4.62497734e-06)
5(8.850097238e-06 8.351507092e-06 6.968790474e-06 5.538257128e-06 4.32903067e-06)
5(9.088428536e-06 8.279490792e-06 6.704557135e-06 5.23726381e-06 4.050716926e-06)
5(9.212250063e-06 8.136126268e-06 6.433290341e-06 4.965718689e-06 3.821091634e-06)
5(9.219534016e-06 7.928928369e-06 6.229033322e-06 4.797712019e-06 3.67602545e-06)
5(9.326674746e-06 8.214571609e-06 6.721855381e-06 5.308304377e-06 4.217205001e-06)
)


60
(
5(6.294021367e-05 7.832428191e-05 9.458727262e-05 0.0001180987058 0.0001373672241)
5(7.465712182e-05 8.955880495e-05 0.000105742395 0.0001265689225 0.0001496641091)
5(8.03740164e-05 9.454162437e-05 0.0001112953118 0.0001303760325 0.0001549713039)
5(8.245177007e-05 9.589851502e-05 0.0001126906169 0.0001306839381 0.0001549427048)
5(8.298406322e-05 9.57483235e-05 0.0001114306267 0.0001286961344 0.0001515443806)
5(8.275729586e-05 9.479073804e-05 0.0001090050249 0.0001255209605 0.0001467503569)
5(8.183144975e-05 9.307412239e-05 0.0001060920413 0.0001215411321 0.0001410370504)
5(8.042725948e-05 9.075066559e-05 0.0001027222646 0.0001168704054 0.0001347085435)
5(7.860474359e-05 8.779696952e-05 9.868890008e-05 0.0001115796448 0.0001276244284)
5(7.61967388e-05 8.445692628e-05 9.417456313e-05 0.0001057573903 0.0001197129143)
5(7.346178174e-05 8.069234712e-05 8.919007395e-05 9.957281847e-05 0.0001117024595)
5(7.037050867e-05 7.669599049e-05 8.40080033e-05 9.310480753e-05 0.0001033877411)
5(6.691096376e-05 7.244509409e-05 7.856528626e-05 8.651298916e-05 9.514947237e-05)
5(6.332328061e-05 6.79933785e-05 7.313901529e-05 7.985868596e-05 8.678904964e-05)
5(5.949880171e-05 6.34136432e-05 6.759146904e-05 7.324672038e-05 7.873518958e-05)
5(5.559530619e-05 5.879602334e-05 6.213399439e-05 6.677559112e-05 7.080296362e-05)
5(5.169255698e-05 5.420104352e-05 5.670091305e-05 6.046548211e-05 6.332596002e-05)
5(4.774018923e-05 4.96635909e-05 5.141772056e-05 5.438031704e-05 5.613856665e-05)
5(4.373099716e-05 4.518542577e-05 4.631616425e-05 4.849234049e-05 4.957424077e-05)
5(3.992348193e-05 4.090314263e-05 4.147298886e-05 4.298013725e-05 4.322768152e-05)
5(3.618567291e-05 3.6800782e-05 3.687643036e-05 3.783539129e-05 3.757761837e-05)
5(3.249834499e-05 3.283494134e-05 3.257827554e-05 3.305192525e-05 3.235365791e-05)
5(2.912781058e-05 2.913432426e-05 2.859263546e-05 2.867935182e-05 2.75516401e-05)
5(2.58905657e-05 2.572746404e-05 2.493010818e-05 2.470950527e-05 2.33938561e-05)
5(2.290992161e-05 2.255595938e-05 2.16028556e-05 2.115821949e-05 1.968990032e-05)
5(2.0158323e-05 1.970005521e-05 1.864375617e-05 1.803278654e-05 1.655091074e-05)
5(1.767268636e-05 1.709924066e-05 1.603319944e-05 1.532382085e-05 1.380898809e-05)
5(1.548617129e-05 1.483473206e-05 1.379244783e-05 1.301190597e-05 1.155702271e-05)
5(1.357705125e-05 1.2886621e-05 1.18772882e-05 1.110153229e-05 9.781277053e-06)
5(1.182009195e-05 1.123353385e-05 1.028126287e-05 9.564611761e-06 8.370604847e-06)
5(1.039776242e-05 9.861039087e-06 9.002910899e-06 8.367959535e-06 7.336845976e-06)
5(9.226654607e-06 8.777800492e-06 8.026551663e-06 7.463475177e-06 6.639556323e-06)
5(8.310350304e-06 7.941277659e-06 7.300013276e-06 6.829226292e-06 6.105833065e-06)
5(7.587203575e-06 7.309477965e-06 6.779697022e-06 6.414894803e-06 5.831700108e-06)
5(7.057351786e-06 6.861695734e-06 6.449651258e-06 6.176003794e-06 5.707059887e-06)
5(6.689567122e-06 6.573096207e-06 6.258578491e-06 6.060793207e-06 5.678953513e-06)
5(6.446343329e-06 6.40968844e-06 6.165761543e-06 6.031131579e-06 5.71209301e-06)
5(6.304900351e-06 6.327243491e-06 6.139864909e-06 6.046374557e-06 5.772457012e-06)
5(6.229256357e-06 6.295787277e-06 6.153634437e-06 6.081637866e-06 5.842827622e-06)
5(6.193591109e-06 6.300937209e-06 6.186021816e-06 6.12115457e-06 5.902962242e-06)
5(6.190269528e-06 6.321289412e-06 6.218838268e-06 6.156261597e-06 5.95637748e-06)
5(6.194546384e-06 6.346630813e-06 6.249852885e-06 6.184592469e-06 5.99953231e-06)
5(6.196450796e-06 6.368283911e-06 6.280291276e-06 6.207759053e-06 6.019549685e-06)
5(6.200318534e-06 6.384005751e-06 6.304990464e-06 6.235451217e-06 6.03421266e-06)
5(6.196304287e-06 6.399326754e-06 6.328984234e-06 6.265819384e-06 6.035862557e-06)
5(6.183395953e-06 6.410608516e-06 6.371200647e-06 6.307130903e-06 6.042746991e-06)
5(6.194819432e-06 6.42421192e-06 6.435705909e-06 6.360229035e-06 6.043296371e-06)
5(6.21473648e-06 6.463121943e-06 6.525374637e-06 6.425036358e-06 6.043684647e-06)
5(6.253058736e-06 6.532841907e-06 6.640122125e-06 6.495260075e-06 6.02986694e-06)
5(6.312555317e-06 6.653809663e-06 6.782981927e-06 6.575295827e-06 6.002168643e-06)
5(6.42062988e-06 6.820246896e-06 6.949567032e-06 6.648161431e-06 5.944045277e-06)
5(6.568538227e-06 7.033823453e-06 7.133568594e-06 6.698080691e-06 5.847827707e-06)
5(6.760475188e-06 7.291817691e-06 7.317043817e-06 6.715040553e-06 5.709147532e-06)