/*--------------------------------*- C++ -*----------------------------------*\
| =========                 |                                                 |
| \\      /  F ield         | OpenFOAM: The Open Source CFD Toolbox           |
|  \\    /   O peration     | Version:  2.3.1                                 |
|   \\  /    A nd           | Web:      www.OpenFOAM.org                      |
|    \\/     M anipulation  |                                                 |
\*---------------------------------------------------------------------------*/
FoamFile
{
    version     2.0;
    format      ascii;
    class       dictionary;
    location    "constant";
    object      GRPSI49;
}
// * * * * * * * * * * * * * * * * * * * * * * * * * * * * * * * * * * * * * //

GRPSI49_table
60
(

60
(
5(-2.130438625e-07 6.788955879e-07 6.907726883e-07 3.127973152e-06 6.445235966e-06)
5(-1.71387393e-07 1.8777765e-07 2.923939126e-07 3.810405549e-07 7.242359776e-07)
5(-9.662744631e-06 -4.799064994e-06 4.100663918e-08 -9.309383415e-08 -2.035863027e-07)
5(-2.906931451e-05 -1.452414092e-05 -9.812249909e-08 1.198381885e-08 2.412453002e-07)
5(-3.58464796e-05 -1.783189306e-05 5.731100414e-08 -1.114285414e-07 -1.547856048e-07)
5(-2.897588071e-05 -1.453186535e-05 2.049614624e-07 1.814526119e-07 -1.348676831e-07)
5(1.074354605e-08 7.935168839e-08 1.538321401e-07 1.023342411e-06 1.886980373e-06)
5(3.001150784e-07 4.826470913e-07 3.727789637e-07 -2.113679912e-07 -5.031148055e-07)
5(-3.921539746e-05 -1.892461468e-05 5.510472165e-07 -1.502045195e-08 2.340327642e-07)
5(-5.528640008e-05 -2.742409696e-05 -3.337665677e-07 -1.816054115e-08 1.069418215e-06)
5(-5.909696833e-05 -3.005741379e-05 -4.913054992e-07 6.092612492e-07 1.183274248e-06)
5(-2.916472148e-05 -1.349354691e-05 1.667230226e-06 2.238191222e-06 3.319549653e-06)
5(2.200918725e-06 2.1833216e-06 3.096189909e-06 3.814167786e-06 3.60168023e-06)
5(2.72150498e-06 3.000605663e-06 3.121475566e-06 4.424117488e-06 5.884990191e-06)
5(3.838679497e-06 4.057006663e-06 5.52371688e-06 6.200264059e-06 5.628428186e-06)
5(8.221380777e-06 5.315833208e-06 5.60372783e-06 7.500334531e-06 6.203499041e-06)
5(8.180012192e-06 8.122007576e-06 7.998473156e-06 1.0440557e-05 1.294817066e-05)
5(1.118102348e-05 9.55865064e-06 1.246908426e-05 1.781826932e-05 1.863464792e-05)
5(1.343368551e-05 1.36602421e-05 1.738745871e-05 2.488411457e-05 2.888011041e-05)
5(1.563525336e-05 1.809788594e-05 2.56606297e-05 2.819451525e-05 2.562828962e-05)
5(1.767254202e-05 2.090885482e-05 3.110735154e-05 3.39308851e-05 2.979223475e-05)
5(2.085868491e-05 2.66511525e-05 2.825680931e-05 3.1147238e-05 3.822447747e-05)
5(2.473297801e-05 3.047020134e-05 3.999725153e-05 4.689747299e-05 5.000786758e-05)
5(3.430127401e-05 3.692976847e-05 4.464241074e-05 5.183857762e-05 5.395059669e-05)
5(3.991832203e-05 4.423974753e-05 5.551196426e-05 6.209438766e-05 6.172601983e-05)
5(4.697241984e-05 5.599063429e-05 7.012745697e-05 6.437812254e-05 5.351017988e-05)
5(4.92179519e-05 5.888228961e-05 8.427284834e-05 7.712674642e-05 5.425442347e-05)
5(5.529817862e-05 7.132994595e-05 9.653175109e-05 7.882157235e-05 5.194135582e-05)
5(6.138244881e-05 7.404481986e-05 9.994369926e-05 8.986981135e-05 6.655941509e-05)
5(7.444414779e-05 8.005543039e-05 9.450424497e-05 9.046071599e-05 7.757965504e-05)
5(8.399312877e-05 9.220148241e-05 0.000107312655 9.095219298e-05 6.768891206e-05)
5(8.819566857e-05 9.297456598e-05 9.716758651e-05 5.698720185e-05 1.739269407e-05)
5(0.0001022357143 0.0001051286754 9.908064531e-05 9.13916778e-05 9.264370154e-05)
5(0.0001166129097 0.0001204088262 9.047677179e-05 2.600050651e-05 -4.747787956e-06)
5(0.0001180217346 0.0001206288738 9.006287113e-05 2.190078587e-05 -1.308815743e-05)
5(0.0001469118188 0.0001538689728 7.970032937e-05 -1.80285071e-05 -3.463154614e-05)
5(0.000116004037 0.0001065826458 6.53761262e-05 2.249632026e-05 1.140164262e-05)
5(0.0001435194695 0.0001049278218 5.635622706e-05 -9.837508714e-05 -0.0002431264543)
5(0.0001279379509 0.0001117802234 3.339419739e-05 -2.516966025e-05 -2.150521932e-05)
5(0.0001043689846 0.0001145410475 2.564139013e-05 -0.0003802850801 -0.00068713983)
5(5.999745515e-05 6.083781158e-05 7.615894667e-06 -0.0003521927803 -0.000657939182)
5(5.670282982e-05 4.024453461e-05 -0.0001116604101 -0.0003618273674 -0.000476547675)
5(-1.533247611e-05 -3.973451329e-06 -0.0003464321884 -0.0003459541919 8.341566476e-06)
5(-1.692146867e-05 9.900221461e-05 -0.0003798116644 -0.0004700297212 3.448978413e-05)
5(-9.200383605e-05 2.919970681e-05 -0.0003731067782 -0.0004372742566 2.206829269e-05)
5(-3.282876144e-05 -5.461289811e-05 -0.0003930321339 -0.0003413268172 2.701359865e-05)
5(-8.385851155e-05 -0.000315304109 -0.0003569014373 -6.519199176e-05 3.666918477e-05)
5(-0.0003181048458 -0.0003873806336 -0.0002148753017 4.169079569e-05 5.647577341e-05)
5(-0.0002648326175 -0.0003838187739 -0.0002177875787 7.408486396e-05 8.093995511e-05)
5(-0.000751409061 -0.0003512616261 7.198432032e-05 0.0001043900942 0.0001136973565)
5(-0.000647846606 -0.0002833276206 0.0001068612717 0.0001448548057 0.0001571784328)
5(-0.0001318081517 -9.575079054e-06 0.0001469715905 0.0001983089639 0.0002153327403)
5(8.434382921e-05 0.0001193832428 0.0002000526122 0.0002685974988 0.0002915124295)
5(0.0001507522343 0.000181358212 0.0002696987684 0.0003616036067 0.0003957738661)
5(0.0002017157039 0.0002444346605 0.0003612856058 0.000481080084 0.0005267425736)
5(0.000224619202 0.0003050315342 0.0004764345876 0.000632710115 0.0006979949212)
5(0.0001931507329 0.0003523874475 0.0006216919638 0.0008148739175 0.0008979880693)
5(0.0003135480812 0.0004557122113 0.0007596148332 0.00102313557 0.001124917816)
5(0.0005421722001 0.0006928663856 0.000743265069 0.001210039496 0.001777109426)
5(0.0009006600754 0.001120377126 0.001711873172 0.001994862025 0.001906071882)
)


60
(
5(1.705811379e-07 2.027021224e-06 3.271189055e-06 1.174470172e-05 2.083048664e-05)
5(6.908867069e-07 1.295625716e-06 2.528905952e-06 5.589901599e-06 8.02235602e-06)
5(1.32461451e-06 1.309191708e-06 2.863665537e-06 4.481488388e-06 4.529414609e-06)
5(2.254429219e-06 2.019667327e-06 4.424001103e-06 6.296748112e-06 5.530399452e-06)
5(3.583146227e-06 3.696553612e-06 7.490173972e-06 1.166012581e-05 1.214986466e-05)
5(5.541109309e-06 6.442991018e-06 1.236461436e-05 2.116011799e-05 2.493587999e-05)
5(8.38986406e-06 1.005884713e-05 1.885642843e-05 3.256360082e-05 3.914217499e-05)
5(1.248953334e-05 1.480412939e-05 2.712531044e-05 4.525034958e-05 5.336880372e-05)
5(1.807363656e-05 2.099835741e-05 3.770852707e-05 6.066988174e-05 6.984578762e-05)
5(2.550352076e-05 2.929524098e-05 5.138642905e-05 8.169388548e-05 9.370187406e-05)
5(3.482789138e-05 4.026219857e-05 6.880434527e-05 0.0001077511832 0.0001235901817)
5(4.67817073e-05 5.44769122e-05 9.034624479e-05 0.0001394536543 0.0001603869361)
5(6.157158388e-05 7.198721849e-05 0.0001163088639 0.0001771236066 0.0002040323383)
5(7.94675891e-05 9.300855192e-05 0.0001470092398 0.0002192233994 0.000250977834)
5(0.0001009425851 0.0001179165993 0.0001823126319 0.0002669110806 0.0003040875108)
5(0.000126381872 0.0001473267486 0.0002227515233 0.000320808627 0.0003643858325)
5(0.0001553153162 0.0001812602884 0.0002686948961 0.0003808029304 0.0004314213291)
5(0.0001891838988 0.0002204255093 0.0003199485313 0.0004445036005 0.0005007772584)
5(0.0002273521877 0.0002645334696 0.0003765921958 0.0005133694538 0.0005752692677)
5(0.0002706429823 0.0003139287317 0.0004381294195 0.0005852268384 0.0006514093189)
5(0.000318410606 0.0003683165813 0.0005038243432 0.000660228782 0.0007310314341)
5(0.0003707759869 0.0004274594603 0.0005728868913 0.0007350463184 0.000808461788)
5(0.0004292039018 0.0004920706643 0.0006439924978 0.0008105580073 0.0008880684457)
5(0.0004924446488 0.0005608577901 0.0007165083249 0.0008838132107 0.0009638807031)
5(0.0005584581287 0.0006324032841 0.0007909266667 0.0009557883845 0.001036071875)
5(0.0006306046062 0.0007094677696 0.0008667960349 0.001022444897 0.001099628656)
5(0.0007044317376 0.000788363421 0.0009425653489 0.00108323742 0.001153639247)
5(0.0007831006861 0.0008692341068 0.001014903233 0.001135400888 0.001196362836)
5(0.0008628539227 0.0009509767215 0.001082424072 0.001177989022 0.00123022942)
5(0.0009456713693 0.001033284887 0.001144468474 0.001208825413 0.001249612283)
5(0.001027132093 0.001112904182 0.001198824555 0.001225706334 0.001252439828)
5(0.001108193536 0.001188733361 0.001243639544 0.001225521428 0.001233036953)
5(0.001186059018 0.001259549875 0.001275474308 0.001206201062 0.001194494241)
5(0.001260402786 0.001323072721 0.001291214191 0.001158815573 0.001120945419)
5(0.001324731215 0.001374428722 0.001287029595 0.00108458772 0.001019242479)
5(0.001377855981 0.001412150816 0.001259870848 0.0009828227384 0.0008923494321)
5(0.001409528397 0.001428076564 0.001204270758 0.0008584919038 0.0007550670212)
5(0.001421266639 0.001417507338 0.001119565818 0.0007109357636 0.0005964879263)
5(0.0013994704 0.001373942094 0.001002493904 0.0005135127114 0.000370451402)
5(0.001346003152 0.001292795435 0.000842552051 0.0002385732221 3.163005914e-05)
5(0.00124415714 0.001165838071 0.0006379938874 -0.0001220287002 -0.0004325261733)
5(0.001108363489 0.001002898306 0.0003662146085 -0.0005516311668 -0.0009382584274)
5(0.0008993541461 0.0007952830433 2.427974779e-05 -0.001003737248 -0.00136482205)
5(0.0006202745116 0.0005497761883 -0.0003814231324 -0.001436302132 -0.001630480134)
5(0.0003215777505 0.000257878171 -0.0008405585742 -0.001814212325 -0.001753128909)
5(6.772350076e-06 -0.0001038262127 -0.001306839476 -0.002093640533 -0.001788026891)
5(-0.000300524308 -0.000532275953 -0.001733995309 -0.002235351353 -0.001766739684)
5(-0.0006465443049 -0.0009933532485 -0.002066667844 -0.002245222749 -0.001697272003)
5(-0.001046081931 -0.001424573302 -0.002261899198 -0.002145447556 -0.001570161388)
5(-0.001533831755 -0.00178296915 -0.002284835108 -0.001957406513 -0.001377249356)
5(-0.001982485383 -0.002001754306 -0.002146578594 -0.001708177525 -0.001144221089)
5(-0.002255682728 -0.00204513565 -0.001886909926 -0.001416197374 -0.0008931634678)
5(-0.002209471529 -0.001878689562 -0.001559650165 -0.001094407361 -0.0006174219886)
5(-0.001879985148 -0.001542629764 -0.001192900465 -0.0007546918797 -0.00032885721)
5(-0.001349536162 -0.001089233223 -0.0007924849884 -0.0003873910253 -1.874235833e-05)
5(-0.0007275073431 -0.0005765265324 -0.0003616531696 1.518289128e-05 0.0003281264002)
5(-0.0001036745408 -4.504121378e-05 0.0001036192114 0.0004620431429 0.0007304399763)
5(0.0004888954446 0.0004786410366 0.0006053794449 0.0009682145988 0.001194056936)
5(0.0009782595047 0.000957147091 0.001165224288 0.001584878657 0.001775343416)
5(0.001531246325 0.001440595835 0.001956476102 0.00250232698 0.002441647101)
)


60
(
5(8.611071078e-07 4.400872155e-06 8.660451139e-06 2.672445022e-05 4.406863537e-05)
5(1.961400364e-06 3.739469804e-06 8.322742288e-06 1.833423706e-05 2.554052879e-05)
5(3.724378616e-06 4.421322073e-06 1.026541118e-05 1.878152712e-05 2.215049741e-05)
5(6.272707663e-06 6.860447185e-06 1.523152095e-05 2.639472253e-05 2.977458987e-05)
5(9.916072632e-06 1.15330887e-05 2.386043331e-05 4.153436169e-05 4.849796151e-05)
5(1.505733292e-05 1.867454777e-05 3.632578594e-05 6.458631631e-05 7.881282334e-05)
5(2.221625471e-05 2.81266641e-05 5.236879873e-05 9.114784119e-05 0.0001115951584)
5(3.199777474e-05 3.997688382e-05 7.215189022e-05 0.0001214011038 0.00014645442)
5(4.504635845e-05 5.497360782e-05 9.657463466e-05 0.0001574275878 0.0001866067635)
5(6.144289655e-05 7.403067024e-05 0.0001269275925 0.0002023603238 0.0002374839065)
5(8.19623207e-05 9.830684212e-05 0.0001640599088 0.000256606567 0.0002997446799)
5(0.0001066122054 0.0001280787714 0.0002083773849 0.0003201674311 0.0003731254298)
5(0.0001368602111 0.0001640511216 0.0002599475071 0.0003915778498 0.0004545027174)
5(0.0001729244978 0.0002063665325 0.0003189483547 0.0004700482706 0.0005420083991)
5(0.0002147654914 0.0002552063352 0.0003854533581 0.0005576190865 0.0006399786358)
5(0.000262743897 0.0003110236189 0.0004597289477 0.0006519439097 0.0007437332648)
5(0.0003183423225 0.0003750378786 0.0005420727931 0.0007539708043 0.000855529457)
5(0.0003813616501 0.000446779126 0.0006320818423 0.0008615412845 0.0009711154863)
5(0.0004512344509 0.0005263073994 0.0007293173827 0.000974820144 0.001092385871)
5(0.0005283480478 0.0006133833344 0.0008333392991 0.001091306904 0.001214353831)
5(0.0006132928935 0.0007080888912 0.000942863444 0.001210295929 0.00133774986)
5(0.0007048891398 0.0008092711231 0.001056553095 0.00133214621 0.001464839336)
5(0.0008058071856 0.0009186384657 0.001174203488 0.00145042408 0.00158391093)
5(0.0009107832483 0.001033037013 0.001293958484 0.001566710578 0.001700794965)
5(0.001024565537 0.001154194879 0.001415495496 0.00167825331 0.001809339848)
5(0.001143643958 0.001279598899 0.001538300821 0.001785245426 0.001909443048)
5(0.001267718802 0.001408738501 0.001659941794 0.001884445794 0.001998766201)
5(0.001396762511 0.001540610781 0.001778150846 0.001970595786 0.00206934893)
5(0.001530860673 0.001674891078 0.001890517676 0.00204810751 0.002134101151)
5(0.001664588688 0.001808526018 0.001996556608 0.002110314523 0.002179979178)
5(0.001805825408 0.001942742071 0.002091668653 0.00215146229 0.002199246008)
5(0.001943600024 0.002072090224 0.002175624695 0.002174505187 0.002198341408)
5(0.002076117848 0.002195775174 0.002245565437 0.002166845963 0.002157993552)
5(0.002207960627 0.002310733292 0.002294050731 0.002132589364 0.002090583224)
5(0.002330351166 0.002412052027 0.002318972597 0.002059241051 0.001974289797)
5(0.002437992228 0.002497383052 0.002315888379 0.001949249938 0.001823496993)
5(0.002515620247 0.002554176544 0.002279902923 0.001809201965 0.001651330925)
5(0.00259692086 0.002593428344 0.002203820985 0.001624496759 0.001431287375)
5(0.002627825161 0.002584419507 0.002080596755 0.001370924729 0.001121669799)
5(0.002622647717 0.002534456506 0.001904115788 0.001019074323 0.0006761823661)
5(0.002578183102 0.002437908134 0.001660076454 0.0005387800358 5.504032978e-05)
5(0.002463539307 0.002275092653 0.001327743484 -3.955337543e-05 -0.0006479477195)
5(0.002293505245 0.002063574209 0.0008865613142 -0.0006913521289 -0.001322183712)
5(0.00203450717 0.001785014952 0.0003319244994 -0.001365432658 -0.001859191581)
5(0.001703127819 0.001423676143 -0.0003154162409 -0.002018534612 -0.002262012274)
5(0.001324424508 0.0009517661203 -0.001026509106 -0.002592474649 -0.002552823354)
5(0.0009195769576 0.00036606017 -0.001741389954 -0.003039805465 -0.002784287639)
5(0.0004286654144 -0.0003145794581 -0.002390627106 -0.003331565464 -0.002939701047)
5(-0.0002003570589 -0.001029363876 -0.002902406646 -0.0034645108 -0.002982579)
5(-0.0009770478339 -0.001711499955 -0.003222238511 -0.003445334312 -0.002892143677)
5(-0.001802415046 -0.002274894864 -0.003322461192 -0.003286794423 -0.002676041145)
5(-0.002491002772 -0.002646335148 -0.00322670381 -0.003013057238 -0.00237437438)
5(-0.002835795815 -0.002757407119 -0.00297215288 -0.002637796508 -0.002010305681)
5(-0.002796033591 -0.002602942212 -0.002590339555 -0.002169171288 -0.001567514298)
5(-0.002406926882 -0.002203356214 -0.002090892484 -0.00163686269 -0.001091725957)
5(-0.001801947729 -0.001639998803 -0.001498048395 -0.001033082045 -0.0005481171777)
5(-0.001046117706 -0.0009612127538 -0.0008298204295 -0.0003661141044 5.110484909e-05)
5(-0.0002677480132 -0.0002431276067 -8.7786285e-05 0.0003804192826 0.0007179039351)
5(0.0004910389163 0.0004885587545 0.0007131682724 0.001222117232 0.001503976513)
5(0.001404794903 0.001376572756 0.001948602002 0.002435560601 0.002322267805)
)


60
(
5(1.967252022e-06 7.971992219e-06 1.726158275e-05 4.805281239e-05 7.55591917e-05)
5(4.006788233e-06 7.655475526e-06 1.773601855e-05 3.88621109e-05 5.355634753e-05)
5(7.39569866e-06 9.682107941e-06 2.231098119e-05 4.286526948e-05 5.307709381e-05)
5(1.223949393e-05 1.481829452e-05 3.203152382e-05 5.798501532e-05 6.93040781e-05)
5(1.889505049e-05 2.361003746e-05 4.760730739e-05 8.479321202e-05 0.0001026968337)
5(2.803753967e-05 3.634947285e-05 6.928382488e-05 0.0001229172711 0.0001519282985)
5(4.058171201e-05 5.290501908e-05 9.655422904e-05 0.0001665997559 0.00020531938)
5(5.720336066e-05 7.337814746e-05 0.0001294877494 0.0002156531661 0.0002618837677)
5(7.861668449e-05 9.867295381e-05 0.0001693409467 0.0002733397748 0.0003267268794)
5(0.0001050992838 0.0001300538977 0.0002175459693 0.0003429789444 0.0004058744619)
5(0.0001374096394 0.000168752718 0.0002749242728 0.0004247197124 0.0004996866759)
5(0.000176312732 0.0002155457512 0.0003418421144 0.0005174163458 0.0006059272333)
5(0.0002223960948 0.0002707323877 0.0004186079243 0.0006206401019 0.0007231330357)
5(0.0002766486779 0.0003345735093 0.0005048750762 0.0007321239828 0.0008469961541)
5(0.0003385662857 0.0004071555535 0.0006006768663 0.0008531858271 0.0009807627427)
5(0.0004096451894 0.000489460814 0.0007062719804 0.0009825492524 0.001121830983)
5(0.0004894268521 0.000581291875 0.0008214013432 0.001120383055 0.001271120321)
5(0.0005794185755 0.0006834109798 0.0009454697976 0.001264490242 0.001425444272)
5(0.0006770551599 0.000794407907 0.001078360899 0.001414460533 0.001583959922)
5(0.0007869449156 0.0009160951458 0.001218900749 0.001568364648 0.001744173174)
5(0.0009043914632 0.001046295478 0.001366078329 0.001723557359 0.001903157551)
5(0.001027735345 0.001183005961 0.001517257657 0.001882757916 0.002069277095)
5(0.001162454654 0.001329250503 0.001673173604 0.00203672449 0.002223148124)
5(0.001311431442 0.001485840216 0.001832440149 0.002190124925 0.002375618543)
5(0.001461089205 0.001646393595 0.001993617589 0.00233808504 0.002520632889)
5(0.001621889867 0.00181454167 0.002155974391 0.002480070029 0.002655384747)
5(0.001787302956 0.001986857095 0.002318544095 0.002613527026 0.002776377094)
5(0.001961627658 0.0021645024 0.002478113903 0.002737179113 0.002885507561)
5(0.002136949854 0.00234273947 0.002632019742 0.00284461621 0.00297372202)
5(0.002317453486 0.002523018525 0.002779925341 0.002940772348 0.003050277578)
5(0.002503081698 0.002703480892 0.002918223446 0.003017511994 0.003102457183)
5(0.002688448697 0.002880065734 0.003044631151 0.003073753574 0.003129927616)
5(0.00287118293 0.003053764824 0.003156505254 0.003099194965 0.00312172614)
5(0.003056852882 0.00322200818 0.003248923176 0.003092029296 0.003073375718)
5(0.003230938712 0.003375528449 0.003318378991 0.003050816322 0.002984992849)
5(0.003399699342 0.003516045336 0.003360635147 0.00296572411 0.002842569256)
5(0.003552565508 0.003636565284 0.00336984676 0.002844495658 0.002669862854)
5(0.003679957629 0.003729603444 0.003337645383 0.002673268808 0.002450496111)
5(0.003789657088 0.00379377205 0.003256655007 0.002419681926 0.002123940851)
5(0.003863708061 0.003814628185 0.003116435172 0.002051594979 0.001635867924)
5(0.003887771905 0.003777636066 0.002899383768 0.001540189504 0.0009491116987)
5(0.003883606034 0.003694275113 0.002581548523 0.0009032019155 0.0001482509777)
5(0.003793396242 0.003539735929 0.002136083583 0.0001540027698 -0.0006780860093)
5(0.003634964691 0.003318508321 0.001545756377 -0.0006582925044 -0.00140604581)
5(0.003385562489 0.002990214115 0.0008207953783 -0.001490451272 -0.002027627561)
5(0.003081015396 0.002534017668 -7.772789599e-06 -0.002295369947 -0.002588174374)
5(0.002701872633 0.001920100568 -0.0008940846211 -0.003021609787 -0.003116721829)
5(0.002233291431 0.001161217408 -0.001781232703 -0.003614116745 -0.003576624701)
5(0.001559438442 0.0002961038954 -0.002588393676 -0.004069611158 -0.003929665616)
5(0.0006525510677 -0.0006038631377 -0.003238345624 -0.004353815429 -0.004091216953)
5(-0.0004164470496 -0.001477599165 -0.0036920521 -0.004452427922 -0.004059502925)
5(-0.001476999352 -0.002243229559 -0.003937696708 -0.004372191014 -0.003878448378)
5(-0.002324719298 -0.002801416092 -0.003978178292 -0.004098972516 -0.003519701335)
5(-0.002825049301 -0.003078710231 -0.003802426904 -0.003654121681 -0.003035760716)
5(-0.002943908744 -0.003044256039 -0.003408671218 -0.003057250478 -0.002441761854)
5(-0.002727512848 -0.0027328926 -0.002815348256 -0.002318634066 -0.001744843972)
5(-0.002179442433 -0.002154841413 -0.002059573952 -0.001473462937 -0.0009580183627)
5(-0.001384307537 -0.001374551388 -0.001168014796 -0.000524400706 -7.756705943e-05)
5(-0.0004623104885 -0.0004629170552 -0.0001557203207 0.0005392752196 0.0009264674587)
5(0.0009867998126 0.0009961472824 0.001590939493 0.002231297019 0.002286209804)
)


60
(
5(3.610870699e-06 1.285318485e-05 2.917941698e-05 7.529245129e-05 0.0001143215676)
5(6.883951906e-06 1.320063554e-05 3.089284381e-05 6.6843936e-05 9.141950355e-05)
5(1.232400303e-05 1.71111484e-05 3.876604223e-05 7.54954922e-05 9.535719372e-05)
5(1.994314138e-05 2.559390262e-05 5.406315565e-05 9.891338931e-05 0.0001209451312)
5(3.024415696e-05 3.935581614e-05 7.748231408e-05 0.0001383405897 0.0001701840265)
5(4.405012105e-05 5.848231304e-05 0.0001089057797 0.0001915359591 0.0002381748638)
5(6.24772175e-05 8.285399681e-05 0.0001478000832 0.000252452403 0.0003125354156)
5(8.640845534e-05 0.0001127281898 0.0001944570809 0.0003201640026 0.0003904617677)
5(0.000116635032 0.0001490105074 0.0002499595066 0.0003990479396 0.0004795628489)
5(0.0001535768782 0.0001932393192 0.0003157124036 0.0004912782284 0.0005840334099)
5(0.0001979194697 0.0002468220705 0.0003927352012 0.0005988756189 0.0007080055067)
5(0.0002503702104 0.0003103622413 0.000481523724 0.0007181870216 0.0008436808674)
5(0.000312269504 0.0003843266829 0.000581575121 0.0008490456446 0.0009913249089)
5(0.0003835689364 0.0004684231169 0.0006927320656 0.0009890535293 0.001145920225)
5(0.0004655193598 0.0005634960659 0.0008151169151 0.001139719391 0.001310677723)
5(0.0005579096707 0.0006698436849 0.0009487836795 0.001299511985 0.001483234309)
5(0.000659549593 0.000787124634 0.001092675609 0.001468761157 0.001666870772)
5(0.0007738244342 0.0009165415169 0.00124626711 0.001642498411 0.001851721202)
5(0.0008982806079 0.001056400083 0.001410090937 0.001823820084 0.002041977852)
5(0.001033828234 0.001207297737 0.001582251031 0.002008445491 0.002233156159)
5(0.001180268736 0.001368857353 0.001761299873 0.002196260904 0.002427368033)
5(0.001337037918 0.001539786582 0.001945973706 0.002384306784 0.002619201401)
5(0.001505412602 0.001720414496 0.002134793429 0.002570013654 0.00280585684)
5(0.001681751934 0.001908844379 0.002327078284 0.002758029273 0.002997838803)
5(0.001864776426 0.00210450803 0.002523186382 0.002936062397 0.003169991664)
5(0.002061465344 0.002310187303 0.002721924456 0.003111102724 0.003337265799)
5(0.00226220925 0.002519216665 0.00291999832 0.003279726975 0.003495681391)
5(0.002468279529 0.002733168716 0.003117213325 0.003435299353 0.003634229961)
5(0.002676979461 0.002949546159 0.003311077197 0.003581623944 0.003763206349)
5(0.002901629554 0.003173065715 0.003498320022 0.003711297377 0.003870456585)
5(0.003125093036 0.003394163523 0.003677463898 0.003824129068 0.003956564353)
5(0.00335077169 0.003614295233 0.003846620577 0.003920391527 0.004025360676)
5(0.003582731899 0.003835580746 0.00400345208 0.003983313361 0.004048152155)
5(0.003813536422 0.004053328822 0.004144496079 0.00401854975 0.004041228564)
5(0.004041683803 0.004262282191 0.004264403525 0.004016933362 0.003987940254)
5(0.004261654279 0.004459408417 0.004358716289 0.003975196272 0.003890122522)
5(0.004466798987 0.004639455342 0.004423702956 0.003895962113 0.003756630014)
5(0.00466866505 0.004803688322 0.004452282956 0.00376570463 0.00356555494)
5(0.004850248417 0.004938736546 0.004434002669 0.003559486447 0.003278192231)
5(0.005009637115 0.005040450184 0.004361112678 0.003230690022 0.002810417939)
5(0.005141297128 0.005102713055 0.004215513492 0.002758687441 0.00215047688)
5(0.005230753073 0.00511679409 0.003970582431 0.002133843781 0.001329357806)
5(0.005270592462 0.005075809208 0.003592858075 0.001381108579 0.0004575269621)
5(0.005272127113 0.004979661366 0.003056723791 0.0005291765529 -0.0003678988566)
5(0.005205862794 0.004788225354 0.002365544697 -0.0003963502961 -0.001153202074)
5(0.00508399926 0.004463908575 0.001536285865 -0.001343770968 -0.001916295774)
5(0.00491877825 0.003980579705 0.0006006809847 -0.002262978438 -0.002684937686)
5(0.004623850079 0.003317561305 -0.0003881351654 -0.003113883073 -0.003440223284)
5(0.004121740883 0.002506202594 -0.001363131333 -0.00386663453 -0.004116342091)
5(0.00332637991 0.001580716237 -0.002265587546 -0.00449385693 -0.004621486202)
5(0.0022884036 0.0005826212008 -0.003056066634 -0.004961646581 -0.00493432109)
5(0.001163518333 -0.0004166163715 -0.003710865572 -0.005229006188 -0.005033032307)
5(8.989621817e-05 -0.001338669631 -0.004194409936 -0.005245846089 -0.004870107787)
5(-0.0008390408895 -0.002108785283 -0.004462985396 -0.005053897071 -0.004560353026)
5(-0.001575766989 -0.002670742403 -0.004470412466 -0.004584582952 -0.00399405879)
5(-0.001984009178 -0.00290913149 -0.004178523686 -0.003871975935 -0.003221158301)
5(-0.002107635181 -0.002830121491 -0.0035812979 -0.002962961781 -0.002315935563)
5(-0.001849636378 -0.002377717685 -0.00269357474 -0.001881742828 -0.001282135169)
5(-0.001143454062 -0.001488359029 -0.001503977914 -0.0006402051062 -0.0001057183789)
5(0.000777195438 0.0004492802842 0.0004661127181 0.001385344995 0.001959829685)
)


60
(
5(5.915891945e-06 1.910520234e-05 4.44830362e-05 0.000107930548 0.0001591895364)
5(1.06483188e-05 2.04105934e-05 4.767875849e-05 0.0001011923962 0.0001372001434)
5(1.863593538e-05 2.675166176e-05 5.922898382e-05 0.0001148440857 0.0001460975918)
5(2.931107206e-05 3.910790427e-05 8.055392932e-05 0.0001485807121 0.000184958302)
5(4.34436452e-05 5.825708505e-05 0.0001122253845 0.0002004276331 0.0002494750221)
5(6.223074329e-05 8.419392726e-05 0.0001537651699 0.0002680599989 0.0003347467692)
5(8.668706963e-05 0.0001166257339 0.0002044577153 0.0003459104672 0.000429469902)
5(0.0001184027373 0.0001561464678 0.0002643563989 0.0004308138054 0.0005268050113)
5(0.0001574772113 0.0002035250852 0.0003349333171 0.0005288526851 0.0006374116952)
5(0.0002050265453 0.0002606930684 0.0004176567621 0.0006430241299 0.0007670943271)
5(0.0002610303551 0.0003286653311 0.000513397783 0.0007728593056 0.0009152233522)
5(0.0003276236924 0.0004088418555 0.0006222462405 0.0009165170817 0.001078601701)
5(0.000403974364 0.000500428232 0.0007439838244 0.001071303069 0.001251520589)
5(0.0004919170695 0.0006039376842 0.0008779956848 0.001237092312 0.001434151553)
5(0.000590826401 0.0007193273264 0.001024323785 0.001413796233 0.001626773148)
5(0.0007024066562 0.0008477237212 0.001182538263 0.001599826088 0.001827616437)
5(0.0008259864558 0.0009887731775 0.001351773823 0.001795173935 0.002038360122)
5(0.0009607865116 0.001141921773 0.001532194435 0.001995977305 0.002250622774)
5(0.001108579527 0.001307607809 0.001722467512 0.002205730283 0.002473161632)
5(0.001267396794 0.001484482238 0.00192178257 0.002415574039 0.002689150618)
5(0.001437045231 0.001672162301 0.002128850114 0.002630552098 0.00291068334)
5(0.001622327561 0.001872475254 0.002341733141 0.002847679007 0.003134514679)
5(0.00181439352 0.002080611188 0.002559743735 0.003062952383 0.003353246152)
5(0.002016405364 0.002298207617 0.002782493128 0.003276942632 0.003568908879)
5(0.002229756999 0.002525410441 0.003009368721 0.003488923516 0.003780173471)
5(0.002452873209 0.002760755457 0.003239305198 0.003691874309 0.003973775925)
5(0.00268301672 0.003002141612 0.003470416634 0.003890564781 0.0041615628)
5(0.002921698717 0.003249750595 0.003700204317 0.004078761866 0.00433491757)
5(0.003166402458 0.003501652598 0.003927543632 0.004259920536 0.004501656545)
5(0.003420907833 0.003758631458 0.004150929538 0.004425058023 0.004644612053)
5(0.003673246753 0.004015059202 0.004368768785 0.004577459683 0.004774253446)
5(0.003936821857 0.004276998462 0.004579139187 0.004710759042 0.004880414777)
5(0.004206489696 0.004539059163 0.004778728578 0.004819851995 0.004953875463)
5(0.004478100688 0.004799711855 0.004966207113 0.004895246364 0.004979401523)
5(0.004749660218 0.005056722972 0.005137968583 0.004951223486 0.004990295531)
5(0.005009255823 0.005302892888 0.005289228819 0.004964741172 0.004947554659)
5(0.005282073802 0.005549101252 0.005415641932 0.0049394734 0.004863791639)
5(0.005538489842 0.005775281412 0.005510866628 0.004870793366 0.004731926457)
5(0.005800660601 0.005991498124 0.005568038733 0.004730303288 0.004506864756)
5(0.006042946902 0.006182395512 0.00557776215 0.004474596108 0.004115512039)
5(0.00627830354 0.006347490563 0.005524891361 0.004053625804 0.003474146472)
5(0.006491926913 0.00648223648 0.005382104353 0.003514002552 0.002736342447)
5(0.006687965576 0.006587887653 0.005115967882 0.002811158323 0.001878190613)
5(0.006865250736 0.00665883727 0.004700831214 0.002007623631 0.001066008639)
5(0.007012804489 0.00666227652 0.004135927807 0.001092411907 0.0002247167508)
5(0.007120919627 0.00655250462 0.003431314235 0.0001244256622 -0.0006296875338)
5(0.007228411985 0.006313777466 0.002609120269 -0.0008629321936 -0.001544961977)
5(0.007129671005 0.005858083342 0.001701667274 -0.00185924815 -0.002535335167)
5(0.006862041443 0.005269198656 0.0007588362243 -0.002826431786 -0.003494180152)
5(0.006353769071 0.00455466295 -0.0001790087216 -0.00374061332 -0.004367652368)
5(0.005521361802 0.003675912768 -0.001110085858 -0.004552710022 -0.005054784594)
5(0.004594163967 0.002739477375 -0.002012933229 -0.005247622218 -0.005584587195)
5(0.003683907713 0.001753966853 -0.002895319266 -0.005737889044 -0.005861113563)
5(0.002877626231 0.0008281718843 -0.003672524113 -0.005995631755 -0.005867497747)
5(0.002048482498 -7.492818699e-05 -0.004251914471 -0.005939755089 -0.005574020106)
5(0.001442483222 -0.0007773100973 -0.00455277637 -0.005533624448 -0.004958799572)
5(0.0007727816633 -0.001331506433 -0.004446510917 -0.00480464141 -0.004152055513)
5(0.0004942804494 -0.001471105057 -0.003923125987 -0.003737008401 -0.003064255392)
5(0.0004946813025 -0.001075214107 -0.00276390248 -0.002317763324 -0.001752831206)