/*--------------------------------*- C++ -*----------------------------------*\
| =========                 |                                                 |
| \\      /  F ield         | OpenFOAM: The Open Source CFD Toolbox           |
|  \\    /   O peration     | Version:  2.3.1                                 |
|   \\  /    A nd           | Web:      www.OpenFOAM.org                      |
|    \\/     M anipulation  |                                                 |
\*---------------------------------------------------------------------------*/
FoamFile
{
    version     2.0;
    format      ascii;
    class       dictionary;
    location    "constant";
    object      GRPSI5;
}
// * * * * * * * * * * * * * * * * * * * * * * * * * * * * * * * * * * * * * //

GRPSI5_table
60
(

60
(
5(-2.856580073e-07 -2.440015379e-07 -1.267893883e-06 -1.040759089e-06 -6.761759077e-06)
5(4.640483094e-06 -8.436729027e-08 -8.374774874e-07 -7.341333394e-07 -4.058544474e-06)
5(1.452393302e-05 7.496946557e-08 -1.879855488e-07 -3.155469461e-07 -5.570422848e-07)
5(1.314814434e-05 5.627685743e-08 1.153162786e-07 7.258122239e-08 9.698157137e-08)
5(-3.035988242e-09 4.368090972e-08 -1.076041348e-08 3.467648712e-07 1.587083796e-07)
5(-1.787154826e-05 5.706331004e-08 3.969648229e-08 1.53584446e-07 1.174467435e-06)
5(-1.453732714e-05 1.006707517e-07 4.771852948e-07 2.684882529e-07 8.436469175e-08)
5(1.981535927e-05 2.022887665e-07 8.113929017e-07 5.995038429e-07 -2.269699613e-07)
5(2.927090497e-05 1.477647391e-06 1.36416092e-06 7.711018598e-07 1.55736837e-06)
5(1.243022137e-05 2.489435933e-06 1.297422258e-06 1.447083217e-06 1.921703959e-06)
5(-1.352388013e-05 -4.630408278e-07 4.06669923e-07 1.537955966e-06 2.663021686e-06)
5(-3.16656281e-05 -1.016684568e-06 5.751072932e-07 2.57081084e-06 3.78001383e-06)
5(-1.45082929e-05 1.434820331e-06 1.985859672e-06 2.889065671e-06 4.171785939e-06)
5(7.954625862e-07 1.614342972e-06 2.669147649e-06 4.041869943e-06 5.055243921e-06)
5(3.326678008e-06 6.076615906e-06 5.641905553e-06 8.558868171e-06 8.718122596e-06)
5(4.082925989e-06 6.253592336e-06 8.147926903e-06 8.728348612e-06 1.238821985e-05)
5(5.479638413e-07 2.027785191e-06 4.790781274e-06 8.893141619e-06 1.510871606e-05)
5(-2.706696551e-07 2.356167003e-06 5.267564867e-06 1.174515256e-05 1.971112244e-05)
5(2.2132963e-06 4.440411241e-06 1.07525316e-05 1.763195669e-05 2.112877753e-05)
5(3.925383944e-06 6.044812198e-06 1.117399666e-05 1.976470502e-05 2.022076719e-05)
5(4.347994869e-06 6.959710644e-06 1.290126143e-05 9.555890252e-06 1.585398418e-05)
5(6.146515772e-06 9.676733771e-06 1.57078623e-05 1.856663377e-05 2.867445018e-05)
5(6.616291668e-06 1.333758622e-05 1.689490764e-05 2.972318765e-05 3.758624726e-05)
5(7.609725816e-06 1.520239782e-05 2.137927201e-05 3.071711056e-05 3.657618668e-05)
5(9.378172752e-06 1.571374567e-05 2.843903857e-05 4.11987919e-05 4.097858349e-05)
5(1.037512379e-05 1.502493873e-05 2.501766587e-05 4.378582281e-05 4.005002463e-05)
5(1.10742664e-05 1.523714579e-05 2.641357806e-05 4.16414399e-05 4.085702787e-05)
5(1.48346306e-05 2.091687905e-05 2.999716086e-05 3.658772997e-05 4.274022579e-05)
5(1.807445117e-05 2.764743575e-05 2.679993561e-05 2.561992963e-05 3.843907925e-05)
5(2.049539807e-05 3.180073805e-05 3.865206062e-05 3.916969378e-05 3.973444226e-05)
5(2.347131417e-05 3.034707456e-05 3.639044977e-05 3.301041611e-05 2.916935626e-06)
5(2.399412184e-05 3.311541462e-05 3.692131487e-05 2.488340495e-05 3.736079969e-05)
5(2.868861713e-05 4.28972377e-05 5.61228773e-05 3.620642297e-05 2.513618196e-05)
5(3.522213037e-05 4.311514049e-05 5.072232876e-05 3.409736631e-05 -1.876856317e-05)
5(3.910968658e-05 5.425914115e-05 7.256983324e-05 4.348269872e-05 2.854081963e-05)
5(4.328844493e-05 4.227959615e-05 2.924221685e-05 1.759285122e-05 2.983775124e-05)
5(4.786091683e-05 4.616474216e-05 -1.080234197e-06 2.282063986e-05 -8.142681424e-05)
5(5.661156481e-05 6.257852175e-05 6.180914248e-05 3.059659294e-05 1.414316197e-05)
5(7.708618502e-05 5.751094259e-05 8.669941077e-05 2.679610567e-05 -0.0001952105821)
5(7.783538822e-05 4.386514034e-05 2.689297638e-05 1.808683762e-05 -0.0003001301437)
5(5.660089035e-05 3.276781294e-05 -1.769562257e-05 -0.0001045339873 7.62090126e-07)
5(5.673220805e-05 1.906724242e-05 -8.079054854e-06 -0.0003349808407 -1.840466455e-06)
5(7.138370075e-05 3.457155151e-05 0.0001301413807 -0.0002335797027 2.193902689e-05)
5(7.562645352e-05 3.729077355e-05 0.0001087996117 1.061618383e-05 1.747954694e-05)
5(3.690223273e-05 2.894858635e-05 -0.00011671288 1.572811679e-05 1.199002405e-05)
5(3.92416723e-06 7.996829481e-06 -0.0003405796485 2.42021703e-05 3.150261634e-05)
5(-3.130467264e-06 -0.0001457685095 -0.0003358982028 3.238832273e-05 4.711941012e-05)
5(-4.439430216e-06 -9.49264832e-05 -7.295409516e-05 4.41873754e-05 6.632276057e-05)
5(-7.752577376e-06 -0.000224404685 2.836643014e-05 6.245493709e-05 9.106572864e-05)
5(-4.704244478e-05 -0.000238549439 5.344870848e-05 8.609941139e-05 0.0001242186502)
5(-0.0002677427837 4.205767092e-05 7.39437633e-05 0.0001170449411 0.000167862633)
5(-0.0003026866968 6.340852077e-05 0.0001000241666 0.0001565998613 0.0002237668597)
5(-5.652507488e-05 8.475511812e-05 0.0001344082161 0.000207482296 0.0002977028589)
5(5.353947387e-05 0.0001122254112 0.0001785908916 0.0002734584049 0.0003910734769)
5(0.0001113528453 0.0001482863291 0.0002350261675 0.0003550221483 0.0005061326758)
5(0.0001999994845 0.0001957169991 0.0003079522715 0.0004561233571 0.0006417461049)
5(0.0002534516456 0.0002979160853 0.0004041323228 0.0005810963308 0.0007945577783)
5(0.0002475417597 0.0004220524933 0.0005880206979 0.0005436255984 0.0009831862767)
5(0.0002525618839 0.000546117881 0.0009172267983 0.00149837622 0.001888953253)
5(0.0002626788982 0.0006211667734 0.001117700378 0.002558382979 0.002687345436)
)


60
(
5(-1.504340846e-07 3.698714844e-07 -1.613225099e-06 -1.114694721e-06 -1.392282534e-05)
5(-1.38653323e-08 5.631513538e-07 -7.316948481e-07 1.55627836e-07 -7.994908179e-06)
5(2.642522716e-07 1.046023528e-06 9.882938818e-07 2.941118679e-06 1.695140395e-06)
5(6.58922388e-07 1.788188246e-06 3.046284292e-06 6.414696681e-06 1.022492171e-05)
5(1.227584322e-06 2.870924367e-06 5.650908013e-06 1.081153762e-05 2.051427789e-05)
5(1.911674904e-06 4.315033821e-06 8.273968426e-06 1.568128828e-05 2.917744344e-05)
5(2.699840255e-06 6.174052272e-06 1.106097863e-05 2.093474836e-05 3.515121022e-05)
5(3.73117645e-06 8.573062699e-06 1.467068673e-05 2.742516133e-05 4.277696765e-05)
5(5.210551458e-06 1.171754517e-05 1.970166305e-05 3.597866378e-05 5.614519895e-05)
5(7.390946433e-06 1.576807384e-05 2.665478759e-05 4.686389205e-05 7.373608909e-05)
5(1.013754922e-05 2.077664249e-05 3.531922043e-05 5.973645822e-05 9.307898925e-05)
5(1.340586898e-05 2.677771523e-05 4.51308889e-05 7.42822339e-05 0.0001145033122)
5(1.74629549e-05 3.38058958e-05 5.599459462e-05 9.046889079e-05 0.0001357643397)
5(2.224192658e-05 4.192742721e-05 6.817130736e-05 0.0001079311952 0.0001579587815)
5(2.779122255e-05 5.124836402e-05 8.210941926e-05 0.0001269906476 0.0001836946469)
5(3.472407402e-05 6.191043954e-05 9.806776312e-05 0.0001482927037 0.0002119596129)
5(4.258596409e-05 7.398697746e-05 0.0001156847248 0.0001711839854 0.0002393796983)
5(5.130114204e-05 8.731957778e-05 0.0001345743233 0.0001952168774 0.0002671408467)
5(6.133341255e-05 0.0001020629543 0.0001548366349 0.0002202438425 0.0002955598727)
5(7.281853372e-05 0.0001183477429 0.0001766016454 0.0002455798903 0.0003234609735)
5(8.575087004e-05 0.0001358173724 0.0001992815987 0.0002705748442 0.0003491010788)
5(9.915916353e-05 0.0001545558114 0.0002229132465 0.000294723966 0.0003732424719)
5(0.0001142631756 0.0001750975065 0.0002476615053 0.00031871894 0.0003964283976)
5(0.0001325829014 0.0001972100148 0.0002729155212 0.0003441441838 0.0004181458984)
5(0.0001515870721 0.0002206670508 0.0003001970516 0.0003709547608 0.0004388287374)
5(0.0001725830356 0.0002455698401 0.0003285431725 0.0003972085222 0.0004559922083)
5(0.0001966502542 0.0002728982941 0.0003564165914 0.0004210054927 0.0004693725824)
5(0.0002236831774 0.00030289427 0.0003862964779 0.0004427529932 0.0004810480795)
5(0.0002533565719 0.0003346419135 0.0004174073525 0.0004642071544 0.0004908318781)
5(0.0002871011787 0.0003692402639 0.0004490286392 0.0004856407467 0.0004967459507)
5(0.0003257436307 0.0004070047138 0.0004811921038 0.0005061757831 0.0004978881183)
5(0.0003674479137 0.0004469113761 0.0005140936071 0.0005235611288 0.0004945883353)
5(0.0004135308565 0.0004896354818 0.000547870217 0.0005372101295 0.0004811643625)
5(0.0004660481944 0.0005353842931 0.0005809270407 0.00054693958 0.000459313699)
5(0.0005238785465 0.0005826051436 0.0006129566416 0.0005512618006 0.0004369638069)
5(0.0005866751236 0.0006290737146 0.0006403229658 0.0005463148785 0.0004142271496)
5(0.0006516333629 0.0006733386923 0.0006569898842 0.0005330336623 0.0003851029095)
5(0.0007182983857 0.0007132693871 0.0006641639156 0.0005114925329 0.0003191847233)
5(0.0007855471551 0.0007479154117 0.0006608352523 0.0004709016444 0.0001884727108)
5(0.0008464040792 0.0007687474493 0.0006383000565 0.0004042474326 2.758644905e-06)
5(0.0008926841621 0.0007738643303 0.0006027870334 0.0002975268878 -0.0001874173555)
5(0.0009254049921 0.0007530034952 0.0005548499645 0.0001392893555 -0.000326858583)
5(0.000939761579 0.0006957170903 0.0004866394612 -5.192065061e-05 -0.0003980315037)
5(0.0009149103964 0.0006260221986 0.0003775055241 -0.0002388161234 -0.0004329695528)
5(0.0008492619949 0.0005425109141 0.0001956595939 -0.0003829054293 -0.0004616788079)
5(0.0007391731421 0.0004281221128 -5.098098188e-05 -0.0004653146222 -0.0004721200099)
5(0.000588615739 0.0002619574115 -0.0003009112968 -0.0004978709569 -0.0004524935128)
5(0.0003985306719 2.57518605e-05 -0.0004937666769 -0.0005021520284 -0.0004038628801)
5(0.0001768790319 -0.0002667646933 -0.0006127368695 -0.0004849319566 -0.0003249206331)
5(-8.570912472e-05 -0.0005539108509 -0.0006628901285 -0.0004385902469 -0.0002256200973)
5(-0.000396560977 -0.0007574864634 -0.0006587274768 -0.0003595612819 -0.000117518338)
5(-0.0007342632835 -0.0008477563564 -0.0006111985402 -0.000260827927 2.571623035e-06)
5(-0.001033835749 -0.0008459869593 -0.0005313298638 -0.0001519774981 0.0001301756308)
5(-0.001217744718 -0.0007877770345 -0.000428288379 -2.061185804e-05 0.0002787279571)
5(-0.001277767082 -0.000701528179 -0.0003116638498 0.0001297191161 0.0004582109212)
5(-0.001229555673 -0.0006066248623 -0.0001853636634 0.0002894793375 0.0006640705048)
5(-0.001104575027 -0.0004963736334 -4.940745822e-05 0.0004706589812 0.0009036242493)
5(-0.0009205088699 -0.0003795418472 8.16794348e-05 0.0006820632295 0.001204514949)
5(-0.0007583731253 -0.0002371976851 0.0002035816734 0.001113898972 0.001737694054)
5(-0.0007034418615 -0.0001504550411 0.0002634556273 0.001432048587 0.002098352272)
)


60
(
5(1.185506609e-07 1.218843917e-06 -1.204254041e-06 5.434262155e-07 -1.798468036e-05)
5(3.561004893e-07 1.787736243e-06 3.765504067e-07 3.392696285e-06 -7.566372695e-06)
5(9.468930805e-07 3.10254673e-06 4.067870461e-06 1.001132539e-05 1.212835593e-05)
5(1.876628819e-06 4.972475826e-06 8.988395445e-06 1.856749796e-05 3.174123001e-05)
5(3.270000599e-06 7.662313229e-06 1.508410118e-05 2.875657822e-05 5.327569496e-05)
5(5.012295678e-06 1.116238672e-05 2.160587108e-05 3.967075214e-05 7.121935059e-05)
5(7.042895662e-06 1.551311657e-05 2.834523172e-05 5.133922085e-05 8.516001919e-05)
5(9.587558314e-06 2.100261018e-05 3.643450204e-05 6.520844611e-05 0.0001027142487)
5(1.315889368e-05 2.788145458e-05 4.721268009e-05 8.265715688e-05 0.0001281719001)
5(1.790526395e-05 3.636324508e-05 6.123849825e-05 0.0001038485192 0.0001604174775)
5(2.392148775e-05 4.650614219e-05 7.796958894e-05 0.0001279559345 0.0001957766962)
5(3.09137669e-05 5.836271212e-05 9.665804633e-05 0.0001542503104 0.0002316293291)
5(3.890165945e-05 7.205780562e-05 0.0001171894205 0.0001826287755 0.0002670702601)
5(4.872471681e-05 8.767735696e-05 0.0001398799305 0.0002131832079 0.0003059211671)
5(6.047173949e-05 0.0001053814391 0.0001651288259 0.0002461620321 0.000347024465)
5(7.33185904e-05 0.0001251070059 0.0001931501338 0.000281726441 0.0003895018516)
5(8.772594192e-05 0.0001470348185 0.000223481449 0.000319387713 0.0004330788238)
5(0.0001047645399 0.0001712106041 0.0002560340607 0.0003584551936 0.0004768834004)
5(0.0001238503569 0.0001973435557 0.0002904545653 0.0003986010125 0.0005202201849)
5(0.0001446647214 0.0002256939427 0.0003264462133 0.000439240004 0.0005619219986)
5(0.0001681879187 0.0002564584647 0.0003640757075 0.000479672261 0.0006049150135)
5(0.0001931474642 0.0002894046102 0.0004036970386 0.0005207446544 0.0006438251894)
5(0.0002216434496 0.0003245905039 0.0004454093399 0.0005619958927 0.0006799737072)
5(0.0002529651644 0.0003623443401 0.0004885215779 0.0006036363481 0.0007163508075)
5(0.0002862954284 0.000402725783 0.0005328573136 0.0006470681201 0.0007513921616)
5(0.0003241576467 0.0004457342793 0.0005787012689 0.0006901805771 0.0007848937536)
5(0.0003659721354 0.0004925314122 0.0006269840179 0.0007323814372 0.0008123343784)
5(0.0004108444137 0.0005424153493 0.0006769969899 0.0007729912311 0.0008406587059)
5(0.000461610202 0.0005955232901 0.0007295254391 0.0008139290523 0.0008692441759)
5(0.0005168504607 0.0006543328281 0.0007847014539 0.0008554838052 0.0008880562336)
5(0.0005772275904 0.0007167332585 0.0008407917958 0.0008958013448 0.0009049824598)
5(0.0006473599375 0.0007825061572 0.0009003930403 0.0009364029414 0.0009157767135)
5(0.0007236123924 0.0008557926941 0.0009622554609 0.0009742187301 0.000920339638)
5(0.0008065417791 0.0009336584385 0.001022818633 0.001007065598 0.000915213721)
5(0.000898531563 0.001013547364 0.001085181323 0.001035385012 0.0009018418969)
5(0.001003531305 0.001096165846 0.001145655822 0.001057096172 0.0008956167357)
5(0.001101392291 0.001180856607 0.001197437582 0.001068789212 0.0008726844032)
5(0.001208315899 0.001264418356 0.001238558862 0.001065112188 0.0008002816253)
5(0.001325133987 0.001337997415 0.001266162149 0.001038292218 0.0006607397137)
5(0.001424488796 0.001399667767 0.001277977423 0.0009791474648 0.0004458327301)
5(0.00152626107 0.001446706865 0.001266897218 0.0008703345617 0.0002082695189)
5(0.00160618682 0.001463847891 0.001231852895 0.0006903327516 1.720730561e-06)
5(0.001654548548 0.001440032479 0.001164470846 0.0004442134942 -0.0001614084366)
5(0.001670429604 0.001375240891 0.001030531538 0.0001732633361 -0.0002966509448)
5(0.001636204412 0.001281163081 0.0008029555805 -7.727052437e-05 -0.0004240864109)
5(0.001537772353 0.001145996922 0.0004801563801 -0.0002799767911 -0.0005411144737)
5(0.001371374162 0.0009234946153 0.0001050285836 -0.0004406233847 -0.000634062231)
5(0.001143327382 0.0005833603734 -0.0002520966639 -0.0005776563185 -0.0006768019987)
5(0.0008497500748 0.0001468934506 -0.0005471704223 -0.0006847179549 -0.0006609392701)
5(0.0004747361865 -0.0003262928071 -0.0007707948021 -0.0007463473528 -0.0005930784253)
5(7.16860075e-06 -0.0007498088682 -0.0009276665923 -0.0007542741667 -0.0004953895181)
5(-0.0005414280775 -0.001058118462 -0.001023940332 -0.0007078101493 -0.0003749424176)
5(-0.001096785295 -0.001249300705 -0.00105339236 -0.0006129364505 -0.0002095064097)
5(-0.001569111509 -0.001354677042 -0.001015060603 -0.000473416646 -1.412678394e-05)
5(-0.001885216574 -0.001388173643 -0.0009222731639 -0.000295882482 0.0002138160784)
5(-0.002027073661 -0.001346669073 -0.0007849302014 -8.559701944e-05 0.0004858183838)
5(-0.002013446151 -0.001246346293 -0.0006165749549 0.0001639158167 0.0007969263731)
5(-0.001864587268 -0.001096008957 -0.0004148157601 0.0004469797449 0.001173415577)
5(-0.001712177472 -0.0008759060143 -9.247711005e-05 0.001160482273 0.001962664208)
5(-0.001657882805 -0.0007441268183 0.0001181451976 0.001726740641 0.002545031934)
)


60
(
5(5.156945777e-07 2.555230789e-06 -1.173388094e-07 3.504102376e-06 -1.849874179e-05)
5(9.630577689e-07 3.677281088e-06 2.673173491e-06 8.726679521e-06 -2.514369424e-06)
5(2.031915412e-06 6.148268263e-06 9.194734409e-06 2.044377354e-05 2.831763882e-05)
5(3.712248575e-06 9.461924492e-06 1.76401781e-05 3.47582507e-05 5.956812064e-05)
5(6.22562573e-06 1.41246486e-05 2.775680405e-05 5.137694966e-05 9.268905985e-05)
5(9.289821396e-06 2.013315215e-05 3.858480302e-05 6.908007379e-05 0.0001203913469)
5(1.28137289e-05 2.73966394e-05 4.984240351e-05 8.760056387e-05 0.0001425782985)
5(1.7243976e-05 3.626146225e-05 6.301191073e-05 0.0001090481799 0.0001697519296)
5(2.327930237e-05 4.722726391e-05 7.99550526e-05 0.0001352854838 0.0002072808309)
5(3.105484353e-05 6.045132099e-05 0.0001011346077 0.0001660346471 0.0002525145454)
5(4.034497447e-05 7.595169858e-05 0.000125836828 0.0002002478437 0.0003002742294)
5(5.130863838e-05 9.380186608e-05 0.000153288308 0.0002374855175 0.0003492086975)
5(6.381398378e-05 0.0001139819567 0.0001828417419 0.0002770149185 0.0003975493789)
5(7.85781344e-05 0.0001366632298 0.0002150013002 0.0003187321719 0.0004475470254)
5(9.575998892e-05 0.0001622582447 0.0002506472936 0.000363655149 0.0005010725633)
5(0.0001152788758 0.000190709159 0.0002894151973 0.0004114336359 0.000556612425)
5(0.0001368808973 0.0002217675903 0.0003308310631 0.0004609654075 0.0006127720523)
5(0.0001617536721 0.000255567826 0.0003748697041 0.0005125273819 0.0006689471824)
5(0.0001882119944 0.0002919751645 0.0004208961604 0.0005654061159 0.0007247705668)
5(0.0002174964854 0.0003311646371 0.0004693840564 0.0006188820673 0.0007784808821)
5(0.000253227963 0.0003736231775 0.0005201387778 0.0006719800851 0.0008345320454)
5(0.0002895831834 0.0004186147788 0.0005725382083 0.000725710053 0.0008857053394)
5(0.0003242633069 0.0004661113553 0.0006270975621 0.0007812938479 0.000934464572)
5(0.000367700794 0.0005170180695 0.0006848438866 0.0008374620545 0.0009862044369)
5(0.0004164766467 0.0005717058596 0.0007451781005 0.0008952401018 0.001035123204)
5(0.0004664988339 0.0006296057092 0.0008069623331 0.0009545322158 0.001082404318)
5(0.0005213872057 0.0006912561012 0.0008713479363 0.001013395613 0.00112845702)
5(0.0005833302807 0.00075815373 0.0009392126557 0.001071629377 0.00117030184)
5(0.0006521907011 0.0008301036148 0.001010706826 0.001131915052 0.001214300061)
5(0.0007245001682 0.0009075660902 0.001085241591 0.001193769793 0.001258137375)
5(0.0008058133818 0.0009913109876 0.001162860591 0.001256016798 0.001295841817)
5(0.0008971316215 0.001081182237 0.001247415553 0.001319464046 0.001329098524)
5(0.0009939799693 0.001178182062 0.001335922415 0.001382474086 0.001354198137)
5(0.001102692806 0.001282570697 0.001424456432 0.001444444434 0.001376077789)
5(0.001221621393 0.001393044623 0.001515658549 0.001504756594 0.001389353363)
5(0.001347104388 0.001507917786 0.001608141222 0.001559385555 0.001401820558)
5(0.001487244351 0.001627373494 0.001700802459 0.001604383731 0.001408347158)
5(0.001630542001 0.001749087791 0.001787748767 0.001635896038 0.001362935036)
5(0.001775868639 0.001867743856 0.00186089338 0.001646533645 0.001239219551)
5(0.001931672905 0.001980730313 0.00191553692 0.001623459074 0.001036044498)
5(0.002068616753 0.002078565739 0.001948263681 0.00154367909 0.0007998706171)
5(0.002194163341 0.00214697551 0.001956263204 0.001383675324 0.0005700764702)
5(0.002301545433 0.002177224762 0.001925778641 0.001141432615 0.0003642842211)
5(0.002370058412 0.002166141536 0.001820536597 0.000850853331 0.0001760825551)
5(0.002384918746 0.002107944099 0.001600428093 0.0005544149325 -3.664934917e-05)
5(0.002331387621 0.001989542692 0.001261274074 0.000274662693 -0.0002698844412)
5(0.002209449795 0.001785587812 0.0008366495339 1.212789918e-05 -0.0004820972643)
5(0.002017848357 0.001446631261 0.0003938516841 -0.0002476777934 -0.0006541496867)
5(0.001743509315 0.0009531391329 -2.157123071e-05 -0.0005039737888 -0.0007612699152)
5(0.001358987229 0.0003710444833 -0.0004147158317 -0.0007326139405 -0.0007975325952)
5(0.0008641994784 -0.0002005757313 -0.0007751669427 -0.0008999268153 -0.0007935425276)
5(0.0002453208924 -0.0007088152318 -0.001078496034 -0.0009949414243 -0.000725040629)
5(-0.0004715970741 -0.001145622049 -0.001307077747 -0.001010352244 -0.0005890084129)
5(-0.00119699927 -0.001506593993 -0.001439839216 -0.0009370869182 -0.0003981171778)
5(-0.001820654781 -0.001771886555 -0.00147483715 -0.0007848079071 -0.000139349535)
5(-0.002301366612 -0.001919133457 -0.001411951987 -0.0005700361907 0.0001718355549)
5(-0.002612453582 -0.001940850926 -0.00125411237 -0.0002935174663 0.0005401209899)
5(-0.002693628975 -0.001835063003 -0.001001704617 6.879062807e-05 0.001011033539)
5(-0.00266639108 -0.001480837405 -0.0002956924092 0.001278116884 0.002460005316)
5(-0.00266074182 -0.001211631519 0.0002573868554 0.002281688108 0.003641430454)
)


60
(
5(1.117337083e-06 4.39041829e-06 1.812238458e-06 7.817271964e-06 -1.508479213e-05)
5(1.853981893e-06 6.210548058e-06 6.111945442e-06 1.579717331e-05 6.314986351e-06)
5(3.553878704e-06 1.008347344e-05 1.594714578e-05 3.325378527e-05 4.801659909e-05)
5(6.088835213e-06 1.504891218e-05 2.833350295e-05 5.376518403e-05 9.117860044e-05)
5(9.876266507e-06 2.192975634e-05 4.276467693e-05 7.677238041e-05 0.0001353872467)
5(1.450264197e-05 3.061917223e-05 5.800082263e-05 0.0001009369414 0.0001721126359)
5(1.977533802e-05 4.095450517e-05 7.402121482e-05 0.0001265058064 0.0002026492583)
5(2.634529887e-05 5.342420614e-05 9.250180951e-05 0.0001555836295 0.0002390973461)
5(3.488405691e-05 6.846826831e-05 0.0001153951863 0.000189723591 0.0002865094121)
5(4.573849729e-05 8.638071611e-05 0.0001435500603 0.0002291564107 0.0003433777396)
5(5.874044422e-05 0.0001071371103 0.0001758633663 0.0002729484308 0.0004027721595)
5(7.350771681e-05 0.000130682734 0.0002110123292 0.0003195226538 0.0004611823549)
5(9.062308656e-05 0.0001572224496 0.0002486839621 0.0003684307912 0.0005195504698)
5(0.0001101664527 0.0001867913806 0.0002893358357 0.0004203331746 0.0005800095818)
5(0.0001322674344 0.0002194378015 0.0003336880025 0.0004754894154 0.0006441464577)
5(0.0001582372754 0.000255252392 0.0003818658435 0.0005328110857 0.0007109076099)
5(0.0001864809144 0.0002944382962 0.0004331787464 0.0005919217268 0.0007761651733)
5(0.0002175529974 0.0003369185048 0.0004868284461 0.0006543338335 0.0008418873735)
5(0.0002524335379 0.0003824354381 0.0005431897577 0.0007184193592 0.0009091368373)
5(0.0002902392314 0.0004312332953 0.0006026965018 0.0007824422304 0.0009751373213)
5(0.0003317545711 0.000483359413 0.0006642434165 0.0008470820879 0.001040104709)
5(0.0003759826787 0.0005385546118 0.0007275398216 0.0009120481678 0.001101292571)
5(0.0004249585989 0.0005973156068 0.000794016396 0.0009784201845 0.001167738886)
5(0.0004799117299 0.0006595936416 0.0008640052636 0.001047986595 0.001230054007)
5(0.0005352135921 0.0007250702972 0.0009365565157 0.001119916469 0.001289629967)
5(0.0005971261339 0.0007958425459 0.001011834769 0.001192654483 0.001355499347)
5(0.0006678020107 0.000871209103 0.001090783424 0.001266497972 0.001414980053)
5(0.0007433307323 0.0009507158379 0.001173660226 0.001341794715 0.001475557194)
5(0.0008210009717 0.001037675984 0.00126089797 0.001418782682 0.001536895994)
5(0.0009085815962 0.001132638384 0.001353198961 0.001499025084 0.001595704086)
5(0.001009755924 0.001234326992 0.001450985442 0.001582627546 0.001660079592)
5(0.001114038951 0.001342858382 0.001555456173 0.001668846565 0.001714640466)
5(0.001227825091 0.001459207457 0.00166685868 0.001757082959 0.001765016903)
5(0.001356142765 0.001585618717 0.00178284421 0.001846570161 0.001816464211)
5(0.001498007281 0.001722066209 0.001904086875 0.001936286419 0.001860733398)
5(0.001652546362 0.001865103954 0.002029719513 0.002024403385 0.001908748265)
5(0.001812456941 0.002015962326 0.002156736846 0.002109528994 0.001947245203)
5(0.001983761585 0.0021754863 0.002283042789 0.002185786014 0.001946567123)
5(0.002165298097 0.002335784129 0.002402059959 0.002244613851 0.00186704535)
5(0.002345689379 0.002491213735 0.002509665888 0.002272724558 0.001708866882)
5(0.002525425246 0.002635983225 0.002601769152 0.002245452978 0.001504922911)
5(0.002696400415 0.002761048082 0.002669496567 0.002138392664 0.001291917706)
5(0.002837131249 0.00285781827 0.002699998526 0.001943959629 0.001095331298)
5(0.002946548136 0.002914183302 0.002658964282 0.001686869925 0.0008815054066)
5(0.003018276643 0.002924212717 0.002502523852 0.00140377479 0.0006295763316)
5(0.003017980993 0.002874438721 0.002210335344 0.001109575008 0.0003437072022)
5(0.002955143267 0.002725068676 0.001808795996 0.0008006476461 3.868389117e-05)
5(0.002829211393 0.00243069271 0.001354834282 0.0004668803922 -0.0002488218105)
5(0.002623114725 0.00197437964 0.0008862696572 9.692725892e-05 -0.0004937041999)
5(0.002326790159 0.001410121517 0.0004032087664 -0.0002828137842 -0.0006918032839)
5(0.001899431646 0.0008180008572 -9.790096328e-05 -0.0006272771687 -0.0008330502212)
5(0.001328455902 0.0002292022114 -0.0005928349293 -0.0009091410897 -0.0008770344381)
5(0.0006464079945 -0.0003548716168 -0.001045760917 -0.001106991441 -0.0008706518)
5(-9.321076176e-05 -0.0009260423656 -0.001425283534 -0.001202044896 -0.0007640203973)
5(-0.0008956527082 -0.001468136853 -0.001695998915 -0.001183675142 -0.0005140777798)
5(-0.001667682223 -0.001933616319 -0.001827061311 -0.001044501753 -0.0002054401399)
5(-0.002322357787 -0.002255171387 -0.001790943982 -0.0007702224405 0.0001992891253)
5(-0.002886690798 -0.002404600238 -0.001544928335 -0.0003272802522 0.0007778283397)
5(-0.003346036787 -0.002032620879 -0.0005190388171 0.001127066579 0.002748049006)
5(-0.003549995733 -0.001629346234 0.0003252828923 0.002310835032 0.004376383095)
)


60
(
5(1.959198766e-06 6.691625624e-06 4.569980901e-06 1.308307021e-05 -8.906322728e-06)
5(2.970204209e-06 9.330225926e-06 1.061666364e-05 2.407617355e-05 1.753020128e-05)
5(5.43619527e-06 1.47675719e-05 2.413350614e-05 4.764274273e-05 7.152182204e-05)
5(9.091438949e-06 2.149529386e-05 4.059686224e-05 7.449169449e-05 0.0001261804097)
5(1.425915546e-05 3.071899107e-05 5.934517845e-05 0.0001039302317 0.0001788244653)
5(2.061392093e-05 4.223563315e-05 7.898256976e-05 0.000134467964 0.0002244654039)
5(2.771829197e-05 5.580428898e-05 9.967083255e-05 0.000166395518 0.000262424639)
5(3.649158544e-05 7.188665628e-05 0.0001233909368 0.0002023622581 0.0003063331547)
5(4.772540683e-05 9.103731085e-05 0.0001522720074 0.000244337674 0.0003644823319)
5(6.173987803e-05 0.0001135164499 0.0001868801239 0.0002919809159 0.0004308867444)
5(7.795393279e-05 0.0001392525063 0.0002261027199 0.0003438419847 0.0004995956716)
5(9.67411732e-05 0.0001682131776 0.0002685040741 0.000398799219 0.0005669478373)
5(0.0001184007122 0.0002005474007 0.0003134965409 0.0004562968451 0.0006340717711)
5(0.0001428233918 0.0002362494103 0.0003617224862 0.0005165893709 0.0007042156505)
5(0.000170198017 0.0002754428104 0.000413984054 0.0005799853888 0.0007767178307)
5(0.000200762606 0.0003183426334 0.0004702084571 0.0006457926717 0.0008515861585)
5(0.0002354681826 0.0003646581103 0.0005296662342 0.0007143142819 0.0009258174508)
5(0.0002732172919 0.0004145138275 0.0005920519233 0.0007852075165 0.001002608272)
5(0.0003146998716 0.000468005013 0.0006572603369 0.0008575931486 0.00107685707)
5(0.0003606625202 0.0005248953719 0.0007252170124 0.0009312779738 0.001150038828)
5(0.0004079290167 0.0005853944002 0.0007959220331 0.00100534497 0.001228027001)
5(0.0004606755104 0.0006493496551 0.0008691243974 0.001080243276 0.001301524682)
5(0.0005197605431 0.0007167994445 0.0009454929054 0.001157559431 0.001374756531)
5(0.0005808050181 0.0007884867578 0.001025604271 0.001238111744 0.001451575404)
5(0.0006464836373 0.0008647175595 0.001109031477 0.00132152963 0.001523963153)
5(0.0007191669385 0.0009457967987 0.00119589811 0.001406844711 0.001597539375)
5(0.0007981641379 0.001032576892 0.001287159277 0.001493476011 0.001674046834)
5(0.0008840304774 0.001125723347 0.001383541463 0.001582850345 0.001752897217)
5(0.0009759794832 0.001225584041 0.001484860346 0.001676309262 0.001831156503)
5(0.001078760355 0.001332182502 0.001592166959 0.001773407656 0.001909706106)
5(0.001189295016 0.001447252028 0.00170766202 0.001875461677 0.001993363039)
5(0.001306480301 0.001573101772 0.001830480262 0.001983061565 0.002072872574)
5(0.001437465939 0.001708105355 0.001960179332 0.002095173281 0.002144666654)
5(0.001580145552 0.001851730813 0.002097809362 0.002210970818 0.002229180852)
5(0.001741275799 0.002006853367 0.002244456832 0.002329875072 0.00231395164)
5(0.001908111992 0.002174318784 0.002400490272 0.002451992132 0.002388740186)
5(0.002089187235 0.002353804244 0.002561575758 0.002575442053 0.002467627952)
5(0.002283429764 0.002542723164 0.002725826636 0.002695119965 0.002516656523)
5(0.002483471832 0.002735700362 0.002890585932 0.002802595883 0.002494388675)
5(0.00269170258 0.002930524049 0.003047695019 0.002887376677 0.002371017536)
5(0.002895867429 0.003120357435 0.003195708398 0.002924699638 0.002235114842)
5(0.00308916949 0.003294000508 0.00332956658 0.002885077028 0.002087099099)
5(0.003257254673 0.003443916585 0.003433855463 0.002762643446 0.001927476542)
5(0.003395689569 0.003558109025 0.003470078436 0.002578068951 0.001751332019)
5(0.003498698137 0.003626532583 0.003392365487 0.002357015604 0.001509167518)
5(0.003528685485 0.003636489233 0.003180186431 0.002109681695 0.001224842331)
5(0.003548363797 0.003552739486 0.00285394252 0.001823092524 0.0008702687079)
5(0.003514887911 0.00333170264 0.002470309101 0.001481418596 0.000506809508)
5(0.003349780601 0.002961829634 0.002046360208 0.001081153638 0.0001649950376)
5(0.003166597748 0.002496257927 0.00157331186 0.0006273358446 -0.0001529663761)
5(0.002866779337 0.001986976785 0.001051593763 0.0001530522781 -0.0004554151351)
5(0.002401525954 0.00148279891 0.0004795800401 -0.0003024344979 -0.0007055989826)
5(0.001804051438 0.0009457825705 -0.0001072540526 -0.0007138083135 -0.0008552635896)
5(0.00114502597 0.0003273133625 -0.0006838690702 -0.001029281843 -0.0008857351143)
5(0.0003876973033 -0.0003298742015 -0.001217784678 -0.001210126459 -0.0007557773713)