/*--------------------------------*- C++ -*----------------------------------*\
| =========                 |                                                 |
| \\      /  F ield         | OpenFOAM: The Open Source CFD Toolbox           |
|  \\    /   O peration     | Version:  2.3.1                                 |
|   \\  /    A nd           | Web:      www.OpenFOAM.org                      |
|    \\/     M anipulation  |                                                 |
\*---------------------------------------------------------------------------*/
FoamFile
{
    version     2.0;
    format      ascii;
    class       dictionary;
    location    "constant";
    object      GRPSI65;
}
// * * * * * * * * * * * * * * * * * * * * * * * * * * * * * * * * * * * * * //

GRPSI65_table
60
(

60
(
5(-3.528089985e-11 -8.085070264e-12 1.204957227e-12 -7.363367214e-12 1.974110439e-12)
5(-1.192683113e-11 -2.258445931e-12 1.684321088e-12 -1.931514558e-12 1.782679748e-13)
5(2.040286316e-12 9.622232214e-13 -5.257494571e-13 -9.622232214e-13 -9.887874022e-13)
5(2.46521907e-12 8.002283511e-13 -1.232609535e-12 -5.552125617e-13 4.900315787e-13)
5(2.087468524e-12 1.091957755e-12 -6.371542465e-13 -9.290483128e-13 -4.873411463e-13)
5(2.773643898e-13 -3.829657849e-13 -3.077720547e-13 -8.890335531e-14 -6.055585608e-13)
5(-2.342856775e-12 -1.292021529e-12 -3.798317311e-13 5.21935238e-14 6.228642263e-13)
5(-2.393557845e-14 2.368020849e-13 -2.618797183e-13 -7.651039501e-13 -5.089087153e-13)
5(-7.831834194e-13 -4.595051354e-13 -2.91295615e-13 -3.664103799e-13 -2.860563814e-13)
5(-3.173427172e-14 -1.229104226e-14 -3.996616671e-13 -4.711292407e-13 -1.3578296e-13)
5(-3.089799569e-13 -1.661187684e-13 -3.522551955e-13 -4.019471464e-13 -1.226414817e-13)
5(-7.25694233e-13 -4.25166453e-13 -2.801644612e-13 -2.947684208e-13 -1.538465922e-13)
5(-2.402041709e-13 -1.992522032e-13 -2.284880835e-13 -2.280453351e-13 -1.574147388e-13)
5(-4.624296207e-13 -3.010765638e-13 -2.437719058e-13 -2.187806936e-13 -8.974108244e-14)
5(-2.663098025e-13 -1.898836905e-13 -1.671259794e-13 -1.644808903e-13 -1.081674004e-13)
5(-2.2184051e-13 -1.935765464e-13 -1.925624135e-13 -1.594280521e-13 -9.904386008e-14)
5(-2.121510892e-13 -1.666763215e-13 -1.615506608e-13 -1.353387797e-13 -6.877779157e-14)
5(-1.614138357e-13 -1.410358013e-13 -1.231308352e-13 -9.073489875e-14 -5.586589387e-14)
5(-1.220945467e-13 -9.738299994e-14 -8.668962742e-14 -6.756207361e-14 -3.441634558e-14)
5(-1.280329359e-13 -8.662046066e-14 -6.125213547e-14 -5.651758406e-14 -3.573888262e-14)
5(-1.028121566e-13 -7.02963731e-14 -4.465499581e-14 -3.980636928e-14 -2.808333655e-14)
5(-8.418522216e-14 -5.262019354e-14 -3.671130023e-14 -3.346389944e-14 -1.456036333e-14)
5(-7.267377614e-14 -4.68209137e-14 -2.721448172e-14 -2.292603661e-14 -1.239116103e-14)
5(-4.544176978e-14 -3.423915243e-14 -2.318928573e-14 -1.637783366e-14 -9.413630928e-15)
5(-3.453328477e-14 -2.860862602e-14 -2.018150658e-14 -1.282153375e-14 -7.964021595e-15)
5(-1.913995331e-14 -2.145686883e-14 -1.95214408e-14 -1.172857429e-14 -8.188051319e-15)
5(-1.596725698e-14 -1.821623765e-14 -1.576857899e-14 -9.789130259e-15 -8.50632087e-15)
5(-1.761882325e-14 -1.498574022e-14 -1.208315247e-14 -1.086761334e-14 -9.921578922e-15)
5(-1.746562887e-14 -1.721400463e-14 -1.481485019e-14 -1.214525471e-14 -1.162318943e-14)
5(-1.470462937e-14 -1.961266246e-14 -2.080206697e-14 -1.548318767e-14 -1.388293695e-14)
5(-1.65133834e-14 -2.439393808e-14 -2.810019778e-14 -2.228400574e-14 -2.064210867e-14)
5(-2.299261628e-14 -3.466843396e-14 -4.034672591e-14 -3.082592153e-14 -2.730264288e-14)
5(-2.746488238e-14 -4.630849685e-14 -5.831026791e-14 -4.186912136e-14 -3.22698182e-14)
5(-4.001588219e-14 -6.499108793e-14 -8.665411214e-14 -6.548335162e-14 -4.762477263e-14)
5(-7.604730713e-14 -1.008300075e-13 -1.175181353e-13 -8.380547555e-14 -5.818738837e-14)
5(-9.945247887e-14 -1.304000009e-13 -1.682166064e-13 -1.222043454e-13 -6.932300108e-14)
5(-2.111555703e-13 -2.228131345e-13 -1.980681111e-13 -1.10975493e-13 -6.028546244e-14)
5(-2.754869533e-13 -2.975220305e-13 -2.473811914e-13 -1.23057387e-13 -7.090949879e-14)
5(-4.128247695e-13 -3.721157786e-13 -2.676279419e-13 -1.24504013e-13 -4.515892973e-14)
5(-5.672004957e-13 -4.491970425e-13 -2.672539332e-13 -1.202580893e-13 -3.720190142e-14)
5(-6.691265818e-13 -4.899264569e-13 -2.163196886e-13 -7.016888711e-14 -1.842472899e-14)
5(-6.345112276e-13 -4.422945121e-13 -1.594155791e-13 -3.894481313e-14 -9.136264723e-15)
5(-5.736447901e-13 -3.620316942e-13 -9.030066616e-14 -1.5091367e-14 1.809695368e-45)
5(-4.199202319e-13 -2.47248681e-13 -5.056794011e-14 -1.296433745e-14 6.30075194e-16)
5(-2.677253775e-13 -1.492699304e-13 -1.889521054e-14 -3.456356298e-15 6.322517247e-17)
5(-1.193883133e-13 -6.600526413e-14 -6.568091066e-15 -2.569835639e-16 1.860535466e-43)
5(-4.309865488e-14 -2.282053332e-14 -1.226906985e-15 -6.515920564e-17 -2.189161887e-16)
5(-1.910924207e-14 -9.556556735e-15 -3.609784315e-17 -3.416214291e-17 3.245946114e-42)
5(-2.384889049e-15 -1.188960316e-15 -5.045439234e-18 -8.52964816e-18 1.308792362e-41)
5(-2.831871523e-16 -1.417067311e-16 -1.131548931e-19 2.722066741e-41 4.732778439e-41)
5(-3.378715623e-17 -1.689357812e-17 1.410259573e-41 9.556267661e-41 1.654741657e-40)
5(-3.765000588e-18 -1.882500294e-18 4.870947751e-41 3.264665699e-40 5.646710653e-40)
5(-1.178854027e-21 -5.894270134e-22 1.62114395e-40 1.062682072e-39 1.832520947e-39)
5(1.20901005e-41 5.80175589e-41 5.118938781e-40 3.355117236e-39 5.790391734e-39)
5(3.907841281e-41 1.853689653e-40 1.588694126e-39 1.013241121e-38 1.741909368e-38)
5(-3.031914461e-43 5.114032792e-40 4.657390667e-39 2.932704392e-38 5.036241625e-38)
5(-1.824175966e-40 1.438288992e-39 1.316983126e-38 7.882017814e-38 1.343596893e-37)
5(2.251854369e-39 4.596552341e-39 3.446163427e-38 2.018891403e-37 3.417962623e-37)
5(6.96950817e-39 2.300968989e-38 5.377974554e-38 4.715427392e-37 8.745758589e-37)
5(1.615174758e-38 3.350227972e-37 6.222705709e-37 2.411415601e-36 4.232183908e-36)
)


60
(
5(-1.299498025e-10 -4.801889256e-11 -8.010954938e-12 -2.929120042e-11 -8.648473602e-12)
5(-5.503495921e-11 -3.046808075e-11 -1.327881437e-11 -1.505635353e-11 -9.456280597e-12)
5(-2.85275066e-11 -2.369032996e-11 -1.565086221e-11 -1.113398188e-11 -9.819392652e-12)
5(-2.406962193e-11 -2.310426437e-11 -1.702866942e-11 -1.095709688e-11 -9.995761731e-12)
5(-3.441898644e-11 -2.79315021e-11 -1.82933914e-11 -1.261152597e-11 -1.00802869e-11)
5(-4.538956657e-11 -3.293101117e-11 -1.914151203e-11 -1.400535073e-11 -1.020013316e-11)
5(-5.225336029e-11 -3.594816397e-11 -1.946393837e-11 -1.453889417e-11 -9.792879255e-12)
5(-5.414361351e-11 -3.746133503e-11 -1.964349757e-11 -1.392779723e-11 -9.347655851e-12)
5(-5.349708324e-11 -3.788517478e-11 -1.981072185e-11 -1.315282349e-11 -8.957469584e-12)
5(-5.032506728e-11 -3.634226384e-11 -1.945163996e-11 -1.247336142e-11 -8.402903311e-12)
5(-5.419498245e-11 -3.782113975e-11 -1.871947576e-11 -1.190986333e-11 -7.82807218e-12)
5(-5.218722655e-11 -3.65622423e-11 -1.807227976e-11 -1.1220404e-11 -7.23350652e-12)
5(-5.220652682e-11 -3.606607098e-11 -1.713207763e-11 -1.045076362e-11 -6.562987126e-12)
5(-5.111379394e-11 -3.507181794e-11 -1.618827536e-11 -9.587116699e-12 -5.827524599e-12)
5(-4.946209047e-11 -3.374940732e-11 -1.513135831e-11 -8.677441954e-12 -5.128891445e-12)
5(-4.666764323e-11 -3.1700195e-11 -1.385095731e-11 -7.708215484e-12 -4.447263136e-12)
5(-4.502947342e-11 -3.019866245e-11 -1.251754078e-11 -6.721380513e-12 -3.775530932e-12)
5(-4.25886915e-11 -2.822078167e-11 -1.113116075e-11 -5.785251441e-12 -3.161053234e-12)
5(-3.916004e-11 -2.581983782e-11 -9.841752868e-12 -4.905056323e-12 -2.606242542e-12)
5(-3.5913691e-11 -2.345874651e-11 -8.543550977e-12 -4.09721271e-12 -2.111125491e-12)
5(-3.237284103e-11 -2.094220126e-11 -7.259961888e-12 -3.339983724e-12 -1.67160517e-12)
5(-2.907765602e-11 -1.856050408e-11 -6.045528179e-12 -2.66454242e-12 -1.28138062e-12)
5(-2.579021341e-11 -1.625506953e-11 -4.964357364e-12 -2.087820566e-12 -9.668520575e-13)
5(-2.164430467e-11 -1.354432008e-11 -3.952200071e-12 -1.587820671e-12 -7.155766855e-13)
5(-1.823537787e-11 -1.129202409e-11 -3.103342888e-12 -1.189605547e-12 -5.211956299e-13)
5(-1.491910421e-11 -9.147562062e-12 -2.364561816e-12 -8.635114449e-13 -3.73919173e-13)
5(-1.193364465e-11 -7.245235516e-12 -1.761471199e-12 -6.170268882e-13 -2.6793776e-13)
5(-9.510913141e-12 -5.688384779e-12 -1.271228035e-12 -4.377956407e-13 -1.989916275e-13)
5(-7.339412819e-12 -4.332389021e-12 -8.950250409e-13 -3.122608016e-13 -1.598367452e-13)
5(-5.483253134e-12 -3.206155692e-12 -6.247263814e-13 -2.326472841e-13 -1.449000563e-13)
5(-3.98219019e-12 -2.311614991e-12 -4.34648359e-13 -1.911154855e-13 -1.539740453e-13)
5(-2.817377799e-12 -1.629759064e-12 -3.123792067e-13 -1.842560329e-13 -1.858939809e-13)
5(-1.925601215e-12 -1.122283613e-12 -2.476658134e-13 -2.093671062e-13 -2.423685962e-13)
5(-1.23641881e-12 -7.468376613e-13 -2.3363665e-13 -2.718745047e-13 -3.337322217e-13)
5(-7.587293324e-13 -5.039512663e-13 -2.721313297e-13 -3.769472162e-13 -4.588049731e-13)
5(-4.257323067e-13 -3.618435889e-13 -3.676742211e-13 -5.29488609e-13 -6.215836469e-13)
5(-2.829896049e-13 -3.480256747e-13 -5.273152671e-13 -7.281781102e-13 -8.147874306e-13)
5(-2.83878058e-13 -4.435228659e-13 -7.543434188e-13 -9.594906294e-13 -1.013462095e-12)
5(-4.589355048e-13 -6.590450473e-13 -1.02883483e-12 -1.195857813e-12 -1.193200555e-12)
5(-7.883450984e-13 -9.787779525e-13 -1.31865673e-12 -1.39136868e-12 -1.314634707e-12)
5(-1.231664589e-12 -1.347595657e-12 -1.548721796e-12 -1.479018778e-12 -1.32412069e-12)
5(-1.669018822e-12 -1.667807686e-12 -1.657704945e-12 -1.412493842e-12 -1.176174345e-12)
5(-2.001636045e-12 -1.846219788e-12 -1.586726337e-12 -1.184465685e-12 -8.862822273e-13)
5(-2.099517437e-12 -1.800711873e-12 -1.330758928e-12 -8.57728176e-13 -5.558448034e-13)
5(-1.892526421e-12 -1.528402657e-12 -9.656928468e-13 -5.237783548e-13 -2.804499097e-13)
5(-1.45938118e-12 -1.114164457e-12 -5.917236337e-13 -2.630532423e-13 -1.116069517e-13)
5(-9.484465244e-13 -6.853852862e-13 -2.9791553e-13 -1.038252208e-13 -3.414342943e-14)
5(-5.024049797e-13 -3.435362679e-13 -1.197036463e-13 -3.120378352e-14 -7.667830523e-15)
5(-2.156402558e-13 -1.386367592e-13 -3.705065776e-14 -6.840703268e-15 -1.213353593e-15)
5(-6.743550664e-14 -4.090654942e-14 -8.211331388e-15 -1.085101503e-15 -1.251324304e-16)
5(-1.571801494e-14 -9.007369586e-15 -1.253010287e-15 -1.092651635e-16 -9.233978744e-18)
5(-2.155222128e-15 -1.193101416e-15 -1.225676608e-16 -7.321193001e-18 -4.877692228e-19)
5(-2.186823392e-16 -1.165168575e-16 -7.512273447e-18 -3.466678221e-19 -2.016455903e-20)
5(-9.562672945e-18 -5.011292863e-18 -2.388841939e-19 -9.311939922e-21 -7.682730486e-22)
5(-2.66825045e-19 -1.109593841e-19 3.422025473e-20 -1.716105129e-22 -2.387745359e-20)
5(-6.849593519e-18 3.452137806e-22 6.858142725e-18 -1.127521268e-21 -6.868256545e-18)
5(-6.581208908e-16 -1.185815084e-19 1.243493215e-15 1.185791587e-19 -1.828865543e-15)
5(3.245776352e-14 -7.770308245e-19 1.884220406e-13 7.77030822e-19 -4.093018448e-13)
5(-1.128856311e-12 -1.681384308e-15 2.732482025e-13 1.681384308e-15 5.823599064e-13)
5(3.442260992e-37 -5.62906895e-38 2.749970825e-36 1.114087748e-35 1.632500583e-35)
)


60
(
5(-3.716749738e-10 -1.660766249e-10 -4.101657343e-11 -7.758055773e-11 -3.360624453e-11)
5(-2.437146041e-10 -1.508114624e-10 -6.493508564e-11 -5.301321403e-11 -3.406457747e-11)
5(-1.851482462e-10 -1.42412844e-10 -7.900328742e-11 -4.657963498e-11 -3.483013697e-11)
5(-1.919034465e-10 -1.527311788e-10 -8.741914226e-11 -4.859486967e-11 -3.591036579e-11)
5(-2.325684008e-10 -1.754395219e-10 -9.475528558e-11 -5.423802979e-11 -3.727613148e-11)
5(-2.914571023e-10 -2.069091159e-10 -1.01548164e-10 -5.941165311e-11 -3.808810775e-11)
5(-3.309207358e-10 -2.295030394e-10 -1.064137106e-10 -6.125154725e-11 -3.776101618e-11)
5(-3.503391599e-10 -2.418538302e-10 -1.087357099e-10 -6.048587014e-11 -3.686882097e-11)
5(-3.513503654e-10 -2.443489207e-10 -1.09348702e-10 -5.837228876e-11 -3.539464957e-11)
5(-3.607962688e-10 -2.496538649e-10 -1.089215276e-10 -5.657179809e-11 -3.381200206e-11)
5(-3.765199917e-10 -2.573103355e-10 -1.073391145e-10 -5.418236712e-11 -3.178718442e-11)
5(-3.856997304e-10 -2.609528544e-10 -1.049646442e-10 -5.162720613e-11 -2.953110219e-11)
5(-3.840998464e-10 -2.576086497e-10 -1.005077104e-10 -4.846520455e-11 -2.703244143e-11)
5(-3.853176179e-10 -2.551618276e-10 -9.510260442e-11 -4.477957032e-11 -2.435996919e-11)
5(-3.767053095e-10 -2.478136879e-10 -8.923363448e-11 -4.062801713e-11 -2.171083165e-11)
5(-3.741967262e-10 -2.427109853e-10 -8.260721356e-11 -3.649221102e-11 -1.899523936e-11)
5(-3.548075632e-10 -2.291697125e-10 -7.583187547e-11 -3.223562186e-11 -1.633935463e-11)
5(-3.403270298e-10 -2.172073496e-10 -6.827843779e-11 -2.815125715e-11 -1.383330804e-11)
5(-3.233454292e-10 -2.039346315e-10 -6.053592801e-11 -2.40597111e-11 -1.157139991e-11)
5(-3.017532082e-10 -1.88247273e-10 -5.287362594e-11 -2.026349084e-11 -9.521067597e-12)
5(-2.867579955e-10 -1.759522633e-10 -4.547335965e-11 -1.675435599e-11 -7.708523813e-12)
5(-2.552012122e-10 -1.553704091e-10 -3.832961411e-11 -1.359511106e-11 -6.070599837e-12)
5(-2.330891711e-10 -1.398796928e-10 -3.178100812e-11 -1.077611981e-11 -4.660437787e-12)
5(-2.051115454e-10 -1.217782517e-10 -2.582037818e-11 -8.358668746e-12 -3.521539083e-12)
5(-1.827124351e-10 -1.069193564e-10 -2.059276338e-11 -6.333533104e-12 -2.607817194e-12)
5(-1.55796014e-10 -9.022190275e-11 -1.608888586e-11 -4.701071694e-12 -1.872163123e-12)
5(-1.32537998e-10 -7.58723744e-11 -1.233336319e-11 -3.39540174e-12 -1.330827951e-12)
5(-1.146382559e-10 -6.455976914e-11 -9.179953511e-12 -2.399812411e-12 -9.21000202e-13)
5(-9.238143235e-11 -5.159630795e-11 -6.746095491e-12 -1.662285029e-12 -6.435626157e-13)
5(-7.596738872e-11 -4.194911691e-11 -4.861083583e-12 -1.121683902e-12 -4.520457311e-13)
5(-6.055357306e-11 -3.307567377e-11 -3.384627335e-12 -7.563288473e-13 -3.411774967e-13)
5(-4.776496084e-11 -2.58481095e-11 -2.345497595e-12 -5.238721198e-13 -2.880072106e-13)
5(-3.630382644e-11 -1.95317459e-11 -1.62884001e-12 -3.940960469e-13 -2.901774315e-13)
5(-2.713714599e-11 -1.44941375e-11 -1.10196594e-12 -3.439703388e-13 -3.351378041e-13)
5(-1.955773243e-11 -1.039633618e-11 -7.730317417e-13 -3.766742593e-13 -4.422249587e-13)
5(-1.488097296e-11 -7.855487002e-12 -5.948177464e-13 -4.86621831e-13 -6.136092151e-13)
5(-9.544157511e-12 -5.07750375e-12 -5.612596338e-13 -6.776388207e-13 -8.43608364e-13)
5(-6.122751632e-12 -3.343174556e-12 -6.664254488e-13 -9.539853777e-13 -1.138717338e-12)
5(-3.77494428e-12 -2.235635777e-12 -9.079023338e-13 -1.297322176e-12 -1.475166959e-12)
5(-2.434827604e-12 -1.708498223e-12 -1.258422431e-12 -1.670365988e-12 -1.806055956e-12)
5(-1.965343472e-12 -1.671437166e-12 -1.652606419e-12 -1.986207422e-12 -2.044732864e-12)
5(-1.848317369e-12 -1.820664733e-12 -1.996222529e-12 -2.143744662e-12 -2.088056363e-12)
5(-2.130282111e-12 -2.11381394e-12 -2.174743275e-12 -2.059268799e-12 -1.866396817e-12)
5(-2.394776629e-12 -2.282292242e-12 -2.110391279e-12 -1.742278288e-12 -1.433581874e-12)
5(-2.474862954e-12 -2.222720587e-12 -1.789917221e-12 -1.271487071e-12 -9.337179197e-13)
5(-2.230315101e-12 -1.886731587e-12 -1.304096785e-12 -7.864672004e-13 -5.078889024e-13)
5(-1.725738783e-12 -1.379652211e-12 -8.04991842e-13 -3.984743585e-13 -2.205306715e-13)
5(-1.123333749e-12 -8.447140666e-13 -4.076199493e-13 -1.624598605e-13 -7.577420691e-14)
5(-5.989696836e-13 -4.231573079e-13 -1.644573774e-13 -5.075170745e-14 -1.993359234e-14)
5(-2.530544218e-13 -1.672255115e-13 -5.080898391e-14 -1.192416879e-14 -3.626971014e-15)
5(-8.093166742e-14 -5.005406354e-14 -1.132125061e-14 -1.974449342e-15 -4.82857115e-16)
5(-1.748223686e-14 -1.023599956e-14 -1.686124948e-15 -2.115639047e-16 -4.064018087e-17)
5(-2.336621984e-15 -1.314416957e-15 -1.595560774e-16 -1.46017734e-17 -2.303321283e-18)
5(-1.572698114e-16 -8.674467664e-17 -8.630510685e-18 -5.567025147e-19 -7.192557556e-20)
5(-8.820521542e-18 -3.52251682e-18 2.066954657e-19 -1.488330915e-20 1.332330352e-18)
5(-4.640680068e-16 6.367413968e-19 8.658461339e-17 -6.885552682e-19 2.907951523e-16)
5(-1.136402017e-13 1.754444345e-16 2.175470524e-14 -1.754447666e-16 7.013079055e-14)
5(-3.495597572e-11 4.218426273e-14 7.636842309e-12 -4.218426273e-14 1.96822911e-11)
5(-1.500087288e-08 -6.157955917e-14 4.182421751e-09 6.157955917e-14 6.63602938e-09)
5(-2.335614808e-34 -1.212961168e-34 1.746245139e-35 5.660776747e-35 6.925987935e-35)
)


60
(
5(-8.649887424e-10 -4.301183536e-10 -1.20748738e-10 -1.630437663e-10 -7.983802138e-11)
5(-7.282521611e-10 -4.691941331e-10 -1.957019277e-10 -1.320110946e-10 -8.275443901e-11)
5(-6.816504304e-10 -4.996078856e-10 -2.423534433e-10 -1.266928443e-10 -8.624414282e-11)
5(-7.341296439e-10 -5.472912628e-10 -2.700377629e-10 -1.348881314e-10 -9.015361871e-11)
5(-8.893357908e-10 -6.360400514e-10 -2.938492587e-10 -1.493115896e-10 -9.366897366e-11)
5(-1.083177549e-09 -7.447971819e-10 -3.166199226e-10 -1.612350263e-10 -9.564702174e-11)
5(-1.227452088e-09 -8.261564634e-10 -3.302569856e-10 -1.656483835e-10 -9.564363419e-11)
5(-1.301914886e-09 -8.727800672e-10 -3.392272683e-10 -1.644474801e-10 -9.408567187e-11)
5(-1.368744655e-09 -9.139633849e-10 -3.443505836e-10 -1.602035488e-10 -9.088804536e-11)
5(-1.433269904e-09 -9.475666928e-10 -3.430028152e-10 -1.555668983e-10 -8.699164822e-11)
5(-1.476865014e-09 -9.687931145e-10 -3.393132397e-10 -1.501215107e-10 -8.233775713e-11)
5(-1.539649212e-09 -9.958914088e-10 -3.309214248e-10 -1.434041441e-10 -7.709904441e-11)
5(-1.586903577e-09 -1.013607446e-09 -3.19609204e-10 -1.349421498e-10 -7.097720574e-11)
5(-1.593938967e-09 -1.009088693e-09 -3.048842936e-10 -1.248584533e-10 -6.418673706e-11)
5(-1.572217062e-09 -9.89034654e-10 -2.87878735e-10 -1.138347159e-10 -5.776420746e-11)
5(-1.563827883e-09 -9.731231034e-10 -2.681095122e-10 -1.024213849e-10 -5.104206892e-11)
5(-1.56051184e-09 -9.578063696e-10 -2.463880056e-10 -9.100228972e-11 -4.432946715e-11)
5(-1.50493899e-09 -9.154583537e-10 -2.237699773e-10 -7.980723575e-11 -3.805223404e-11)
5(-1.479756142e-09 -8.874380644e-10 -2.004041705e-10 -6.890358848e-11 -3.211882283e-11)
5(-1.412940834e-09 -8.391326598e-10 -1.779548382e-10 -5.869085053e-11 -2.679651044e-11)
5(-1.347319553e-09 -7.914958787e-10 -1.558481379e-10 -4.896435673e-11 -2.190464194e-11)
5(-1.285800863e-09 -7.452956854e-10 -1.339220045e-10 -4.031732317e-11 -1.758114501e-11)
5(-1.20980722e-09 -6.933538281e-10 -1.141446334e-10 -3.257576999e-11 -1.376270875e-11)
5(-1.097718867e-09 -6.244826359e-10 -9.616157328e-11 -2.583866903e-11 -1.060059592e-11)
5(-1.002275225e-09 -5.650457234e-10 -7.995341369e-11 -2.007321687e-11 -8.055828115e-12)
5(-9.160478493e-10 -5.111043081e-10 -6.536628025e-11 -1.527081846e-11 -5.969843285e-12)
5(-8.20892459e-10 -4.543029095e-10 -5.309152116e-11 -1.138834646e-11 -4.307010479e-12)
5(-7.388663251e-10 -4.051107547e-10 -4.251127505e-11 -8.368539368e-12 -3.069712949e-12)
5(-6.406624398e-10 -3.490553723e-10 -3.36673373e-11 -6.010542429e-12 -2.134714999e-12)
5(-5.495618162e-10 -2.978016286e-10 -2.652778693e-11 -4.24252001e-12 -1.470907068e-12)
5(-4.690988942e-10 -2.527389673e-10 -2.064909704e-11 -2.961596163e-12 -1.00403858e-12)
5(-3.90447495e-10 -2.09499642e-10 -1.599513249e-11 -2.071880313e-12 -7.052845809e-13)
5(-3.152398075e-10 -1.686806611e-10 -1.223093373e-11 -1.427569049e-12 -5.147852741e-13)
5(-2.546327101e-10 -1.356893645e-10 -9.159768561e-12 -1.001670249e-12 -4.298223135e-13)
5(-1.936578617e-10 -1.031239242e-10 -6.828650806e-12 -7.438998386e-13 -4.20484827e-13)
5(-1.459158192e-10 -7.745233765e-11 -4.879393741e-12 -6.433442806e-13 -5.16757197e-13)
5(-1.065063182e-10 -5.643123621e-11 -3.509937034e-12 -6.811774207e-13 -6.986349472e-13)
5(-7.23388665e-11 -3.837218097e-11 -2.558523096e-12 -8.468309577e-13 -9.821111623e-13)
5(-4.880397565e-11 -2.589904907e-11 -1.968569422e-12 -1.159233948e-12 -1.375451543e-12)
5(-3.048318055e-11 -1.633887349e-11 -1.761402117e-12 -1.585674904e-12 -1.843112008e-12)
5(-1.705890033e-11 -9.475910759e-12 -1.847261262e-12 -2.060262414e-12 -2.318923489e-12)
5(-1.02012037e-11 -6.092699412e-12 -2.130294505e-12 -2.443894035e-12 -2.611394179e-12)
5(-5.917156563e-12 -4.105738077e-12 -2.447678428e-12 -2.611923024e-12 -2.622808784e-12)
5(-4.063336257e-12 -3.317114328e-12 -2.613332696e-12 -2.478189595e-12 -2.300606197e-12)
5(-3.359363891e-12 -2.989598256e-12 -2.494860892e-12 -2.063724423e-12 -1.757559681e-12)
5(-3.074835668e-12 -2.717413872e-12 -2.08607251e-12 -1.482155346e-12 -1.152157747e-12)
5(-2.666383994e-12 -2.260202509e-12 -1.50523573e-12 -8.938892095e-13 -6.313279835e-13)
5(-2.061812147e-12 -1.63560839e-12 -9.142446536e-13 -4.491648033e-13 -2.792449319e-13)
5(-1.349289159e-12 -9.979512954e-13 -4.537674435e-13 -1.785578325e-13 -9.619420993e-14)
5(-7.309324402e-13 -5.036197813e-13 -1.794101592e-13 -5.345942882e-14 -2.440566176e-14)
5(-3.148025792e-13 -2.01244549e-13 -5.351410082e-14 -1.199950883e-14 -4.657334905e-15)
5(-1.00862492e-13 -5.988357407e-14 -1.104694304e-14 -1.883326419e-15 -5.774229213e-16)
5(-2.067943183e-14 -1.172284727e-14 -1.546009608e-15 -1.862991465e-16 -4.684178516e-17)
5(-2.665956397e-15 -1.453232983e-15 -1.295445386e-16 -1.055932554e-17 -2.539143075e-18)
5(-1.844454125e-16 -1.051360243e-16 -5.390427102e-18 -2.149497597e-19 -1.547568142e-17)
5(2.408037323e-15 -1.898255483e-17 2.569091916e-17 1.627468514e-17 -2.464834901e-15)
5(5.091449482e-13 -3.167943716e-15 -1.043331721e-14 3.16793008e-15 -4.882783411e-13)
5(1.502323841e-10 -8.226414265e-13 -1.080879057e-11 8.226414264e-13 -1.28614803e-10)
5(7.460320659e-08 -3.074896053e-10 -1.054277227e-08 3.074896053e-10 -5.351766204e-08)
5(0.0002880129264 1.5142493e-15 -5.708871078e-05 -1.5142493e-15 -0.0001738355048)
)


60
(
5(-1.784406308e-09 -9.478813727e-10 -2.742618792e-10 -2.946079832e-10 -1.520486454e-10)
5(-1.80666744e-09 -1.168540679e-09 -4.495118646e-10 -2.652808008e-10 -1.619517909e-10)
5(-1.900578494e-09 -1.32954603e-09 -5.620169288e-10 -2.683772636e-10 -1.712342344e-10)
5(-2.125821056e-09 -1.495321984e-09 -6.316278791e-10 -2.893574252e-10 -1.802820049e-10)
5(-2.556846228e-09 -1.744081804e-09 -6.889465348e-10 -3.171841583e-10 -1.877926259e-10)
5(-3.08385315e-09 -2.039015602e-09 -7.401857567e-10 -3.391186887e-10 -1.920439177e-10)
5(-3.527652788e-09 -2.288404217e-09 -7.763242595e-10 -3.480534962e-10 -1.926141188e-10)
5(-3.811526093e-09 -2.453770779e-09 -8.002355541e-10 -3.471856166e-10 -1.899155902e-10)
5(-4.030925348e-09 -2.580661516e-09 -8.131163969e-10 -3.403571727e-10 -1.848792347e-10)
5(-4.275291229e-09 -2.715060961e-09 -8.200492067e-10 -3.31548553e-10 -1.778293861e-10)
5(-4.477544719e-09 -2.814697676e-09 -8.116174394e-10 -3.203729202e-10 -1.693615941e-10)
5(-4.712723097e-09 -2.928668282e-09 -7.993358753e-10 -3.065191783e-10 -1.589800731e-10)
5(-4.877831928e-09 -3.000886757e-09 -7.774559521e-10 -2.891862886e-10 -1.474022597e-10)
5(-5.151316191e-09 -3.119415905e-09 -7.45592907e-10 -2.692891061e-10 -1.349080176e-10)
5(-5.134893527e-09 -3.0903577e-09 -7.093769183e-10 -2.474057417e-10 -1.218795203e-10)
5(-5.154808346e-09 -3.074588444e-09 -6.681284987e-10 -2.251775873e-10 -1.084667191e-10)
5(-5.219511358e-09 -3.081794592e-09 -6.256457452e-10 -2.014165363e-10 -9.561940678e-11)
5(-5.220566171e-09 -3.052092395e-09 -5.782174623e-10 -1.780473723e-10 -8.327843853e-11)
5(-5.180595871e-09 -2.999884738e-09 -5.300016702e-10 -1.559891713e-10 -7.114860774e-11)
5(-5.123002176e-09 -2.940069397e-09 -4.830803208e-10 -1.345376231e-10 -6.00512222e-11)
5(-5.024430576e-09 -2.859585211e-09 -4.369296018e-10 -1.145189213e-10 -4.991848601e-11)
5(-4.847101612e-09 -2.738417181e-09 -3.906735942e-10 -9.621175366e-11 -4.080906911e-11)
5(-4.70902228e-09 -2.639426147e-09 -3.484810856e-10 -8.001029821e-11 -3.288843934e-11)
5(-4.548784765e-09 -2.530001682e-09 -3.081098808e-10 -6.553704078e-11 -2.607291829e-11)
5(-4.270394169e-09 -2.363647742e-09 -2.711479429e-10 -5.28114718e-11 -2.022837345e-11)
5(-4.045072193e-09 -2.227523115e-09 -2.394136544e-10 -4.212919184e-11 -1.540511107e-11)
5(-3.704970817e-09 -2.030776204e-09 -2.059007239e-10 -3.339904477e-11 -1.157823146e-11)
5(-3.424958524e-09 -1.869055287e-09 -1.785204689e-10 -2.622326499e-11 -8.557643001e-12)
5(-3.096332725e-09 -1.686077508e-09 -1.551339587e-10 -2.032238473e-11 -6.199143529e-12)
5(-2.827129644e-09 -1.532643108e-09 -1.325411418e-10 -1.567760987e-11 -4.429508156e-12)
5(-2.483426159e-09 -1.342237438e-09 -1.111124189e-10 -1.21466847e-11 -3.117247294e-12)
5(-2.113664563e-09 -1.141971365e-09 -9.341355455e-11 -9.364304526e-12 -2.179667824e-12)
5(-1.778034137e-09 -9.594693748e-10 -7.680978676e-11 -7.12141683e-12 -1.527872452e-12)
5(-1.465341092e-09 -7.907801756e-10 -6.288808498e-11 -5.320443168e-12 -1.083975367e-12)
5(-1.201331638e-09 -6.469078771e-10 -4.982864529e-11 -3.986431977e-12 -7.996898415e-13)
5(-9.464658351e-10 -5.086784049e-10 -3.808451311e-11 -2.968523055e-12 -6.589946913e-13)
5(-7.040172244e-10 -3.791657001e-10 -2.906841814e-11 -2.240019504e-12 -6.573785031e-13)
5(-5.074657676e-10 -2.735258998e-10 -2.11832926e-11 -1.794829515e-12 -8.091058081e-13)
5(-3.446958387e-10 -1.85488944e-10 -1.421716391e-11 -1.633574428e-12 -1.114870345e-12)
5(-2.229259392e-10 -1.200819045e-10 -9.568836188e-12 -1.754203598e-12 -1.608604508e-12)
5(-1.365781367e-10 -7.371247219e-11 -6.413614123e-12 -2.101111277e-12 -2.221801981e-12)
5(-7.619857864e-11 -4.154938124e-11 -4.610697045e-12 -2.537239273e-12 -2.753268289e-12)
5(-3.971911141e-11 -2.228865161e-11 -3.803050984e-12 -2.910965963e-12 -3.074021763e-12)
5(-2.033668296e-11 -1.210786017e-11 -3.466633303e-12 -3.040479496e-12 -3.026729773e-12)
5(-9.983992036e-12 -6.780540604e-12 -3.296123261e-12 -2.812237008e-12 -2.609316666e-12)
5(-5.857238231e-12 -4.604127685e-12 -2.990499762e-12 -2.292811169e-12 -1.955639953e-12)
5(-4.278063612e-12 -3.603462898e-12 -2.437613615e-12 -1.608753104e-12 -1.271141162e-12)
5(-3.40695401e-12 -2.835318962e-12 -1.741551085e-12 -9.509513202e-13 -6.824843848e-13)
5(-2.607634112e-12 -2.04129407e-12 -1.052778853e-12 -4.637117645e-13 -2.968198494e-13)
5(-1.753983927e-12 -1.27227998e-12 -5.236992396e-13 -1.797323787e-13 -1.026423123e-13)
5(-9.820751083e-13 -6.577977562e-13 -2.067674129e-13 -5.288203972e-14 -2.574965777e-14)
5(-4.476244605e-13 -2.747547671e-13 -5.978194609e-14 -1.113094426e-14 -4.583070019e-15)
5(-1.566949411e-13 -8.995542811e-14 -1.295005734e-14 -1.613960212e-15 -5.437208735e-16)
5(-3.675751624e-14 -2.014611972e-14 -1.888975481e-15 -1.404149223e-16 -3.760207391e-17)
5(-4.734683893e-15 -2.523882165e-15 -1.53447724e-16 -7.124826833e-18 -2.043464355e-17)
5(1.9098958e-15 -2.755994735e-16 -8.504156922e-18 6.516560615e-18 -2.431053312e-15)
5(4.654837962e-13 -1.090030311e-15 -4.34580848e-14 1.080855815e-15 -3.785859755e-13)
5(1.189339575e-10 -1.906494578e-13 -2.160825756e-11 1.906493683e-13 -7.571744256e-11)
5(4.533692828e-08 1.45591703e-13 -1.215174695e-08 -1.455917037e-13 -2.103343438e-08)
5(-1.522759107e-21 -7.614605349e-22 -8.098127607e-26 8.050063384e-34 5.267213427e-34)
)


60
(
5(-3.388316745e-09 -1.870303488e-09 -5.291624332e-10 -4.806152394e-10 -2.551958432e-10)
5(-3.982221763e-09 -2.543853037e-09 -8.796472682e-10 -4.654994635e-10 -2.771887016e-10)
5(-4.514337255e-09 -3.030469972e-09 -1.112209193e-09 -4.871903009e-10 -2.965649038e-10)
5(-5.209006347e-09 -3.486114519e-09 -1.253484319e-09 -5.287134291e-10 -3.136809114e-10)
5(-6.343420679e-09 -4.129590017e-09 -1.370843655e-09 -5.765488942e-10 -3.271698335e-10)
5(-7.696704932e-09 -4.887532148e-09 -1.484594543e-09 -6.131167488e-10 -3.354037745e-10)
5(-8.765522453e-09 -5.48670398e-09 -1.566248207e-09 -6.31062245e-10 -3.375135832e-10)
5(-9.654465806e-09 -5.985059337e-09 -1.622440485e-09 -6.319118423e-10 -3.345955823e-10)
5(-1.037215445e-08 -6.389266649e-09 -1.663116461e-09 -6.236406389e-10 -3.274272006e-10)
5(-1.115275677e-08 -6.807352303e-09 -1.682068e-09 -6.098119316e-10 -3.174357021e-10)
5(-1.190748546e-08 -7.205387483e-09 -1.69265996e-09 -5.928878508e-10 -3.03745288e-10)
5(-1.261372799e-08 -7.561740617e-09 -1.681314555e-09 -5.703079473e-10 -2.877400302e-10)
5(-1.337250923e-08 -7.93648563e-09 -1.658281325e-09 -5.423882529e-10 -2.686758813e-10)
5(-1.384527157e-08 -8.159009315e-09 -1.621451419e-09 -5.091041718e-10 -2.480525679e-10)
5(-1.445136338e-08 -8.438761521e-09 -1.57246987e-09 -4.724747413e-10 -2.261694006e-10)
5(-1.486940198e-08 -8.617628288e-09 -1.515478918e-09 -4.345982743e-10 -2.040933045e-10)
5(-1.52246971e-08 -8.754194034e-09 -1.446453924e-09 -3.955176817e-10 -1.818184803e-10)
5(-1.566216949e-08 -8.934722171e-09 -1.38069351e-09 -3.56923753e-10 -1.597353365e-10)
5(-1.570094064e-08 -8.909602655e-09 -1.3079239e-09 -3.182811675e-10 -1.389792013e-10)
5(-1.590640406e-08 -8.96727617e-09 -1.236218657e-09 -2.817501874e-10 -1.192113427e-10)
5(-1.593181967e-08 -8.932279994e-09 -1.162851309e-09 -2.471155104e-10 -1.012687176e-10)
5(-1.568958372e-08 -8.760386476e-09 -1.087905923e-09 -2.148504411e-10 -8.507826582e-11)
5(-1.571337319e-08 -8.723854165e-09 -1.018262357e-09 -1.862247656e-10 -7.025995278e-11)
5(-1.538458343e-08 -8.513110198e-09 -9.523151596e-10 -1.601081036e-10 -5.72228586e-11)
5(-1.478554873e-08 -8.163473894e-09 -8.84499619e-10 -1.369082402e-10 -4.621629666e-11)
5(-1.430694077e-08 -7.87061521e-09 -8.160063154e-10 -1.172445121e-10 -3.676604083e-11)
5(-1.382168175e-08 -7.578316417e-09 -7.530543514e-10 -1.000231224e-10 -2.888862432e-11)
5(-1.300004126e-08 -7.119261321e-09 -6.926091766e-10 -8.466944875e-11 -2.2601928e-11)
5(-1.181883649e-08 -6.475631665e-09 -6.288610931e-10 -7.143415547e-11 -1.757296638e-11)
5(-1.092935247e-08 -5.971521013e-09 -5.608098811e-10 -6.06871653e-11 -1.344412207e-11)
5(-9.864869507e-09 -5.389357967e-09 -5.033397888e-10 -5.158075894e-11 -1.03283687e-11)
5(-8.779538013e-09 -4.798742285e-09 -4.480926045e-10 -4.306409506e-11 -7.889537733e-12)
5(-7.599725335e-09 -4.149763045e-09 -3.82610779e-10 -3.571471878e-11 -6.008634768e-12)
5(-6.329061897e-09 -3.461205815e-09 -3.237025546e-10 -2.92759513e-11 -4.496526479e-12)