/*--------------------------------*- C++ -*----------------------------------*\
| =========                 |                                                 |
| \\      /  F ield         | OpenFOAM: The Open Source CFD Toolbox           |
|  \\    /   O peration     | Version:  2.3.1                                 |
|   \\  /    A nd           | Web:      www.OpenFOAM.org                      |
|    \\/     M anipulation  |                                                 |
\*---------------------------------------------------------------------------*/
FoamFile
{
    version     2.0;
    format      ascii;
    class       dictionary;
    location    "constant";
    object      GRPSI35;
}
// * * * * * * * * * * * * * * * * * * * * * * * * * * * * * * * * * * * * * //

GRPSI35_table
60
(

60
(
5(-0.01130435902 -0.02053191516 -0.01310466753 -0.01821648958 -0.01459841418)
5(-0.02062675523 -0.04392949577 -0.0243063383 -0.02857058504 -0.02559270045)
5(-0.05289540942 -0.03460316627 -0.03137415141 -0.03811090559 -0.06352155388)
5(-0.07538089004 -0.03234440498 -0.02775879795 -0.04787008256 -0.02270525425)
5(-0.06013302909 -0.03563910925 -0.03147503603 -0.0397870158 -0.03676300753)
5(-0.03790526229 -0.03926965419 -0.04897885376 -0.04163583154 -0.04752041225)
5(-0.03373496011 -0.0417889181 -0.04787942642 -0.04793609091 -0.03917974512)
5(-0.04319690247 -0.04244780675 -0.0417985164 -0.04604557292 -0.05410882014)
5(-0.03722789396 -0.0421077252 -0.04429607492 -0.04557549388 -0.04806240848)
5(-0.03868108746 -0.04180080686 -0.04135556704 -0.04735402602 -0.04715027735)
5(-0.03844076255 -0.04268582102 -0.04257063156 -0.04780646702 -0.04787130762)
5(-0.04016216405 -0.04337689549 -0.04593651053 -0.04857721488 -0.05050270987)
5(-0.04333682286 -0.04392268998 -0.04740633442 -0.04810456998 -0.05029143883)
5(-0.04192066358 -0.04443170614 -0.04764496086 -0.05046211436 -0.05217822363)
5(-0.04457925928 -0.04609879871 -0.04944645265 -0.05037839198 -0.05295001903)
5(-0.04470484063 -0.04667859819 -0.04976083346 -0.05124475918 -0.05384776139)
5(-0.04559265277 -0.04788034486 -0.05069900156 -0.05212400519 -0.05400795698)
5(-0.04671816176 -0.0490023664 -0.05160974025 -0.05244674607 -0.05452568304)
5(-0.04806865966 -0.0499894328 -0.05262962122 -0.05346947669 -0.05547934897)
5(-0.04851713266 -0.0502296692 -0.05309098519 -0.05329139435 -0.05651538513)
5(-0.04990214542 -0.05207386499 -0.0550151178 -0.05443458567 -0.05748596015)
5(-0.05098741316 -0.05348403429 -0.0559114918 -0.05823885504 -0.06009707754)
5(-0.05164998119 -0.05443820889 -0.05743980342 -0.05814143121 -0.05991534085)
5(-0.05348763366 -0.05495658875 -0.05876943789 -0.05957791849 -0.06119245158)
5(-0.05464688534 -0.05628280166 -0.05971598682 -0.06017090995 -0.06175039969)
5(-0.05623709271 -0.05796489959 -0.06029286922 -0.06046412879 -0.06293792694)
5(-0.05773953709 -0.05990333945 -0.06257866609 -0.06134029846 -0.06394481928)
5(-0.05978947176 -0.06157730434 -0.06351021219 -0.06248418222 -0.06498527775)
5(-0.06088757619 -0.06297296556 -0.06565070364 -0.06422162815 -0.0659101343)
5(-0.06274073609 -0.06419541934 -0.06761192616 -0.06658727896 -0.0673028517)
5(-0.06424504734 -0.06561890772 -0.06863141619 -0.06713942827 -0.06820095536)
5(-0.06627591432 -0.06776337481 -0.07115174449 -0.06976427397 -0.07195895507)
5(-0.0685927174 -0.06941558791 -0.0725872762 -0.07115512085 -0.07054689914)
5(-0.07061587259 -0.07089268905 -0.07344477416 -0.07292838202 -0.07447722064)
5(-0.07268176612 -0.07302705463 -0.07555290586 -0.07434777718 -0.07515845751)
5(-0.07503119322 -0.0740362598 -0.07509599145 -0.07534416812 -0.07576306959)
5(-0.07731801764 -0.07738755552 -0.0799365812 -0.07785760825 -0.07639803689)
5(-0.07974804919 -0.07839703035 -0.08137946143 -0.07806589486 -0.08265672682)
5(-0.08171068571 -0.08033721593 -0.08195308473 -0.07953306579 -0.07692591188)
5(-0.08270393751 -0.08168124189 -0.08147206438 -0.07926244309 -0.09300685251)
5(-0.0847532791 -0.08405075847 -0.08437168171 -0.08026251536 -0.08948058687)
5(-0.08702279923 -0.08562314017 -0.08605144479 -0.08631010321 -0.08531285958)
5(-0.0884286189 -0.08793582709 -0.08768397851 -0.09957477069 -0.08045071306)
5(-0.08887208163 -0.087037866 -0.08126170211 -0.09492038926 -0.07463603097)
5(-0.0887061504 -0.08770700995 -0.08303747591 -0.09201280003 -0.06978621192)
5(-0.08944672792 -0.08608269604 -0.08519119136 -0.08500298259 -0.06554376695)
5(-0.08896081616 -0.08706648194 -0.1008100172 -0.07873920105 -0.06063745396)
5(-0.08852257308 -0.09234819602 -0.1021409202 -0.07332763197 -0.05502238246)
5(-0.08541386105 -0.08716662041 -0.09564511076 -0.06770262456 -0.04951429169)
5(-0.08217774091 -0.1057740385 -0.08852075174 -0.06314467934 -0.04543805123)
5(-0.08010240144 -0.09930588776 -0.08120722511 -0.05632317377 -0.04110795034)
5(-0.09432286157 -0.08972441026 -0.07375925321 -0.05038934979 -0.03745663365)
5(-0.09411831515 -0.07949291305 -0.06636588901 -0.0448608696 -0.03499332543)
5(-0.08228871597 -0.06982424009 -0.05773485261 -0.04059588969 -0.03126378895)
5(-0.07097190211 -0.06017551477 -0.04982861657 -0.03481525196 -0.02877956227)
5(-0.05216461635 -0.04992506055 -0.04186011676 -0.03116341769 -0.02686889717)
5(-0.02992820647 -0.03854437397 -0.03382276268 -0.02655921974 -0.02207287127)
5(-0.009820684307 -0.02375820924 -0.02359202937 -0.01806009963 -0.02538701069)
5(0.009135027472 -0.004469007459 -0.00759288249 -0.02395514793 -0.01411268785)
5(0.04555050963 0.03711269807 0.04637834696 0.04421501117 0.0253220835)
)


60
(
5(-0.009320252608 -0.01538753462 -0.01095345484 -0.01461541381 -0.01237634804)
5(-0.01526246583 -0.02770729712 -0.01809713333 -0.02086050742 -0.01963123337)
5(-0.03218873375 -0.02335547975 -0.02258020225 -0.02622135095 -0.03979575695)
5(-0.04369529763 -0.02236060199 -0.02104518136 -0.03131611849 -0.01971485335)
5(-0.03612014081 -0.02407405531 -0.02280834102 -0.02728829534 -0.02657701764)
5(-0.02488314764 -0.02595248377 -0.03143626957 -0.02824483835 -0.0317354161)
5(-0.0227974193 -0.0272604866 -0.03097707724 -0.03142506575 -0.0275828815)
5(-0.02764808232 -0.02769037894 -0.0280515567 -0.03056689743 -0.03520787199)
5(-0.02484053552 -0.02767837302 -0.02948040366 -0.03050579394 -0.03235348239)
5(-0.02564191011 -0.02764127972 -0.02813931189 -0.03150177225 -0.03207678675)
5(-0.02567378194 -0.0281685534 -0.02889285389 -0.03184684457 -0.03254161546)
5(-0.02660711642 -0.02866447972 -0.03067692571 -0.03233524098 -0.03394707035)
5(-0.02833404066 -0.02908019658 -0.03154721232 -0.0322808639 -0.03397751907)
5(-0.027759039 -0.02952060626 -0.03181670219 -0.03359712131 -0.03506878286)
5(-0.02927331985 -0.03050119856 -0.03291238237 -0.0337737104 -0.03566697442)
5(-0.02948643245 -0.03098188135 -0.03323425464 -0.03436864983 -0.03629790274)
5(-0.03014208378 -0.03174264347 -0.03388457226 -0.03500555574 -0.03657766832)
5(-0.03091268817 -0.03250981653 -0.03453215996 -0.03537867281 -0.03702212751)
5(-0.03178099549 -0.03326290715 -0.03527223404 -0.03611048004 -0.03764543869)
5(-0.03224015058 -0.03361062216 -0.03572301268 -0.03622542276 -0.03837298467)
5(-0.03316602915 -0.03473522194 -0.03693285776 -0.03704305583 -0.03910744705)
5(-0.03402059199 -0.0356869523 -0.03763551413 -0.03916200675 -0.04066349024)
5(-0.03461156096 -0.03645441891 -0.03868771488 -0.03936586701 -0.0408115482)
5(-0.03579578891 -0.03699634898 -0.0396324511 -0.04037272133 -0.04173527174)
5(-0.03666959436 -0.03795855897 -0.04042812714 -0.04094434607 -0.04232576175)
5(-0.03778531615 -0.03911532249 -0.04100066549 -0.04140481111 -0.04321826417)
5(-0.0388703942 -0.04041401339 -0.04247011016 -0.04214954838 -0.04406677827)
5(-0.04022960726 -0.04159992225 -0.04333584123 -0.04307513993 -0.04495382366)
5(-0.04116121104 -0.04264104969 -0.0447838236 -0.04430752876 -0.04579487477)
5(-0.04245246146 -0.04363959425 -0.04616976186 -0.04590652176 -0.04687779355)
5(-0.04359266595 -0.04477488464 -0.04709645753 -0.04662475308 -0.04771856847)
5(-0.04498747344 -0.04626524761 -0.04881796074 -0.04839062986 -0.05004725878)
5(-0.04655297827 -0.0475034067 -0.04998594058 -0.04957293693 -0.04979548015)
5(-0.04795022221 -0.04872988555 -0.05092149672 -0.05095455814 -0.05222935962)
5(-0.04938219397 -0.05024345341 -0.05244319433 -0.05215669515 -0.05303032566)
5(-0.05092527545 -0.05118939867 -0.05274028023 -0.05313790633 -0.05381082702)
5(-0.05245978229 -0.05331384076 -0.05564848458 -0.05494969045 -0.05459856188)
5(-0.05402589288 -0.05424027159 -0.0568673345 -0.0555662397 -0.05818597881)
5(-0.05529312292 -0.05567199224 -0.0576153446 -0.05680976259 -0.05577101788)
5(-0.05603503232 -0.05667398765 -0.05780060095 -0.05716757476 -0.06429512415)
5(-0.05718623595 -0.05825593051 -0.05975415718 -0.0581039772 -0.06305089671)
5(-0.05849455858 -0.05929222391 -0.0609340649 -0.06153596088 -0.06132682073)
5(-0.05915639006 -0.06068419352 -0.06205453054 -0.06852360827 -0.05921513619)
5(-0.05923883338 -0.06048259671 -0.0590503808 -0.06653738355 -0.05658750884)
5(-0.05892413688 -0.06078504315 -0.06011195262 -0.06533998757 -0.05418105278)
5(-0.05900500623 -0.0599086379 -0.0613821766 -0.06200129037 -0.05168513025)
5(-0.05832869778 -0.06025734467 -0.06921154905 -0.0587886601 -0.04876109831)
5(-0.05762537302 -0.06266385597 -0.06969868162 -0.05578022135 -0.04536366802)
5(-0.05544326538 -0.05966893043 -0.06624979705 -0.05238033452 -0.04188096601)
5(-0.05325488392 -0.06864233425 -0.0623104543 -0.049160871 -0.0389320488)
5(-0.05154911835 -0.06497098704 -0.05793914957 -0.04466048186 -0.03538133476)
5(-0.05807296017 -0.0595422617 -0.05312459588 -0.04063424849 -0.03241568752)
5(-0.05736582378 -0.05344296522 -0.04821489858 -0.03649001946 -0.02994585101)
5(-0.05074699824 -0.04750479445 -0.04240592241 -0.03265378639 -0.02661470816)
5(-0.04431554731 -0.04128584818 -0.03680403214 -0.02819267645 -0.02389916141)
5(-0.03391111295 -0.03447592455 -0.03098976204 -0.02477947681 -0.02140326904)
5(-0.02150563131 -0.02693772742 -0.02514975381 -0.02077075241 -0.01750393419)
5(-0.009816130216 -0.01755936351 -0.01821449549 -0.01449883292 -0.01751890303)
5(0.002138108789 -0.005516592083 -0.007606410293 -0.01548796647 -0.01036013651)
5(0.0243223118 0.01980217575 0.02306356706 0.02332214068 0.01316988433)
)


60
(
5(-0.006391844096 -0.008691518043 -0.007723804444 -0.009541679096 -0.009004985172)
5(-0.008330313211 -0.00957709542 -0.01006348451 -0.01112966392 -0.01171350405)
5(-0.009455826458 -0.01004467794 -0.01146982418 -0.01200748791 -0.01347354154)
5(-0.009861962919 -0.01025049196 -0.01188153566 -0.01232823417 -0.01399348786)
5(-0.009897440779 -0.01035003463 -0.01173253984 -0.01235216542 -0.01373387916)
5(-0.009747106173 -0.01044082706 -0.01157282643 -0.01241118228 -0.0134361285)
5(-0.009772531058 -0.01056153583 -0.01171323522 -0.01248099979 -0.01347906222)
5(-0.009971393784 -0.01073393842 -0.01191608461 -0.01264109708 -0.01374460721)
5(-0.01021235588 -0.01096020933 -0.0122106438 -0.01291626978 -0.01404134504)
5(-0.01037584386 -0.01116090715 -0.01243720036 -0.01311656853 -0.01430596909)
5(-0.01062525993 -0.01133815579 -0.01266226224 -0.0133209075 -0.0144788395)
5(-0.0107800728 -0.01159027467 -0.01285328772 -0.01350947121 -0.01465106041)
5(-0.01100838257 -0.01182903976 -0.01309536329 -0.01379892383 -0.01490814483)
5(-0.01125584934 -0.01211655828 -0.01336494375 -0.01406169186 -0.0151558213)
5(-0.01156625716 -0.0123915967 -0.01368742512 -0.01437192771 -0.01550897644)
5(-0.01185623543 -0.01272823759 -0.01399355171 -0.01469906631 -0.0158393526)
5(-0.01218252823 -0.01304963898 -0.01431400344 -0.01503954689 -0.01617304369)
5(-0.01254198172 -0.01339862771 -0.01465699974 -0.01545818192 -0.01651990146)
5(-0.01290036984 -0.01380652449 -0.01505115599 -0.01581394653 -0.01687161832)
5(-0.01329837954 -0.01421005982 -0.0154483421 -0.0162024913 -0.01727828342)
5(-0.01374833548 -0.01460168566 -0.01589228681 -0.01665837841 -0.01774377144)
5(-0.01423623061 -0.01503712406 -0.0163494767 -0.01706680979 -0.01816535675)
5(-0.01469381712 -0.01552493863 -0.01683888628 -0.0175516363 -0.01859907203)
5(-0.01516453642 -0.01605009502 -0.01732222662 -0.01807235937 -0.01908652913)
5(-0.01570852688 -0.01657929494 -0.01789490428 -0.01859979679 -0.01964188021)
5(-0.01624022304 -0.01712844432 -0.01843560934 -0.019164296 -0.02022151451)
5(-0.01680415533 -0.01773772998 -0.01903277125 -0.01974757233 -0.02084416158)
5(-0.01740072124 -0.01833830127 -0.01969550665 -0.02036783965 -0.02153321274)
5(-0.0180273296 -0.01896784797 -0.02037697996 -0.02104018201 -0.02219070833)
5(-0.018663284 -0.01963284686 -0.0210853493 -0.02177572225 -0.02296088643)
5(-0.01931146853 -0.02031032166 -0.02180342746 -0.02254085583 -0.02370752863)
5(-0.01997479306 -0.02100482832 -0.02258057697 -0.02333500098 -0.02454008828)
5(-0.02064572919 -0.02172603967 -0.023374273 -0.02416962345 -0.02536467473)
5(-0.02129420085 -0.02247020756 -0.0242232818 -0.02504354058 -0.02625849916)
5(-0.02194694515 -0.02321588285 -0.02507051483 -0.02594351004 -0.02714169435)
5(-0.0225337446 -0.0239497439 -0.02592836109 -0.02686170628 -0.02809657805)
5(-0.02310549563 -0.02468382631 -0.02676479729 -0.02785074442 -0.02904340188)
5(-0.0235877445 -0.02535848648 -0.02762922949 -0.02879053636 -0.02994426156)
5(-0.02396318752 -0.02603746814 -0.02843835623 -0.02971696737 -0.03090631776)
5(-0.02424808563 -0.02657803779 -0.02921579916 -0.03062664168 -0.0318687501)
5(-0.02438735948 -0.02713323396 -0.02999145107 -0.03147865146 -0.03292034166)
5(-0.02436237526 -0.02745606072 -0.03057767912 -0.03228378793 -0.03379027793)
5(-0.02409979809 -0.02771486777 -0.03109111252 -0.0330848494 -0.03451890888)
5(-0.02367015217 -0.02791460942 -0.03147139863 -0.0338574547 -0.03512882632)
5(-0.02305978555 -0.02782779101 -0.03177981191 -0.03444807361 -0.03533248938)
5(-0.02228568182 -0.02754833572 -0.03198369044 -0.0348470736 -0.035081078)
5(-0.02131131104 -0.02706893537 -0.03206389457 -0.03494111953 -0.0346086319)
5(-0.02031148341 -0.026498084 -0.03191391266 -0.03461061292 -0.03377788459)
5(-0.01901301759 -0.02581091112 -0.03160656556 -0.03370032531 -0.03259262781)
5(-0.01798012465 -0.02511057572 -0.03088166408 -0.03228443569 -0.03104158734)
5(-0.01687899966 -0.02435004456 -0.02976105733 -0.03057913021 -0.02898820075)
5(-0.0158478987 -0.02333751056 -0.02809379333 -0.02862686981 -0.02668609564)
5(-0.01488217834 -0.02194039764 -0.02602299298 -0.02626726447 -0.02414807662)
5(-0.01388071358 -0.02021205152 -0.02365138739 -0.02342389215 -0.02142509935)
5(-0.01267639032 -0.01802764162 -0.0207459425 -0.02029353155 -0.01858481954)
5(-0.01116173913 -0.01536216355 -0.01756248015 -0.01703257775 -0.01544978567)
5(-0.009159144382 -0.01223501839 -0.01429505303 -0.01357045899 -0.01263410047)
5(-0.006412338437 -0.00887910287 -0.01081936048 -0.009999992417 -0.009674260454)
5(-0.002529747319 -0.004623326279 -0.006284636128 -0.00644584303 -0.006246081506)
5(0.003088002038 0.004220020948 -0.0008636255275 0.000679105561 0.001855480362)
)


60
(
5(-0.004870322654 -0.006302099649 -0.005988241072 -0.007224714002 -0.007135338054)
5(-0.005913901172 -0.006709473073 -0.007276831461 -0.008053252244 -0.008689632982)
5(-0.006441032035 -0.006965092236 -0.008001526582 -0.008518140579 -0.009583684919)
5(-0.006651164616 -0.007069671798 -0.008211492905 -0.008683962732 -0.009875160801)
5(-0.00664068084 -0.007124125571 -0.008146410715 -0.008704667841 -0.009755611758)
5(-0.006607956873 -0.007184596178 -0.008095424556 -0.008742428646 -0.009642912335)
5(-0.006652898941 -0.007290856818 -0.008181848048 -0.008823066689 -0.009688195408)
5(-0.00677951668 -0.007415391213 -0.008332655707 -0.008965272247 -0.009866449488)
5(-0.006915591615 -0.007552920455 -0.008516893897 -0.009123646819 -0.01008136417)
5(-0.007065521798 -0.007686531665 -0.008693619525 -0.00929506169 -0.01023826068)
5(-0.007229877272 -0.007853210745 -0.008846927361 -0.009443333619 -0.01037689767)
5(-0.007393849043 -0.008025714203 -0.009010857099 -0.009624702973 -0.01054578755)
5(-0.007559935638 -0.008208920595 -0.009210606877 -0.009815107462 -0.010728288)
5(-0.007751474921 -0.008403305312 -0.009418539395 -0.01002589998 -0.01094665488)
5(-0.007977319127 -0.008642929854 -0.009658938038 -0.01022576109 -0.01118886512)
5(-0.00822613059 -0.008890391949 -0.009895736928 -0.01050786216 -0.01144859741)
5(-0.008461511259 -0.009155906052 -0.01016181093 -0.01076879298 -0.01170840017)
5(-0.008719554178 -0.009445831736 -0.01045061109 -0.01105714516 -0.01200550817)
5(-0.009021321069 -0.009729044675 -0.0107339649 -0.01138087193 -0.01237025632)
5(-0.009319381381 -0.01004255106 -0.01107117159 -0.01173495788 -0.012703195)
5(-0.009675509262 -0.01037736899 -0.0114058225 -0.01212057777 -0.01306032013)
5(-0.01000603618 -0.01071698993 -0.01178127248 -0.01247014701 -0.01344050259)
5(-0.01036533922 -0.01108211441 -0.01214746016 -0.01286063852 -0.01385814733)
5(-0.01073340591 -0.01147507967 -0.01256052347 -0.01330036691 -0.01429555144)
5(-0.01115049176 -0.01190436394 -0.01299566273 -0.01376130055 -0.01475180854)
5(-0.01155668435 -0.01231127081 -0.01343667314 -0.01421847407 -0.01523082121)
5(-0.01198570008 -0.01279276287 -0.01391745709 -0.01472496825 -0.01574131447)
5(-0.01242540993 -0.01324169125 -0.01439698409 -0.01522005576 -0.01631262792)
5(-0.01284756598 -0.01372482921 -0.01492495883 -0.01579586475 -0.01687937101)
5(-0.01328875513 -0.01421281804 -0.01545584794 -0.01636958311 -0.01751464331)
5(-0.01374293597 -0.0146803314 -0.01600315554 -0.0169843976 -0.01818214947)
5(-0.01421095584 -0.01517028232 -0.01659074785 -0.01762278574 -0.01885241395)
5(-0.01463517486 -0.01570235462 -0.01716857515 -0.01828127521 -0.01961003096)
5(-0.01505396472 -0.01615912461 -0.01777262783 -0.01896224808 -0.02038059512)
5(-0.01542265903 -0.01666499413 -0.01840807102 -0.01968410363 -0.02120548861)
5(-0.01574225497 -0.01714272868 -0.01900169502 -0.02042857031 -0.02207124646)
5(-0.01600202633 -0.01759102516 -0.01960768936 -0.02118687064 -0.02296321889)
5(-0.01615905585 -0.01798463339 -0.02018994153 -0.02196274536 -0.02383630489)
5(-0.01624144677 -0.01833232518 -0.02075790559 -0.02270892298 -0.02476665812)
5(-0.01621299951 -0.01862627648 -0.02129630429 -0.02343965713 -0.02570372229)
5(-0.01607715942 -0.0187975006 -0.02173098808 -0.02415054282 -0.02664523666)
5(-0.0156927301 -0.01881302172 -0.02210178878 -0.02484508344 -0.02759327221)
5(-0.01516818479 -0.01872217998 -0.02236770448 -0.02557681325 -0.02848814792)
5(-0.01451196671 -0.01848922673 -0.02254179162 -0.02627157299 -0.02923852879)
5(-0.01368115023 -0.01815835154 -0.02259861104 -0.02686654305 -0.02976857326)
5(-0.01276319238 -0.017615987 -0.02258855742 -0.02731605501 -0.03014692385)
5(-0.01177551123 -0.01691177115 -0.02256245524 -0.02761613903 -0.03029876193)
5(-0.01078642121 -0.01618785475 -0.02247800593 -0.02763352261 -0.03009202234)
5(-0.009751764498 -0.01548820035 -0.02224916486 -0.02736724368 -0.02945389889)
5(-0.008763087085 -0.01482858389 -0.02179575129 -0.02674124133 -0.02844043818)
5(-0.007873618999 -0.01429080368 -0.02119591129 -0.02583900222 -0.02726248061)
5(-0.007095675092 -0.01365846457 -0.02040600862 -0.02447848985 -0.02540553422)
5(-0.006393351851 -0.01295353655 -0.01907533387 -0.02263786188 -0.02319768513)
5(-0.005829948847 -0.01201339669 -0.01751289906 -0.02054551883 -0.02085279627)
5(-0.005144494828 -0.01081954416 -0.01546469097 -0.01793701049 -0.0182024536)
5(-0.004297663716 -0.009295497963 -0.01327435725 -0.01504569988 -0.01534227773)
5(-0.003103452668 -0.007314460474 -0.01072785986 -0.01200581933 -0.01243711663)
5(-0.001413354253 -0.004925920288 -0.00775221935 -0.008951743031 -0.009462514132)
5(0.0008852690675 -0.001652894751 -0.00412946817 -0.005305218611 -0.005822325849)
5(0.003374708876 0.003536934528 0.001109854038 0.0009567930315 0.003075160206)
)


60
(
5(-0.003910873621 -0.00493780984 -0.004885590675 -0.005819503419 -0.005920956102)
5(-0.004540868872 -0.005152871936 -0.005702509103 -0.006335114925 -0.006938921867)
5(-0.004856556114 -0.005313090178 -0.006146931878 -0.006629351091 -0.007496679512)
5(-0.004966841757 -0.005384973897 -0.006270139327 -0.006732249054 -0.007659936057)
5(-0.004969306268 -0.005422737137 -0.006252274274 -0.006755285451 -0.007617899895)
5(-0.004959179115 -0.005465598645 -0.006237207981 -0.006776112611 -0.007567674258)
5(-0.005007579672 -0.005533443709 -0.006294652646 -0.006851896607 -0.007612084265)
5(-0.005092662004 -0.005629005005 -0.006415783707 -0.006967641949 -0.007736079823)
5(-0.005214579366 -0.005741835685 -0.006537889933 -0.00707621264 -0.007886164195)
5(-0.005330254858 -0.005860160607 -0.00668056211 -0.007204224927 -0.008024892593)
5(-0.005447663073 -0.005975609414 -0.006812604482 -0.007346446212 -0.008160656395)
5(-0.005595238937 -0.006120452014 -0.006961439491 -0.007500246305 -0.008304155231)
5(-0.005741517519 -0.006272113293 -0.007107376003 -0.007655232333 -0.008462051633)
5(-0.005912922692 -0.006446672718 -0.007302262886 -0.007835249643 -0.0086469973)
5(-0.006074706955 -0.006643169281 -0.00749193403 -0.008026255733 -0.00884063103)
5(-0.006284569441 -0.006826291104 -0.007704754843 -0.008240769385 -0.009059016287)
5(-0.0064973273 -0.007045772696 -0.007918897401 -0.008455743879 -0.009294357374)
5(-0.006705913502 -0.007286974095 -0.008161471245 -0.00866796273 -0.009550772721)
5(-0.006956738482 -0.007522337588 -0.008408508101 -0.008962880893 -0.009823650285)
5(-0.007199930532 -0.007783803506 -0.00868040922 -0.00924943698 -0.010100286)
5(-0.007463498556 -0.008071238643 -0.008947904254 -0.00953071842 -0.01039765094)
5(-0.007740211592 -0.008356150113 -0.009261604899 -0.009864399886 -0.0107587002)
5(-0.008035907028 -0.008652659573 -0.009570758373 -0.01021503643 -0.01114316353)
5(-0.008337184447 -0.008938135498 -0.00992241192 -0.01059431375 -0.01153447355)
5(-0.008640617556 -0.0092793376 -0.01026680814 -0.01093809712 -0.01192408934)
5(-0.008965625236 -0.009629843984 -0.01061376621 -0.01132673635 -0.01235493297)
5(-0.00929341486 -0.0099634529 -0.01098830177 -0.01174821943 -0.0128183045)
5(-0.009630026789 -0.01031223812 -0.01139179576 -0.01218388686 -0.01330398388)
5(-0.009960385242 -0.0106697913 -0.0118025002 -0.01265173184 -0.01383154172)
5(-0.01027208884 -0.01104257943 -0.01220681537 -0.01312110564 -0.01431265852)
5(-0.01059350098 -0.01140284114 -0.01263546209 -0.01363338738 -0.01485432599)
5(-0.0108997704 -0.01176566067 -0.01310751918 -0.01416436683 -0.015423511)
5(-0.01116321751 -0.01213536349 -0.0135233847 -0.01470131882 -0.01607383597)
5(-0.01141028648 -0.01248378549 -0.01395884992 -0.01524868456 -0.01671271492)
5(-0.01159140392 -0.01281463737 -0.0143853873 -0.01581294543 -0.01743465889)
5(-0.01173359268 -0.01310435559 -0.01480696743 -0.01636918027 -0.0181301664)
5(-0.01179864371 -0.01334014367 -0.01523106826 -0.01694168104 -0.01885948215)
5(-0.01178764483 -0.01353198074 -0.01558460993 -0.01752940468 -0.01963568816)
5(-0.01168084025 -0.01366099455 -0.01592085143 -0.01810051418 -0.02037730546)
5(-0.01146457714 -0.01371098327 -0.01619888385 -0.01861590931 -0.02118446921)
5(-0.01111517544 -0.01363438571 -0.0164000741 -0.0191011548 -0.02195692002)
5(-0.01065351127 -0.01345932738 -0.0165229574 -0.01957236987 -0.02279997297)
5(-0.01003083781 -0.01316927765 -0.01653966481 -0.01999785023 -0.02365242058)
5(-0.0093224937 -0.01275218192 -0.01643216353 -0.0204198273 -0.02439707383)
5(-0.008537623833 -0.01220274237 -0.01620413471 -0.02082780837 -0.02502292457)
5(-0.007699400445 -0.01154942388 -0.01596097349 -0.021114249 -0.02552476239)
5(-0.006877138852 -0.010813279 -0.01563771909 -0.02128775476 -0.02584392962)
5(-0.005994407942 -0.01001234719 -0.0152976884 -0.02133729297 -0.02597275786)
5(-0.00526549692 -0.009229149655 -0.0150410944 -0.02127384239 -0.02580864347)
5(-0.004373386613 -0.008536324832 -0.01471333131 -0.02103237499 -0.02536227925)
5(-0.003558215762 -0.007952779757 -0.01427779646 -0.02054170072 -0.02448998646)
5(-0.00289032928 -0.007452721555 -0.01387553629 -0.01982540163 -0.02338351636)
5(-0.002252085149 -0.006922797316 -0.01318906609 -0.0186128896 -0.02176254651)
5(-0.001645995942 -0.006357284373 -0.01219744537 -0.01709513573 -0.01974810785)
5(-0.001125696664 -0.005675910884 -0.01109610897 -0.01530974189 -0.01744236275)
5(-0.0004700963825 -0.004777312299 -0.009580740802 -0.01308963919 -0.01503305937)
5(0.000319490239 -0.003551184566 -0.00752035934 -0.01059337229 -0.01210254024)
5(0.001370824314 -0.001909031086 -0.005299928354 -0.007894703917 -0.008867584116)
5(0.002725060141 0.0003961951024 -0.002012129423 -0.004075030876 -0.005439354934)
5(0.004018263804 0.002271907318 0.002236036896 0.002061239032 0.001571230356)
)


60
(
5(-0.00325224433 -0.004047764413 -0.004119509756 -0.004868571379 -0.005057656672)
5(-0.003665088602 -0.004152879962 -0.004673862487 -0.005219001222 -0.005776255094)
5(-0.003867609613 -0.004265421178 -0.004978673566 -0.005420267082 -0.006159529409)
5(-0.003933300495 -0.004331767813 -0.005066018907 -0.005497116434 -0.006276284326)
5(-0.003939429595 -0.004361172056 -0.00505858584 -0.005517337492 -0.006250668322)
5(-0.0039387779 -0.004382060517 -0.005065436118 -0.005543600742 -0.006223573606)
5(-0.003988395964 -0.004447809285 -0.005105037426 -0.005601023701 -0.0062810458)
5(-0.004061539054 -0.0045232245 -0.005208169045 -0.005692258966 -0.00636714014)
5(-0.004158482023 -0.004610750846 -0.005311069977 -0.005790680731 -0.006489572192)
5(-0.0042559385 -0.00472191064 -0.005424575526 -0.005882880591 -0.006607269788)
5(-0.00435979947 -0.004820693498 -0.005531781642 -0.00601167839 -0.006732274919)
5(-0.00447358875 -0.004949294196 -0.005672168211 -0.006143125608 -0.006850010005)
5(-0.004611620359 -0.005077601512 -0.005791552022 -0.006273194224 -0.007005809096)
5(-0.004772411966 -0.005226910127 -0.005959741017 -0.006438282038 -0.007160716378)
5(-0.004919405321 -0.005388702558 -0.006114854808 -0.006601764988 -0.00733207559)
5(-0.005085762851 -0.00555851002 -0.006315238565 -0.006792514584 -0.007511747979)
5(-0.005269285947 -0.005745063084 -0.006487342562 -0.006969971927 -0.00772703925)
5(-0.005477894335 -0.00593433656 -0.006703586056 -0.007200765276 -0.007945099835)
5(-0.005673650515 -0.006138170273 -0.006923497198 -0.007404653128 -0.008172515885)
5(-0.00588889713 -0.006365584745 -0.007143314686 -0.007630298034 -0.008445529807)
5(-0.006117281225 -0.006612704503 -0.007391198831 -0.007849854859 -0.008701558074)
5(-0.006347461987 -0.006835882255 -0.007634371293 -0.008159107726 -0.008986352594)
5(-0.006601122394 -0.00709773528 -0.007907112065 -0.008451086573 -0.009313439767)
5(-0.006854124449 -0.007372173739 -0.008174431201 -0.008736320109 -0.009610424362)
5(-0.007098253847 -0.007638826887 -0.008456398099 -0.00906196553 -0.009930720685)
5(-0.007358706874 -0.007922568575 -0.008763648962 -0.009429231256 -0.01034048865)
5(-0.007609687422 -0.008186221074 -0.00906423001 -0.009775599944 -0.01074126485)
5(-0.007890853125 -0.008460952487 -0.009392032165 -0.010113528 -0.01114379862)
5(-0.008133889346 -0.00875430512 -0.009708627328 -0.01047651015 -0.01157853492)
5(-0.008379559978 -0.009036762268 -0.01003443612 -0.01086255956 -0.01202661786)
5(-0.008579648785 -0.009294848327 -0.01035908622 -0.01126100932 -0.01251246584)
5(-0.008790200699 -0.00955952939 -0.01069572068 -0.01167717574 -0.0130293023)
5(-0.008963300588 -0.009796382654 -0.01102265101 -0.01208172939 -0.01353334679)
5(-0.009087021997 -0.01001980804 -0.01131475358 -0.01250097589 -0.01404541129)
5(-0.009173498082 -0.01019838296 -0.01160565066 -0.01293028182 -0.01459181461)
5(-0.00919376016 -0.01033196853 -0.01186962049 -0.01335949916 -0.01514188989)
5(-0.009126040094 -0.01044300551 -0.01212375948 -0.01377405795 -0.01568238465)
5(-0.008979405675 -0.01047541164 -0.01231868715 -0.01416289049 -0.01626267971)
5(-0.008737710087 -0.01042471828 -0.01246514353 -0.01453342218 -0.01685271344)
5(-0.008376172644 -0.01029658667 -0.01255161845 -0.01485326693 -0.01745592896)
5(-0.007931014944 -0.01006866738 -0.0125541096 -0.01514249457 -0.01810121271)
5(-0.007369497131 -0.009754838049 -0.01246621906 -0.01539002808 -0.01875281035)
5(-0.006756159293 -0.009371929298 -0.01228458891 -0.015610975 -0.01935066769)
5(-0.006069777826 -0.008871798163 -0.01199595386 -0.01579183617 -0.01991777444)
5(-0.005388793527 -0.008255436752 -0.01163341031 -0.01593172407 -0.02038080451)
5(-0.004653268501 -0.007551092249 -0.01114743206 -0.0160011751 -0.02079787026)
5(-0.003965162798 -0.006814245815 -0.01063299557 -0.01595754305 -0.02108886388)
5(-0.003254273417 -0.00604282289 -0.01016869852 -0.01585948877 -0.02128614882)
5(-0.002557481984 -0.005336534414 -0.009681208179 -0.01563832115 -0.02130078789)
5(-0.001881117135 -0.004585911714 -0.009145106091 -0.01534589824 -0.0211542095)
5(-0.001211456619 -0.003907450904 -0.008635941744 -0.01495086301 -0.02070387175)
5(-0.0005349329005 -0.003325862851 -0.008181885928 -0.01446863193 -0.019955199)
5(6.462477e-05 -0.002760099643 -0.007715130738 -0.01382997925 -0.01890106716)
5(0.0006765164775 -0.002240667408 -0.007156610727 -0.01301069357 -0.01742259966)
5(0.001270414356 -0.00167230772 -0.006605624955 -0.01184622314 -0.01564780419)
5(0.001871188447 -0.001002718624 -0.005587205379 -0.01029857134 -0.01354091664)
5(0.002529619973 -9.660659797e-05 -0.004187405721 -0.008247270704 -0.01105154749)
5(0.003339097928 0.001034800179 -0.002261162985 -0.005833519041 -0.008241915986)
5(0.004180563852 0.002557748661 0.0002918670584 -0.002653334776 -0.004780589376)
5(0.00487999484 0.003518815375 0.002200121319 0.002291160928 0.001889859662)
)


60
(
5(-0.002768933437 -0.00341201622 -0.003555290238 -0.004190933473 -0.004413065957)
5(-0.003052355699 -0.003461818485 -0.003956453463 -0.004437012912 -0.004955635695)
5(-0.003186216135 -0.003562937403 -0.004179755306 -0.004589962421 -0.005233532542)
5(-0.00323923472 -0.003615951602 -0.004249128767 -0.004649173893 -0.005322647317)
5(-0.003253330272 -0.003632391089 -0.004249567857 -0.004673363087 -0.005311475843)
5(-0.003261634948 -0.003663869383 -0.004257610875 -0.004693157604 -0.005300205428)
5(-0.003299506039 -0.003720137082 -0.00431062407 -0.004751064112 -0.005350188305)
5(-0.003373758902 -0.003786744957 -0.004386258441 -0.004822887368 -0.005431333576)
5(-0.003454884945 -0.003868059471 -0.004492619969 -0.004920035308 -0.005532603825)