/*--------------------------------*- C++ -*----------------------------------*\
| =========                 |                                                 |
| \\      /  F ield         | OpenFOAM: The Open Source CFD Toolbox           |
|  \\    /   O peration     | Version:  2.3.1                                 |
|   \\  /    A nd           | Web:      www.OpenFOAM.org                      |
|    \\/     M anipulation  |                                                 |
\*---------------------------------------------------------------------------*/
FoamFile
{
    version     2.0;
    format      ascii;
    class       dictionary;
    location    "constant";
    object      GRPSI43;
}
// * * * * * * * * * * * * * * * * * * * * * * * * * * * * * * * * * * * * * //

GRPSI43_table
60
(

60
(
5(1.366132564e-10 4.194435379e-11 5.674561183e-11 2.351252946e-11 1.288994542e-11)
5(9.469855708e-11 5.159042899e-11 3.827928745e-11 2.166415808e-11 1.202960951e-11)
5(8.262764976e-11 5.205985684e-11 3.33225434e-11 2.180963134e-11 1.297902609e-11)
5(8.045625882e-11 5.392141782e-11 3.264727337e-11 2.232929804e-11 1.184350473e-11)
5(9.400566465e-11 5.749920969e-11 3.595874494e-11 2.218673538e-11 1.259378962e-11)
5(1.058811744e-10 6.021424343e-11 4.078508362e-11 2.254676348e-11 1.295218888e-11)
5(1.103290978e-10 6.041859424e-11 4.101681287e-11 2.225038097e-11 1.183463749e-11)
5(1.136305497e-10 5.951087173e-11 3.823427545e-11 2.074763603e-11 1.190888889e-11)
5(1.110665634e-10 5.835266358e-11 3.621522412e-11 1.93138111e-11 1.06423979e-11)
5(1.062866851e-10 5.599335214e-11 3.362673956e-11 1.788939554e-11 9.622275193e-12)
5(1.069253762e-10 5.303937371e-11 3.161533425e-11 1.630493258e-11 8.599501883e-12)
5(1.017413256e-10 5.02797933e-11 2.946717392e-11 1.46955627e-11 7.615902769e-12)
5(9.874222325e-11 4.677590061e-11 2.70085857e-11 1.296872151e-11 6.563149119e-12)
5(9.386735971e-11 4.321599539e-11 2.432587697e-11 1.132698848e-11 5.589204959e-12)
5(8.881155932e-11 3.961577865e-11 2.169251206e-11 9.687313982e-12 4.666589937e-12)
5(8.192842961e-11 3.548262689e-11 1.89151927e-11 8.165837111e-12 3.817617835e-12)
5(7.629999686e-11 3.148267452e-11 1.62360246e-11 6.770694279e-12 3.063941138e-12)
5(6.997547335e-11 2.754819569e-11 1.381598161e-11 5.532135863e-12 2.426948523e-12)
5(6.299714319e-11 2.395919774e-11 1.155223356e-11 4.449071259e-12 1.877245062e-12)
5(5.625438882e-11 2.046873076e-11 9.510136723e-12 3.504133079e-12 1.428746471e-12)
5(4.941948443e-11 1.714945556e-11 7.675674649e-12 2.718841773e-12 1.075319939e-12)
5(4.30764868e-11 1.4083016e-11 6.060719027e-12 2.065382242e-12 7.985619853e-13)
5(3.712597378e-11 1.140843415e-11 4.709476542e-12 1.53414838e-12 5.796874835e-13)
5(3.058920312e-11 8.990340214e-12 3.569041263e-12 1.132318643e-12 4.261555884e-13)
5(2.519922892e-11 6.998384338e-12 2.672397993e-12 8.320615747e-13 3.188299664e-13)
5(2.021014325e-11 5.310178993e-12 1.957932862e-12 6.200982421e-13 2.543671204e-13)
5(1.589337039e-11 3.975692994e-12 1.439331831e-12 4.842877539e-13 2.248563148e-13)
5(1.242817918e-11 2.934884863e-12 1.081381103e-12 4.165950966e-13 2.275250479e-13)
5(9.490588819e-12 2.168641629e-12 8.602387859e-13 4.082212479e-13 2.600076921e-13)
5(7.134333477e-12 1.665784973e-12 7.612474176e-13 4.579363441e-13 3.269192248e-13)
5(5.342482418e-12 1.376805612e-12 7.680403126e-13 5.637092897e-13 4.303773531e-13)
5(4.079056205e-12 1.284671022e-12 8.88874945e-13 7.406060603e-13 5.820147223e-13)
5(3.262389318e-12 1.364252985e-12 1.110439086e-12 9.855418941e-13 7.754431162e-13)
5(2.799384897e-12 1.602981969e-12 1.43569175e-12 1.309016893e-12 1.022909444e-12)
5(2.688935738e-12 2.006253713e-12 1.882693221e-12 1.697027324e-12 1.296409739e-12)
5(2.848734396e-12 2.522454568e-12 2.38584722e-12 2.123539339e-12 1.571278693e-12)
5(3.287149123e-12 3.215315088e-12 3.036724042e-12 2.556820776e-12 1.802318808e-12)
5(3.903489462e-12 3.895098357e-12 3.611487791e-12 2.881173902e-12 1.938621306e-12)
5(4.608302336e-12 4.562191601e-12 4.034443799e-12 3.039777824e-12 1.891736199e-12)
5(5.263614433e-12 5.04246983e-12 4.204452613e-12 2.939664237e-12 1.662231431e-12)
5(5.805513023e-12 5.242975016e-12 4.090174622e-12 2.578170801e-12 1.27247484e-12)
5(6.033253055e-12 4.998745461e-12 3.582226708e-12 2.00216673e-12 8.351286491e-13)
5(5.770184984e-12 4.342193728e-12 2.801808797e-12 1.349342387e-12 4.630601597e-13)
5(5.006111306e-12 3.3265141e-12 1.899184923e-12 7.661321242e-13 2.096572457e-13)
5(3.874998696e-12 2.250197652e-12 1.116733242e-12 3.566023798e-13 7.608924489e-14)
5(2.6428722e-12 1.302879333e-12 5.465538135e-13 1.325682478e-13 2.096129602e-14)
5(1.536893743e-12 6.31545873e-13 2.117642367e-13 3.816862685e-14 4.244113608e-15)
5(7.309144474e-13 2.476187098e-13 6.295502506e-14 8.28361283e-15 6.157823068e-16)
5(2.886238612e-13 7.536849445e-14 1.372826345e-14 1.277269808e-15 6.391621443e-17)
5(8.37050744e-14 1.655275491e-14 2.175389023e-15 1.303184473e-16 5.186016959e-18)
5(1.819978029e-14 2.515552504e-15 2.188282779e-16 9.531929601e-18 2.979508572e-19)
5(2.397094125e-15 2.456369981e-16 1.465629328e-17 5.016764979e-19 1.390727512e-20)
5(2.337263642e-16 1.504520388e-17 6.93828072e-19 2.065698693e-20 4.924279019e-22)
5(1.004122339e-17 4.785504474e-19 1.863766644e-20 7.820596418e-22 1.378659327e-23)
5(2.222622507e-19 -4.456279432e-20 3.434825833e-22 2.387771515e-20 2.615574162e-25)
5(1.564618335e-21 -6.848028901e-18 2.255045896e-21 6.868256548e-18 3.360355622e-27)
5(4.69937983e-24 -6.581208861e-16 -2.371583174e-19 1.828865543e-15 1.366499373e-29)
5(4.861889517e-27 3.245776352e-14 -1.554061644e-18 4.093018448e-13 2.454643424e-32)
5(1.753640684e-31 -1.128856311e-12 -3.362768617e-15 -5.823599064e-13 1.016930743e-34)
5(1.105815349e-37 4.386558865e-37 -6.720454386e-37 4.694056395e-36 1.678687831e-35)
)


60
(
5(2.442320132e-10 7.60349762e-11 8.624045857e-11 3.381344554e-11 1.602326806e-11)
5(2.137344322e-10 9.784054573e-11 6.518141574e-11 3.1221139e-11 1.409971627e-11)
5(2.030884476e-10 1.094941813e-10 5.971338036e-11 3.101664338e-11 1.40959686e-11)
5(2.151850798e-10 1.18000747e-10 6.165367269e-11 3.181421427e-11 1.361401558e-11)
5(2.440375915e-10 1.267096568e-10 6.750611182e-11 3.259152551e-11 1.419713034e-11)
5(2.804470894e-10 1.34579856e-10 7.392093928e-11 3.333946413e-11 1.459818953e-11)
5(3.03465511e-10 1.391765715e-10 7.525449321e-11 3.314269265e-11 1.395075244e-11)
5(3.154905056e-10 1.403328934e-10 7.339987329e-11 3.185906323e-11 1.36791071e-11)
5(3.145478777e-10 1.392642867e-10 7.065846211e-11 3.020688032e-11 1.265258373e-11)
5(3.173587692e-10 1.36976502e-10 6.771719536e-11 2.845463606e-11 1.161652652e-11)
5(3.215483671e-10 1.334428612e-10 6.440415039e-11 2.645600189e-11 1.062373042e-11)
5(3.214745251e-10 1.28987507e-10 6.094683717e-11 2.430302726e-11 9.614399463e-12)
5(3.141594502e-10 1.222296291e-10 5.675005268e-11 2.195040681e-11 8.512893461e-12)
5(3.068560557e-10 1.144284616e-10 5.199530462e-11 1.956962905e-11 7.434514994e-12)
5(2.94455367e-10 1.062358671e-10 4.683156274e-11 1.716935862e-11 6.368026496e-12)
5(2.842335495e-10 9.724610666e-11 4.171614074e-11 1.483145552e-11 5.383357766e-12)
5(2.655703661e-10 8.827266005e-11 3.65673299e-11 1.260233524e-11 4.467046823e-12)
5(2.488003212e-10 7.871751322e-11 3.173400744e-11 1.056220626e-11 3.673485187e-12)
5(2.30789395e-10 6.91777277e-11 2.695214657e-11 8.728489317e-12 2.959997537e-12)
5(2.107143813e-10 5.990179373e-11 2.255372882e-11 7.089419921e-12 2.346755564e-12)
5(1.94423015e-10 5.109542331e-11 1.854104804e-11 5.666718657e-12 1.826498418e-12)
5(1.702838096e-10 4.272529613e-11 1.496602075e-11 4.43239332e-12 1.404373582e-12)
5(1.516499554e-10 3.514170669e-11 1.181708351e-11 3.387913057e-12 1.063889744e-12)
5(1.308842122e-10 2.835116035e-11 9.140199644e-12 2.553971458e-12 7.979087321e-13)
5(1.138121341e-10 2.247318314e-11 6.921386251e-12 1.900601267e-12 6.006746808e-13)
5(9.535243521e-11 1.746399817e-11 5.151989335e-12 1.394633751e-12 4.626462152e-13)
5(7.961231257e-11 1.335129722e-11 3.758154403e-12 1.033702608e-12 3.725417933e-13)
5(6.726301133e-11 9.952692804e-12 2.718227931e-12 7.848224453e-13 3.292831338e-13)
5(5.35528366e-11 7.370853234e-12 1.973742654e-12 6.395725928e-13 3.236028797e-13)
5(4.339602286e-11 5.419680818e-12 1.466518619e-12 5.793993017e-13 3.603179046e-13)
5(3.422158218e-11 3.953052344e-12 1.170302355e-12 5.965252075e-13 4.362575135e-13)
5(2.686827877e-11 2.997294659e-12 1.054837704e-12 6.921437896e-13 5.617915057e-13)
5(2.057020465e-11 2.432023873e-12 1.084767249e-12 8.614941304e-13 7.325403238e-13)
5(1.567043502e-11 2.12186997e-12 1.241288614e-12 1.106558142e-12 9.628016264e-13)
5(1.182176328e-11 2.080920722e-12 1.526257114e-12 1.425407116e-12 1.23338833e-12)
5(9.62152585e-12 2.230765611e-12 1.896438849e-12 1.804164471e-12 1.532021364e-12)
5(7.248749773e-12 2.582248803e-12 2.394059157e-12 2.21905728e-12 1.827395829e-12)
5(5.939354232e-12 3.015721893e-12 2.893701706e-12 2.596677635e-12 2.062773716e-12)
5(5.200110617e-12 3.519050862e-12 3.336590619e-12 2.87877647e-12 2.163772456e-12)
5(4.900298254e-12 3.9664847e-12 3.640997073e-12 2.975316201e-12 2.090889174e-12)
5(4.921921562e-12 4.273813117e-12 3.740410854e-12 2.837526387e-12 1.824372319e-12)
5(4.900395898e-12 4.293492828e-12 3.522025678e-12 2.456685878e-12 1.417225829e-12)
5(4.765583234e-12 3.987264573e-12 3.013800988e-12 1.902821964e-12 9.696235562e-13)
5(4.335936836e-12 3.348508638e-12 2.300893275e-12 1.288685299e-12 5.715793242e-13)
5(3.625702612e-12 2.522133824e-12 1.552251956e-12 7.51111814e-13 2.842212415e-13)
5(2.721840118e-12 1.666376724e-12 9.011137956e-13 3.6884803e-13 1.149035787e-13)
5(1.792558256e-12 9.512381921e-13 4.357265787e-13 1.47473257e-13 3.73173794e-14)
5(1.006640053e-12 4.545277994e-13 1.714825429e-13 4.694394791e-14 9.056844451e-15)
5(4.743680566e-13 1.760756593e-13 5.239970901e-14 1.162332738e-14 1.656531212e-15)
5(1.792230609e-13 5.283744356e-14 1.213925609e-14 2.028572811e-15 2.150873038e-16)
5(5.203044793e-14 1.15815078e-14 1.993277971e-15 2.602571863e-16 1.88286288e-17)
5(1.044700174e-14 1.707765815e-15 2.128846819e-16 2.164086764e-17 1.320777207e-18)
5(1.329077416e-15 1.60767013e-16 1.46610484e-17 1.21093564e-18 5.927499864e-20)
5(8.730310783e-17 8.668202139e-18 5.584311811e-19 3.769145416e-20 1.72866638e-21)
5(3.537439167e-18 -8.728216044e-19 1.492234654e-20 -6.661261388e-19 3.903738903e-23)
5(5.181428296e-20 -2.319821891e-16 6.885556798e-19 -1.453975757e-16 4.116018549e-25)
5(3.321019541e-22 -5.682010051e-14 1.754447666e-16 -3.506539527e-14 1.792776446e-27)
5(2.470270632e-25 -1.747798786e-11 4.218426273e-14 -9.841145552e-12 3.518319627e-30)
5(3.700223011e-29 -7.50043644e-09 -6.157955917e-14 -3.31801469e-09 1.95494536e-33)
5(1.212951169e-34 4.506300605e-36 -3.360227193e-37 2.134648143e-35 5.386032914e-35)
)


60
(
5(5.394442674e-10 1.719247974e-10 1.573448063e-10 5.918701437e-11 2.359224048e-11)
5(5.762341534e-10 2.396255525e-10 1.37508101e-10 5.720243913e-11 2.055335992e-11)
5(6.111229963e-10 2.845615344e-10 1.352054406e-10 5.78589533e-11 1.964657822e-11)
5(6.680858077e-10 3.130557967e-10 1.438988093e-10 6.004670321e-11 1.996777472e-11)
5(7.657065258e-10 3.382481236e-10 1.575979765e-10 6.26922563e-11 2.089791292e-11)
5(8.807857261e-10 3.618917347e-10 1.689195554e-10 6.441332409e-11 2.16898798e-11)
5(9.630021516e-10 3.754027875e-10 1.727938522e-10 6.460974029e-11 2.168436282e-11)
5(1.006900402e-09 3.830147653e-10 1.715816695e-10 6.343099461e-11 2.10619866e-11)
5(1.043297705e-09 3.856739192e-10 1.672194949e-10 6.113405748e-11 2.016876959e-11)
5(1.07341678e-09 3.819443617e-10 1.621923508e-10 5.839318645e-11 1.9098814e-11)
5(1.087206712e-09 3.758716959e-10 1.562347368e-10 5.527793192e-11 1.802308945e-11)
5(1.108266699e-09 3.645357061e-10 1.489375322e-10 5.168656106e-11 1.675379212e-11)
5(1.117326756e-09 3.499782311e-10 1.397853815e-10 4.750110471e-11 1.52939954e-11)
5(1.103134506e-09 3.317219189e-10 1.29117631e-10 4.302590066e-11 1.384629443e-11)
5(1.072654578e-09 3.112770925e-10 1.173693318e-10 3.85297158e-11 1.221205779e-11)
5(1.04683191e-09 2.882517899e-10 1.054090015e-10 3.399323505e-11 1.069583216e-11)
5(1.021093324e-09 2.633521406e-10 9.348561687e-11 2.948167577e-11 9.204707664e-12)
5(9.690830048e-10 2.379078554e-10 8.184543276e-11 2.526903886e-11 7.823448456e-12)
5(9.321782996e-10 2.118802486e-10 7.056007301e-11 2.1317831e-11 6.561540856e-12)
5(8.756608897e-10 1.871473183e-10 5.998697638e-11 1.773603103e-11 5.393338558e-12)
5(8.205494092e-10 1.630760532e-10 4.99957318e-11 1.448787718e-11 4.371358793e-12)
5(7.678813108e-10 1.395197072e-10 4.114612947e-11 1.164323092e-11 3.493348724e-12)
5(7.103405562e-10 1.183320526e-10 3.324179764e-11 9.151776567e-12 2.753848219e-12)
5(6.373247106e-10 9.928742918e-11 2.638639471e-11 7.078055967e-12 2.135546348e-12)
5(5.74260643e-10 8.224071945e-11 2.050694373e-11 5.390648651e-12 1.623332408e-12)
5(5.176036889e-10 6.703931637e-11 1.564694289e-11 4.037597931e-12 1.239635876e-12)
5(4.587843197e-10 5.430491254e-11 1.172664579e-11 2.974862573e-12 9.55326214e-13)
5(4.080997736e-10 4.342206762e-11 8.677403674e-12 2.182020607e-12 7.466599464e-13)
5(3.510481864e-10 3.438667294e-11 6.325203186e-12 1.614360685e-12 6.269215583e-13)
5(2.991639745e-10 2.712469296e-11 4.568501633e-12 1.221632412e-12 5.586289067e-13)
5(2.537575995e-10 2.119924752e-11 3.330247245e-12 9.84798835e-13 5.597665676e-13)
5(2.10372251e-10 1.655719243e-11 2.502368127e-12 8.744391471e-13 6.147438471e-13)
5(1.695088796e-10 1.285177647e-11 1.950502156e-12 8.685085527e-13 7.323002137e-13)
5(1.365831577e-10 9.885012032e-12 1.640630819e-12 9.588801205e-13 9.108350745e-13)
5(1.041489207e-10 7.699354578e-12 1.528947797e-12 1.142835101e-12 1.161995174e-12)
5(7.867429264e-11 5.929249199e-12 1.583798576e-12 1.41752968e-12 1.469942905e-12)
5(5.786752662e-11 4.7558623e-12 1.784316085e-12 1.773240533e-12 1.831316774e-12)
5(4.00227931e-11 3.995298884e-12 2.094135001e-12 2.191119207e-12 2.206794673e-12)
5(2.773407632e-11 3.561556243e-12 2.494072293e-12 2.621821652e-12 2.530696158e-12)
5(1.82791691e-11 3.431751372e-12 2.919073558e-12 2.989005985e-12 2.724767334e-12)
5(1.141208322e-11 3.498465349e-12 3.283768119e-12 3.199925883e-12 2.702524483e-12)
5(7.898740683e-12 3.632648242e-12 3.473848957e-12 3.160058682e-12 2.442448765e-12)
5(5.654774301e-12 3.697014042e-12 3.395256011e-12 2.83606195e-12 1.967798672e-12)
5(4.53094372e-12 3.54903431e-12 3.014541264e-12 2.266460542e-12 1.394079845e-12)
5(3.847590959e-12 3.114172224e-12 2.38639536e-12 1.585004178e-12 8.464492924e-13)
5(3.25176291e-12 2.444035666e-12 1.648513495e-12 9.496867895e-13 4.294113917e-13)
5(2.544211341e-12 1.685242606e-12 9.693941178e-13 4.77922406e-13 1.79330129e-13)
5(1.768860638e-12 9.891570543e-13 4.767885161e-13 1.94616047e-13 5.88274963e-14)
5(1.046196426e-12 4.793719742e-13 1.868818895e-13 6.265518847e-14 1.51647603e-14)
5(5.179713749e-13 1.862229081e-13 5.525814299e-14 1.502408034e-14 2.883815677e-15)
5(2.04512569e-13 5.497028688e-14 1.227538955e-14 2.709196348e-15 3.851458851e-16)
5(6.059898866e-14 1.124535373e-14 1.908516002e-15 3.20978352e-16 3.251077595e-17)
5(1.179439418e-14 1.564019434e-15 1.880637678e-16 2.552209943e-17 2.111289125e-18)
5(1.458855081e-15 1.306582188e-16 1.06333906e-17 1.352564396e-18 8.337699447e-20)
5(1.052415736e-16 1.315227983e-17 2.165086457e-19 7.727632478e-18 1.730496508e-21)
5(2.707115317e-18 1.210150574e-15 -1.627578472e-17 1.22898335e-15 2.793990562e-23)
5(1.363394027e-20 2.549015482e-13 -3.167811501e-15 2.432247378e-13 1.133572416e-25)
5(1.270349944e-22 7.509996319e-11 -8.226406494e-13 6.410275058e-11 2.231012639e-28)
5(4.372498738e-26 3.730216772e-08 -3.074879239e-10 2.67591222e-08 8.094592658e-32)
5(5.287078023e-29 0.0001440064632 1.5142493e-15 8.69177524e-05 2.353266665e-34)
)


60
(
5(1.032571924e-09 3.262062568e-10 2.50767176e-10 9.296095102e-11 3.373975058e-11)
5(1.260942309e-09 4.794658909e-10 2.432130921e-10 9.488911195e-11 3.094550526e-11)
5(1.43939005e-09 5.816749257e-10 2.522568642e-10 9.866128432e-11 3.045923563e-11)
5(1.614795631e-09 6.478368266e-10 2.722048258e-10 1.036280898e-10 3.144227026e-11)
5(1.864912283e-09 7.027733693e-10 2.962700014e-10 1.085821201e-10 3.332387291e-11)
5(2.146786562e-09 7.50588538e-10 3.146800759e-10 1.119509452e-10 3.497304024e-11)
5(2.381192223e-09 7.828261973e-10 3.222910461e-10 1.129156484e-10 3.548909711e-11)
5(2.53356687e-09 8.029734038e-10 3.216499215e-10 1.114735596e-10 3.495017499e-11)
5(2.652293513e-09 8.125060213e-10 3.159809178e-10 1.087383264e-10 3.399603387e-11)
5(2.773314308e-09 8.16066828e-10 3.079072119e-10 1.04939149e-10 3.293045695e-11)
5(2.855136502e-09 8.046241382e-10 2.977491616e-10 1.003458134e-10 3.155860852e-11)
5(2.952479698e-09 7.889680153e-10 2.847642709e-10 9.459678419e-11 2.987229876e-11)
5(3.011910425e-09 7.650443844e-10 2.686323176e-10 8.809614269e-11 2.791123354e-11)
5(3.11438243e-09 7.313831435e-10 2.501283524e-10 8.089284087e-11 2.561881664e-11)
5(3.072594232e-09 6.935001233e-10 2.300502197e-10 7.335683948e-11 2.327249515e-11)
5(3.041391875e-09 6.510860652e-10 2.095144163e-10 6.556477997e-11 2.08290401e-11)
5(3.040107066e-09 6.077551682e-10 1.874821868e-10 5.794129852e-11 1.830127245e-11)
5(3.000716026e-09 5.60596455e-10 1.658309804e-10 5.065743048e-11 1.593486524e-11)
5(2.94151961e-09 5.128943891e-10 1.455695032e-10 4.342864697e-11 1.364004306e-11)
5(2.877648664e-09 4.670241798e-10 1.2582654e-10 3.681748501e-11 1.155240771e-11)
5(2.790980068e-09 4.221437773e-10 1.073471194e-10 3.068753518e-11 9.582554083e-12)
5(2.673562759e-09 3.776125586e-10 9.051598644e-11 2.526857848e-11 7.899343843e-12)
5(2.575165334e-09 3.371987795e-10 7.561887971e-11 2.049870208e-11 6.384701306e-12)
5(2.470455504e-09 2.986188942e-10 6.223207401e-11 1.632939158e-11 5.053701975e-12)
5(2.307169725e-09 2.633288579e-10 5.0441339e-11 1.277367843e-11 3.963400305e-12)
5(2.177815699e-09 2.3317761e-10 4.051448767e-11 9.8528415e-12 3.086367525e-12)
5(1.987270081e-09 2.010536708e-10 3.236625142e-11 7.486310147e-12 2.362608395e-12)
5(1.830140636e-09 1.749805022e-10 2.5645118e-11 5.639986823e-12 1.821665423e-12)
5(1.65456566e-09 1.525900142e-10 2.008446015e-11 4.202150905e-12 1.424360448e-12)
5(1.506403478e-09 1.308223502e-10 1.570948678e-11 3.142292024e-12 1.153560811e-12)
5(1.321539239e-09 1.101029461e-10 1.237747547e-11 2.37515451e-12 9.87119611e-13)
5(1.125882005e-09 9.293220458e-11 9.75874973e-12 1.864147631e-12 9.183173242e-13)
5(9.475857461e-10 7.672059069e-11 7.648117208e-12 1.539643936e-12 9.207964252e-13)
5(7.82271549e-10 6.316957584e-11 5.985510852e-12 1.383456805e-12 1.009038023e-12)
5(6.413018436e-10 5.041489092e-11 4.790302646e-12 1.35927737e-12 1.180544929e-12)
5(5.047399294e-10 3.894749834e-11 3.917011459e-12 1.457802974e-12 1.435110236e-12)
5(3.774216131e-10 3.018507966e-11 3.333416768e-12 1.677921154e-12 1.771036084e-12)
5(2.731988781e-10 2.25273701e-11 3.016152844e-12 2.010502942e-12 2.175308707e-12)
5(1.861991785e-10 1.573873132e-11 2.945870302e-12 2.429469743e-12 2.60961805e-12)
5(1.214421914e-10 1.119663558e-11 3.068785162e-12 2.886221828e-12 2.984947552e-12)
5(7.536187322e-11 8.055476599e-12 3.320838192e-12 3.294468895e-12 3.205934336e-12)
5(4.332257809e-11 6.147447452e-12 3.593861584e-12 3.532972936e-12 3.200366974e-12)
5(2.391633137e-11 5.121916717e-12 3.741493699e-12 3.493609008e-12 2.889796535e-12)
5(1.34645066e-11 4.493553437e-12 3.638938671e-12 3.137311413e-12 2.340737463e-12)
5(7.766378946e-12 4.011814405e-12 3.208558928e-12 2.505608364e-12 1.667808991e-12)
5(5.248851961e-12 3.435390396e-12 2.531455862e-12 1.748987419e-12 1.025111894e-12)
5(3.96095039e-12 2.684787976e-12 1.737139703e-12 1.052166202e-12 5.26860957e-13)
5(3.000314906e-12 1.858504776e-12 1.009710011e-12 5.245736403e-13 2.212185513e-13)
5(2.104095433e-12 1.099763219e-12 4.859586714e-13 2.114417429e-13 7.299861436e-14)
5(1.29106761e-12 5.406028581e-13 1.860131417e-13 6.771260243e-14 1.820493177e-14)
5(6.620622853e-13 2.114905648e-13 5.431859256e-14 1.604440252e-14 3.411002186e-15)
5(2.759266772e-13 6.085556542e-14 1.140790971e-14 2.759744272e-15 4.885293534e-16)
5(9.027441876e-14 1.309525921e-14 1.633407602e-15 3.047579397e-16 3.404916361e-17)
5(2.020142476e-14 1.901301544e-15 1.4204972e-16 2.09565744e-17 2.191500238e-18)
5(2.527534266e-15 1.646025805e-16 7.174617673e-18 1.09481611e-17 6.467415006e-20)
5(2.69031654e-16 1.456013557e-15 -7.204560909e-18 1.360924787e-15 5.54973813e-22)
5(9.174170516e-18 2.895711731e-13 -1.256300575e-15 2.24358383e-13 6.429918497e-24)
5(8.955545113e-20 7.69449667e-11 -2.32833631e-13 4.769986683e-11 7.047700877e-27)
5(6.916907138e-22 3.016890058e-08 2.071712629e-13 1.383473188e-08 2.589327181e-30)
5(7.614605349e-22 8.098127661e-26 0 5.196678393e-34 7.48398571e-34)
)


60
(
5(1.804290447e-09 5.42626445e-10 3.641053121e-10 1.342127498e-10 4.653383892e-11)
5(2.452887376e-09 8.259025747e-10 3.782284718e-10 1.419572342e-10 4.474010293e-11)
5(2.936609958e-09 1.020266546e-09 4.057478721e-10 1.504107959e-10 4.525041541e-11)
5(3.380152197e-09 1.142713845e-09 4.413289407e-10 1.592672893e-10 4.750364301e-11)
5(3.971411477e-09 1.244369033e-09 4.778615105e-10 1.673746359e-10 5.062420591e-11)
5(4.648068209e-09 1.341304518e-09 5.053332433e-10 1.733298972e-10 5.345152082e-11)
5(5.18078348e-09 1.411748297e-09 5.202359626e-10 1.757570755e-10 5.482210102e-11)
5(5.634523759e-09 1.458248299e-09 5.222444884e-10 1.750350815e-10 5.478012631e-11)
5(5.99288336e-09 1.491178461e-09 5.175800966e-10 1.724125841e-10 5.414300653e-11)
5(6.367080151e-09 1.507336719e-09 5.072945403e-10 1.682715339e-10 5.304950696e-11)
5(6.731069579e-09 1.515759356e-09 4.944752105e-10 1.624126358e-10 5.170887036e-11)
5(7.042421786e-09 1.505382398e-09 4.765725781e-10 1.549892678e-10 4.966877489e-11)
5(7.37759196e-09 1.484789131e-09 4.547137754e-10 1.4611701e-10 4.726767226e-11)
5(7.578193316e-09 1.452527017e-09 4.282726943e-10 1.359598913e-10 4.402697587e-11)
5(7.849122735e-09 1.409549574e-09 3.993958679e-10 1.249584391e-10 4.075584255e-11)
5(8.013691753e-09 1.360904703e-09 3.691865681e-10 1.135352965e-10 3.700967874e-11)
5(8.134214987e-09 1.302122355e-09 3.378273225e-10 1.020564371e-10 3.331193049e-11)
5(8.325933908e-09 1.247318657e-09 3.066700903e-10 9.039512424e-11 2.955357302e-11)
5(8.297333465e-09 1.186741214e-09 2.751688745e-10 7.922148468e-11 2.579129545e-11)
5(8.373598198e-09 1.126866586e-09 2.454546882e-10 6.860276756e-11 2.239535142e-11)
5(8.357949527e-09 1.065699467e-09 2.171654115e-10 5.86962956e-11 1.901425778e-11)
5(8.205559248e-09 1.003667818e-09 1.904684573e-10 4.968389983e-11 1.593533942e-11)
5(8.197313498e-09 9.455305115e-10 1.668131619e-10 4.141278825e-11 1.316416624e-11)
5(8.033635975e-09 8.902036957e-10 1.450084126e-10 3.405010933e-11 1.073897799e-11)
5(7.723916943e-09 8.322801879e-10 1.254887716e-10 2.773398255e-11 8.653748276e-12)
5(7.468358356e-09 7.729118946e-10 1.088474544e-10 2.22718595e-11 6.873760723e-12)
5(7.218043186e-09 7.176485393e-10 9.402967813e-11 1.76857091e-11 5.39490218e-12)
5(6.794693544e-09 6.641060774e-10 8.054297767e-11 1.400817582e-11 4.242068294e-12)
5(6.195278123e-09 6.061910991e-10 6.870183057e-11 1.099734322e-11 3.278217527e-12)
5(5.732738423e-09 5.428430952e-10 5.90190388e-11 8.561001009e-12 2.57439351e-12)
5(5.187306091e-09 4.894207848e-10 5.068709078e-11 6.730093059e-12 2.067927998e-12)
5(4.631947521e-09 4.374022614e-10 4.270487755e-11 5.304789372e-12 1.712662796e-12)
5(4.016861615e-09 3.746188514e-10 3.577923114e-11 4.239006148e-12 1.492081401e-12)
5(3.355208946e-09 3.17994353e-10 2.9692496e-11 3.451567028e-12 1.418214945e-12)
5(2.812328797e-09 2.639890469e-10 2.447618054e-11 2.891840396e-12 1.423288408e-12)
5(2.234131232e-09 2.152320738e-10 1.974384813e-11 2.55038166e-12 1.551278326e-12)
5(1.772660443e-09 1.704545931e-10 1.539381998e-11 2.396803058e-12 1.784596995e-12)
5(1.313017947e-09 1.278984389e-10 1.194484746e-11 2.403631074e-12 2.126237243e-12)
5(9.466481597e-10 9.197435799e-11 9.212678508e-12 2.580416594e-12 2.564747332e-12)
5(6.408378111e-10 6.405046616e-11 7.097402199e-12 2.917145233e-12 3.029273764e-12)
5(4.077220927e-10 4.193293143e-11 5.798370028e-12 3.331367759e-12 3.428220059e-12)
5(2.413524965e-10 2.662014488e-11 5.05321173e-12 3.718742906e-12 3.677267339e-12)
5(1.359008637e-10 1.667065074e-11 4.730546754e-12 3.939471671e-12 3.632780752e-12)
5(6.946133265e-11 1.050236007e-11 4.494962604e-12 3.867141563e-12 3.260386137e-12)
5(3.337765466e-11 7.205638195e-12 4.155554252e-12 3.438242343e-12 2.623883281e-12)
5(1.620497973e-11 5.422490305e-12 3.590043775e-12 2.716822188e-12 1.849019058e-12)
5(9.06380686e-12 4.245110375e-12 2.791894192e-12 1.873009434e-12 1.112203825e-12)
5(5.383382875e-12 3.212088067e-12 1.888983428e-12 1.109774487e-12 5.700758152e-13)
5(3.756577791e-12 2.2148717e-12 1.093405997e-12 5.455943536e-13 2.345993328e-13)
5(2.671698991e-12 1.334161362e-12 5.215509583e-13 2.140794704e-13 7.532526427e-14)
5(1.664047608e-12 6.689191421e-13 1.976808855e-13 6.544727188e-14 1.82452821e-14)
5(9.028459718e-13 2.781754099e-13 5.679055801e-14 1.477983785e-14 3.244649554e-15)
5(3.977543458e-13 8.477355414e-14 1.210231532e-14 2.270984787e-15 3.705055645e-16)
5(1.4822463e-13 1.950306919e-14 1.657906287e-15 2.347665718e-16 2.990809522e-17)
5(3.625728165e-14 3.052717985e-15 1.354162192e-16 9.192836074e-18 1.132926073e-18)
5(8.702987825e-15 -3.489617298e-16 2.107667174e-17 -9.36874773e-16 2.072678619e-20)
5(8.498640032e-16 -1.747827823e-13 3.0240267e-15 -2.098770822e-13 9.329683194e-23)
5(7.049016853e-17 -6.287021218e-11 8.226848606e-13 -6.022873381e-11 6.023446314e-25)
5(2.840800051e-18 -3.730477871e-08 3.074517307e-10 -2.675568128e-08 1.059666388e-28)
5(6.969492847e-18 -0.0001440064632 -1.5142493e-15 -8.69177524e-05 7.5032246e-07)
)


60
(
5(2.982147929e-09 8.266514788e-10 4.981380818e-10 1.829317768e-10 6.262876457e-11)
5(4.427909564e-09 1.304225703e-09 5.427209011e-10 1.983585086e-10 6.255368259e-11)
5(5.549287492e-09 1.643643446e-09 5.956366327e-10 2.133396196e-10 6.4679225e-11)
5(6.602969732e-09 1.860730505e-09 6.53373331e-10 2.27496116e-10 6.854633338e-11)
5(7.895804943e-09 2.047718472e-09 7.081694482e-10 2.401959678e-10 7.367361562e-11)
5(9.378922819e-09 2.241286502e-09 7.512789272e-10 2.498946018e-10 7.840248235e-11)
5(1.059940095e-08 2.390797694e-09 7.794938639e-10 2.555033444e-10 8.080738992e-11)
5(1.17812837e-08 2.513388473e-09 7.896105174e-10 2.567931259e-10 8.211380834e-11)
5(1.266357886e-08 2.612797372e-09 7.907254102e-10 2.555444896e-10 8.190577099e-11)
5(1.384568139e-08 2.688835941e-09 7.839676387e-10 2.518077496e-10 8.136303142e-11)
5(1.481965445e-08 2.758814179e-09 7.750116107e-10 2.462399054e-10 8.021296291e-11)
5(1.598874606e-08 2.801853064e-09 7.58102531e-10 2.379585947e-10 7.829686311e-11)
5(1.688134473e-08 2.839360751e-09 7.367766118e-10 2.274797594e-10 7.542652182e-11)
5(1.778078472e-08 2.84426412e-09 7.077393709e-10 2.148711326e-10 7.162801778e-11)
5(1.868878277e-08 2.852986045e-09 6.76002766e-10 2.008458906e-10 6.712948187e-11)
5(1.946593341e-08 2.843146803e-09 6.403935884e-10 1.857411608e-10 6.19900606e-11)
5(2.037289169e-08 2.839937362e-09 6.042985514e-10 1.701789762e-10 5.670181784e-11)
5(2.076651883e-08 2.819327639e-09 5.671803681e-10 1.537438756e-10 5.116254622e-11)
5(2.162305449e-08 2.783283378e-09 5.279345376e-10 1.38023462e-10 4.578010874e-11)
5(2.200901124e-08 2.756444932e-09 4.922629544e-10 1.226508784e-10 4.017278915e-11)
5(2.253662613e-08 2.70771353e-09 4.555031962e-10 1.081613117e-10 3.501372176e-11)
5(2.281701591e-08 2.684624649e-09 4.234817205e-10 9.452492669e-11 3.018114134e-11)
5(2.257319519e-08 2.63642397e-09 3.919650721e-10 8.181576414e-11 2.547701058e-11)
5(2.284253715e-08 2.569127975e-09 3.623980157e-10 7.036149892e-11 2.143284111e-11)
5(2.2781242e-08 2.505576813e-09 3.35592352e-10 5.985698135e-11 1.778976636e-11)
5(2.190497844e-08 2.432737636e-09 3.089192669e-10 5.057494552e-11 1.445968597e-11)
5(2.158160036e-08 2.332502236e-09 2.84734606e-10 4.279578782e-11 1.172618919e-11)
5(2.048637351e-08 2.233787455e-09 2.618648223e-10 3.616537799e-11 9.452565052e-12)
5(1.957624201e-08 2.098732896e-09 2.408088138e-10 3.049548881e-11 7.479269718e-12)
5(1.836032029e-08 1.966228606e-09 2.202961249e-10 2.560173967e-11 6.043058537e-12)
5(1.742235828e-08 1.833815783e-09 2.006215692e-10 2.169055696e-11 4.790187264e-12)
5(1.518326636e-08 1.66124954e-09 1.781515919e-10 1.825582044e-11 3.91088957e-12)
5(1.346788191e-08 1.488942595e-09 1.561110822e-10 1.542812154e-11 3.191993373e-12)
5(1.187489301e-08 1.308714909e-09 1.368054089e-10 1.289896576e-11 2.74852142e-12)
5(1.00298135e-08 1.122696349e-09 1.155924697e-10 1.07095659e-11 2.396726265e-12)
5(8.249969641e-09 9.433127587e-10 9.617543648e-11 8.908861722e-12 2.215933173e-12)
5(6.656419509e-09 7.525401243e-10 7.73907598e-11 7.398409836e-12 2.224206348e-12)
5(5.09809328e-09 5.888639403e-10 6.059858236e-11 6.144799302e-12 2.371877117e-12)
5(3.753757293e-09 4.384690938e-10 4.529771621e-11 5.247538318e-12 2.645983907e-12)
5(2.670664569e-09 3.103032885e-10 3.256936433e-11 4.701014186e-12 3.066389623e-12)
5(1.728907413e-09 2.107451632e-10 2.288070717e-11 4.425643199e-12 3.545524583e-12)
5(1.067507632e-09 1.342196377e-10 1.578207175e-11 4.436594351e-12 3.959234567e-12)
5(6.393110683e-10 8.084220106e-11 1.096399588e-11 4.560080582e-12 4.195070391e-12)
5(3.369768492e-10 4.614364983e-11 8.07407398e-12 4.590870649e-12 4.094819957e-12)
5(1.670150192e-10 2.525488662e-11 6.390351859e-12 4.380758808e-12 3.628202379e-12)
5(7.467602005e-11 1.415206814e-11 5.252512892e-12 3.820174842e-12 2.861419422e-12)
5(3.2475844e-11 8.611969524e-12 4.255042017e-12 2.974133472e-12 1.980012543e-12)
5(1.449504712e-11 5.707111477e-12 3.210876009e-12 2.034431843e-12 1.189028556e-12)
5(7.317669972e-12 3.989607768e-12 2.164267872e-12 1.183461145e-12 5.905352075e-13)
5(4.803203724e-12 2.704143008e-12 1.258062267e-12 5.738841683e-13 2.344873466e-13)
5(3.278184839e-12 1.642361985e-12 6.101698835e-13 2.236707123e-13 7.306565672e-14)
5(2.154007999e-12 8.632287902e-13 2.373617514e-13 6.77301869e-14 1.615246694e-14)
5(1.241288049e-12 3.745556005e-13 7.234687475e-14 1.463054322e-14 2.818939827e-15)