/*--------------------------------*- C++ -*----------------------------------*\
| =========                 |                                                 |
| \\      /  F ield         | OpenFOAM: The Open Source CFD Toolbox           |
|  \\    /   O peration     | Version:  2.3.1                                 |
|   \\  /    A nd           | Web:      www.OpenFOAM.org                      |
|    \\/     M anipulation  |                                                 |
\*---------------------------------------------------------------------------*/
FoamFile
{
    version     2.0;
    format      ascii;
    class       dictionary;
    location    "constant";
    object      GRPSI66;
}
// * * * * * * * * * * * * * * * * * * * * * * * * * * * * * * * * * * * * * //

GRPSI66_table
60
(

60
(
5(-1.015596078e-12 -3.741827172e-14 1.127171728e-13 -2.11835193e-13 2.916548027e-13)
5(-3.339109995e-13 -1.418434777e-14 7.76707212e-14 -5.929936402e-14 3.160213347e-14)
5(5.27337705e-14 3.230724112e-14 -9.156584508e-15 -3.230724112e-14 -3.442060149e-14)
5(4.981544676e-14 2.110152423e-14 -2.490772338e-14 -1.592902493e-14 1.03449986e-14)
5(3.086610266e-14 2.36497459e-14 -7.237758186e-15 -2.087563994e-14 -1.084237436e-14)
5(-1.527717234e-14 -1.200523751e-14 7.586178679e-16 2.569078942e-16 -9.736722627e-15)
5(-1.861173941e-14 -7.410812246e-15 -1.588104398e-15 4.490104747e-15 1.59465332e-14)
5(1.40470541e-15 5.899556407e-15 -3.071762298e-16 -8.117123697e-15 -5.22548753e-15)
5(-3.931988145e-14 -1.761466668e-14 -7.885263319e-16 -3.743201331e-15 -1.818801909e-15)
5(-2.240789619e-14 -9.95700305e-15 -2.399074953e-15 -4.019856622e-15 -7.476732512e-16)
5(-2.760292438e-14 -1.395654013e-14 -2.303475873e-15 -2.62964242e-15 -9.624889718e-16)
5(-9.909142858e-15 -4.309411399e-15 -3.502152968e-16 -9.76495559e-16 3.775953497e-17)
5(-4.433501912e-16 -2.020822749e-16 -1.583409441e-16 -2.268106148e-16 -9.775370004e-17)
5(-3.530838571e-16 -1.732011971e-16 -9.675037853e-17 -1.151450725e-16 -3.010792499e-17)
5(-1.208632359e-16 -6.32434438e-17 -4.004021748e-17 -4.87759095e-17 -2.309503576e-17)
5(2.515030922e-15 -4.635947038e-17 -1.32252364e-15 -5.079615101e-17 -6.429488581e-17)
5(1.818073254e-15 -3.129722144e-17 -9.707777226e-16 -4.444316812e-17 -2.799858814e-17)
5(1.137098749e-15 -2.918916183e-17 -6.036488164e-16 -7.695262201e-18 -3.569964684e-18)
5(4.293844478e-16 -5.550318793e-18 -2.232112476e-16 -3.244092087e-18 -5.507743851e-19)
5(-6.140818574e-18 -3.603515606e-18 -2.210784394e-18 -1.946355559e-18 -5.373549687e-19)
5(-3.390385703e-18 -2.199704196e-18 -1.338346241e-18 -1.209627454e-18 -7.515851159e-19)
5(-2.239277576e-18 -1.20898615e-18 -8.226298705e-19 -8.923377412e-19 -3.181104641e-19)
5(-1.551531673e-18 -8.893047983e-19 -5.104602236e-19 -5.159191744e-19 -2.379958253e-19)
5(-7.735528512e-19 -5.651736147e-19 -3.914515643e-19 -2.97509667e-19 -1.689105835e-19)
5(-4.625328558e-19 -4.39804554e-19 -3.586727645e-19 -2.255414539e-19 -1.508136309e-19)
5(-5.555087227e-20 -3.098910109e-19 -4.170575186e-19 -2.292046018e-19 -1.885253159e-19)
5(5.101984203e-20 -2.294943686e-19 -3.567072641e-19 -2.312362499e-19 -2.590665508e-19)
5(-6.623785407e-20 -1.629167855e-19 -2.656698889e-19 -3.412504127e-19 -4.107567647e-19)
5(3.6722429e-20 -2.328979417e-19 -4.33720515e-19 -5.013781615e-19 -6.378336052e-19)
5(4.239761339e-19 -2.871714139e-19 -8.578414632e-19 -8.578153539e-19 -9.982667431e-19)
5(9.429440099e-19 -3.518686697e-19 -1.485976723e-18 -1.651495024e-18 -1.977717952e-18)
5(1.500014352e-18 -8.329869615e-19 -2.933304915e-18 -3.049146608e-18 -3.397671661e-18)
5(3.132002792e-18 -1.281973591e-18 -5.59930391e-18 -5.221209919e-18 -4.939761991e-18)
5(5.152775394e-18 -2.283021893e-18 -1.105951335e-17 -1.096409003e-17 -9.527972541e-18)
5(4.037782282e-18 -6.58058191e-18 -1.891188992e-17 -1.757550021e-17 -1.452616668e-17)
5(7.399786971e-18 -9.261436302e-18 -3.479866751e-17 -3.238603442e-17 -2.10973934e-17)
5(-1.497911925e-17 -3.432042247e-17 -5.029595227e-17 -3.40011071e-17 -2.107203533e-17)
5(-2.67554054e-17 -6.036608746e-17 -7.748990952e-17 -4.561384671e-17 -3.02246439e-17)
5(-7.716646204e-17 -9.549262535e-17 -1.008805786e-16 -5.490369514e-17 -2.186502178e-17)
5(-1.582329273e-16 -1.465828573e-16 -1.198469815e-16 -6.301808434e-17 -2.127499293e-17)
5(-2.493851458e-16 -2.019471302e-16 -1.124153414e-16 -4.106656364e-17 -1.181155915e-17)
5(-2.862428204e-16 -2.164387074e-16 -9.592831432e-17 -2.57889298e-17 -6.355825241e-18)
5(-3.178610173e-16 -2.088239054e-16 -6.118661068e-17 -1.129321392e-17 2.645281673e-44)
5(-2.734935822e-16 -1.637073993e-16 -3.932639722e-17 -1.228804714e-17 1.554838848e-19)
5(-2.049025894e-16 -1.151291354e-16 -1.631329324e-17 -3.629985932e-18 1.093321751e-20)
5(-1.019112443e-16 -5.720313793e-17 -6.531069234e-18 -2.835534528e-19 3.481695482e-42)
5(-4.124210654e-17 -2.209510051e-17 -1.506894687e-18 -6.798672863e-20 -7.027857076e-20)
5(-2.007866022e-17 -1.004753522e-17 -4.169358506e-20 -3.348847978e-20 7.030764019e-41)
5(-2.835414069e-18 -1.416782535e-18 -6.731517191e-21 -7.656016588e-21 2.987639145e-40)
5(-3.836857896e-19 -1.920047318e-19 -1.61836986e-22 6.70959986e-40 1.164976001e-39)
5(-5.019813649e-20 -2.509906825e-20 3.734674542e-40 2.513035104e-39 4.34591118e-39)
5(-5.904719157e-21 -2.952359579e-21 1.368347077e-39 9.097775888e-39 1.571302405e-38)
5(-2.463505881e-24 -1.231752941e-24 4.80979464e-39 3.126461864e-38 5.383105933e-38)
5(3.677176896e-40 1.795928332e-39 1.60222944e-38 1.040485963e-37 1.792767428e-37)
5(1.252059671e-39 6.038903451e-39 5.223207105e-38 3.301098659e-37 5.665813369e-37)
5(-7.466613701e-40 1.717367133e-38 1.606803614e-37 1.002088239e-36 1.71790976e-36)
5(-8.94864543e-39 5.05581414e-38 4.757308568e-37 2.822101747e-36 4.802806709e-36)
5(8.952724308e-38 1.717570663e-37 1.298596204e-36 7.553249592e-36 1.276329367e-35)
5(2.819205279e-37 9.304556584e-37 2.11310191e-36 1.839517008e-35 3.414312713e-35)
5(6.5842679e-37 -3.962849566e-38 2.580455323e-35 1.128138774e-34 1.732809647e-34)
)


60
(
5(-3.788314435e-12 -6.884391747e-13 5.940915206e-14 -1.104133439e-12 8.435090271e-14)
5(-1.321480134e-12 -5.230038941e-13 -2.39671062e-13 -5.178408504e-13 -2.808672307e-13)
5(-4.558665567e-13 -3.609487197e-13 -3.076203016e-13 -3.520546781e-13 -3.548996356e-13)
5(-2.601884459e-13 -2.773655901e-13 -2.874525775e-13 -3.050548909e-13 -3.297473612e-13)
5(-3.81569429e-13 -2.678242763e-13 -2.486626723e-13 -3.062061092e-13 -2.691659974e-13)
5(-4.788295035e-13 -2.596015248e-13 -2.014002441e-13 -2.896039856e-13 -2.167810292e-13)
5(-5.047003061e-13 -2.432228832e-13 -1.762828868e-13 -2.648310393e-13 -1.588417655e-13)
5(-4.844720536e-13 -2.50239977e-13 -1.620837908e-13 -2.129995351e-13 -1.178393889e-13)
5(-4.407454807e-13 -2.426100733e-13 -1.423658181e-13 -1.621712595e-13 -8.408554856e-14)
5(-3.463122127e-13 -1.924873078e-13 -1.04459339e-13 -1.10591658e-13 -5.092704083e-14)
5(-2.705194484e-13 -1.485439205e-13 -6.216886935e-14 -6.243951446e-14 -2.710968287e-14)
5(-1.508143683e-13 -8.554081592e-14 -3.356475153e-14 -3.033200952e-14 -1.380177954e-14)
5(-8.238533699e-14 -4.785929713e-14 -1.786644939e-14 -1.469577201e-14 -6.99190251e-15)
5(-4.496440782e-14 -2.674821786e-14 -1.002846781e-14 -7.598771537e-15 -3.672635355e-15)
5(-2.594885835e-14 -1.572855512e-14 -5.902972362e-15 -4.167918976e-15 -2.038145117e-15)
5(-1.551603002e-14 -9.540897098e-15 -3.573993275e-15 -2.376096985e-15 -1.169971599e-15)
5(-9.882715892e-15 -6.121348685e-15 -2.233863345e-15 -1.398125846e-15 -6.885064795e-16)
5(-6.522589918e-15 -4.050456584e-15 -1.429791996e-15 -8.473034312e-16 -4.133461215e-16)
5(-4.346979521e-15 -2.716983999e-15 -9.426705528e-16 -5.262052933e-16 -2.54057959e-16)
5(-2.99956376e-15 -1.875447736e-15 -6.294842118e-16 -3.328090581e-16 -1.579814047e-16)
5(-2.086469329e-15 -1.304046295e-15 -4.232122576e-16 -2.118388487e-16 -9.887644297e-17)
5(-1.495821696e-15 -9.288599607e-16 -2.858244659e-16 -1.355428793e-16 -6.133505222e-17)
5(-1.096362605e-15 -6.747836246e-16 -1.94693057e-16 -8.73431955e-17 -3.850492076e-17)
5(-7.636650534e-16 -4.693030131e-16 -1.312175335e-16 -5.589399085e-17 -2.429388739e-17)
5(-5.465636123e-16 -3.338425156e-16 -8.880429431e-17 -3.603641505e-17 -1.558566044e-17)
5(-3.874926795e-16 -2.351321654e-16 -5.928411478e-17 -2.305161518e-17 -1.030665211e-17)
5(-2.712025537e-16 -1.635562164e-16 -3.921351715e-17 -1.493709232e-17 -7.357029528e-18)
5(-1.9178626e-16 -1.142690183e-16 -2.528586022e-17 -9.999781404e-18 -6.179619069e-18)
5(-1.304626019e-16 -7.692942929e-17 -1.55806608e-17 -7.106794042e-18 -6.448523126e-18)
5(-8.275015865e-17 -4.828796073e-17 -8.440265344e-18 -5.643065522e-18 -8.231363165e-18)
5(-4.38694707e-17 -2.479805485e-17 -2.17237105e-18 -5.684975212e-18 -1.275184733e-17)
5(-7.621660649e-18 -2.650855155e-18 4.239783085e-18 -7.651998477e-18 -2.146361278e-17)
5(3.242228824e-17 2.253304171e-17 1.159149105e-17 -1.335150517e-17 -3.724219725e-17)
5(8.373542046e-17 5.465125344e-17 1.858915046e-17 -2.894984014e-17 -6.951089479e-17)
5(1.511316721e-16 9.552563355e-17 1.944579929e-17 -6.31788509e-17 -1.253297054e-16)
5(2.342054245e-16 1.419446983e-16 3.854991586e-18 -1.312887302e-16 -2.206034715e-16)
5(3.21055667e-16 1.796653241e-16 -4.921978447e-17 -2.516194649e-16 -3.665243796e-16)
5(3.902486761e-16 1.835482213e-16 -1.675702457e-16 -4.404644732e-16 -5.689406886e-16)
5(3.80155579e-16 1.077038549e-16 -3.74991209e-16 -7.052655462e-16 -8.252965436e-16)
5(2.426246847e-16 -9.416773506e-17 -6.891858965e-16 -1.026306144e-15 -1.10520065e-15)
5(-9.980483882e-17 -4.541279454e-16 -1.067490232e-15 -1.327593777e-15 -1.328658141e-15)
5(-6.057896117e-16 -9.234948472e-16 -1.443502994e-15 -1.514386956e-15 -1.382968006e-15)
5(-1.240404217e-15 -1.41682498e-15 -1.682607364e-15 -1.485404844e-15 -1.198840704e-15)
5(-1.812523916e-15 -1.764924571e-15 -1.672304443e-15 -1.237832033e-15 -8.48380406e-16)
5(-2.066854439e-15 -1.826068309e-15 -1.410244462e-15 -8.564897984e-16 -4.777728525e-16)
5(-1.926825444e-15 -1.572913579e-15 -9.845407826e-16 -4.799876212e-16 -2.098953907e-16)
5(-1.471254338e-15 -1.118684611e-15 -5.570637026e-16 -2.091302976e-16 -7.024807421e-17)
5(-8.945343024e-16 -6.34939224e-16 -2.477131088e-16 -6.864133957e-17 -1.720060714e-17)
5(-4.299353032e-16 -2.835626802e-16 -8.33789687e-17 -1.626806847e-17 -2.968256876e-18)
5(-1.49596038e-16 -9.21817721e-17 -1.994686348e-17 -2.735630111e-18 -3.450395109e-19)
5(-3.742239763e-17 -2.164065862e-17 -3.212946298e-18 -2.981372549e-19 -2.930152198e-20)
5(-5.60607193e-18 -3.111360182e-18 -3.293508694e-19 -2.193825876e-20 -1.823212884e-21)
5(-5.932076928e-19 -3.164015466e-19 -2.08795977e-20 -1.124334461e-21 -8.487395083e-23)
5(-2.676250794e-20 -1.405048863e-20 -7.01851772e-22 -3.402738725e-23 -2.820555587e-24)
5(-5.747355111e-22 -3.0198601e-22 -1.522797295e-23 -6.778697726e-25 -1.363025721e-25)
5(-2.956725549e-23 -2.203987018e-24 2.268049463e-23 -1.215769813e-26 -2.02260232e-23)
5(-2.293784954e-21 -3.81223813e-25 3.789534635e-21 3.735356364e-25 -5.285299692e-21)
5(1.070601261e-19 -2.368412036e-24 5.327337735e-19 2.368394818e-24 -1.172527673e-18)
5(-3.550923949e-18 -5.005825224e-21 9.390049876e-19 5.005825224e-21 1.672913974e-18)
5(7.293836122e-36 -9.736772364e-37 6.851729638e-35 3.043292348e-34 4.623826863e-34)
)


60
(
5(-1.116024053e-11 -3.108246511e-12 -5.409867992e-13 -3.525646988e-12 -1.02557287e-12)
5(-6.157582745e-12 -3.31218872e-12 -1.730576499e-12 -2.280377807e-12 -1.566397311e-12)
5(-3.639586242e-12 -2.930361717e-12 -2.162221126e-12 -1.897804799e-12 -1.692304539e-12)
5(-3.187491996e-12 -2.729070553e-12 -2.161870813e-12 -1.846291024e-12 -1.639489531e-12)
5(-3.470756357e-12 -2.654066921e-12 -2.041513257e-12 -1.888918746e-12 -1.532188464e-12)
5(-4.059518162e-12 -2.751609416e-12 -1.908776124e-12 -1.871056807e-12 -1.368262036e-12)
5(-4.209151735e-12 -2.738140066e-12 -1.763079351e-12 -1.714560053e-12 -1.170089801e-12)
5(-4.059068635e-12 -2.605242809e-12 -1.557062441e-12 -1.45342084e-12 -9.441337797e-13)
5(-3.585938808e-12 -2.287432856e-12 -1.264366794e-12 -1.101778955e-12 -6.637512255e-13)
5(-3.035552421e-12 -1.875744991e-12 -8.963090308e-13 -7.380728663e-13 -3.994652315e-13)
5(-2.272247528e-12 -1.36214956e-12 -5.284518934e-13 -3.997480806e-13 -1.946439659e-13)
5(-1.3358257e-12 -8.021496369e-13 -2.799335869e-13 -1.907506448e-13 -9.010768978e-14)
5(-7.296005971e-13 -4.4211929e-13 -1.467957301e-13 -9.101798571e-14 -4.308249421e-14)
5(-4.179462038e-13 -2.545481002e-13 -8.138634665e-14 -4.691211746e-14 -2.220153817e-14)
5(-2.445294155e-13 -1.503548816e-13 -4.769769621e-14 -2.573208313e-14 -1.224912145e-14)
5(-1.543586504e-13 -9.493005749e-14 -2.907867502e-14 -1.480931555e-14 -6.962745595e-15)
5(-9.883733406e-14 -6.103117597e-14 -1.837715407e-14 -8.804950161e-15 -4.080610075e-15)
5(-6.659563157e-14 -4.097111054e-14 -1.184923213e-14 -5.400143425e-15 -2.448412089e-15)
5(-4.623274524e-14 -2.829227123e-14 -7.788666274e-15 -3.366669026e-15 -1.507802717e-15)
5(-3.242751073e-14 -1.974843319e-14 -5.202290824e-15 -2.139073623e-15 -9.429212468e-16)
5(-2.419636786e-14 -1.453950943e-14 -3.517486386e-15 -1.375020295e-15 -5.977188083e-16)
5(-1.702003342e-14 -1.019870507e-14 -2.390813099e-15 -8.913960283e-16 -3.785425741e-16)
5(-1.280477735e-14 -7.578960952e-15 -1.635198336e-15 -5.782592998e-16 -2.392664816e-16)
5(-9.301272358e-15 -5.469513955e-15 -1.118076897e-15 -3.754358652e-16 -1.524734886e-16)
5(-7.089798865e-15 -4.114789211e-15 -7.642262884e-16 -2.42994329e-16 -9.731563888e-17)
5(-5.208995919e-15 -2.998507297e-15 -5.201971137e-16 -1.571035603e-16 -6.183156927e-17)
5(-3.88852293e-15 -2.21610972e-15 -3.52546295e-16 -1.007480636e-16 -4.010004618e-17)
5(-3.003516942e-15 -1.685423452e-15 -2.347392199e-16 -6.431766932e-17 -2.64868611e-17)
5(-2.168344164e-15 -1.207990924e-15 -1.551706995e-16 -4.066164514e-17 -1.861957552e-17)
5(-1.616745273e-15 -8.900308336e-16 -9.914522874e-17 -2.428417111e-17 -1.359427922e-17)
5(-1.171600791e-15 -6.355245793e-16 -5.639286201e-17 -1.292213453e-17 -1.250691319e-17)
5(-8.312505781e-16 -4.408415778e-16 -2.158774005e-17 -2.791400008e-18 -1.283989742e-17)
5(-5.418041972e-16 -2.732266893e-16 1.306636144e-17 5.610804054e-18 -1.956029619e-17)
5(-3.008537701e-16 -1.260168423e-16 5.265679351e-17 1.207104863e-17 -3.23514042e-17)
5(-7.062160643e-17 2.19448586e-17 9.808559278e-17 5.34585295e-18 -7.096815604e-17)
5(1.393029813e-16 1.663341248e-16 1.433862098e-16 -2.658205696e-17 -1.465712651e-16)
5(3.860697674e-16 3.31764271e-16 1.692738655e-16 -1.146098354e-16 -2.90308627e-16)
5(6.423183393e-16 4.871721133e-16 1.373593874e-16 -2.972205402e-16 -5.371339679e-16)
5(8.34550004e-16 5.652108023e-16 -7.602985088e-18 -6.139047611e-16 -9.167319514e-16)
5(9.119066476e-16 5.139585479e-16 -3.15346467e-16 -1.084485811e-15 -1.422268239e-15)
5(7.613857054e-16 2.443166332e-16 -8.111263995e-16 -1.671063379e-15 -1.992626397e-15)
5(2.995729636e-16 -2.940650763e-16 -1.453883864e-15 -2.230682978e-15 -2.441301343e-15)
5(-4.756946918e-16 -1.040708528e-15 -2.095323792e-15 -2.570848234e-15 -2.556771247e-15)
5(-1.391619366e-15 -1.806466543e-15 -2.529065697e-15 -2.549158614e-15 -2.261499554e-15)
5(-2.235975095e-15 -2.378518552e-15 -2.565844756e-15 -2.139778332e-15 -1.668929159e-15)
5(-2.661670805e-15 -2.519090612e-15 -2.178533634e-15 -1.497405136e-15 -1.014253421e-15)
5(-2.517859248e-15 -2.191036066e-15 -1.535127788e-15 -8.46942706e-16 -4.878427203e-16)
5(-1.93841378e-15 -1.552379726e-15 -8.710271724e-16 -3.794738442e-16 -1.832390144e-16)
5(-1.190068851e-15 -8.793569245e-16 -3.875489171e-16 -1.290351261e-16 -5.16174162e-17)
5(-5.63740256e-16 -3.845017298e-16 -1.298708474e-16 -3.230529683e-17 -1.013210228e-17)
5(-1.999989656e-16 -1.259027464e-16 -3.082530307e-17 -5.630385176e-18 -1.416691427e-18)
5(-4.66402994e-17 -2.757456885e-17 -4.821946079e-18 -6.297032886e-19 -1.243527111e-19)
5(-6.634251622e-18 -3.739653348e-18 -4.627593108e-19 -4.388898502e-20 -7.314423562e-21)
5(-4.743511422e-19 -2.599686172e-19 -2.430590276e-20 -1.637029044e-21 -2.483447989e-22)
5(-1.863013848e-20 -9.908124144e-21 -6.284762049e-22 -3.557232122e-23 -3.020388349e-25)
5(-2.735518007e-21 -1.480162995e-22 6.29878194e-22 -3.510968212e-24 1.172707084e-21)
5(-5.634552693e-19 7.657777862e-22 1.451369037e-19 -7.664108386e-22 2.731801959e-19)
5(-1.635125937e-16 1.763065559e-19 4.440640179e-17 -1.763065564e-19 7.469979011e-17)
5(-6.669308913e-14 -2.485961705e-19 2.094418986e-14 2.485961705e-19 2.480470941e-14)
5(-3.019210099e-34 -1.968116744e-34 2.829018166e-34 1.0409631e-33 1.424420228e-33)
)


60
(
5(-2.691084696e-11 -9.427983432e-12 -2.555651561e-12 -8.536590595e-12 -3.906997977e-12)
5(-1.959722008e-11 -1.186896303e-11 -6.346469929e-12 -6.738068268e-12 -4.923902661e-12)
5(-1.548669406e-11 -1.217048724e-11 -8.042688202e-12 -6.26591117e-12 -5.300726354e-12)
5(-1.467661009e-11 -1.196956818e-11 -8.323325674e-12 -6.366684075e-12 -5.349243069e-12)
5(-1.657826106e-11 -1.241744732e-11 -8.189114809e-12 -6.630984434e-12 -5.140372843e-12)
5(-1.867770952e-11 -1.306586604e-11 -7.978302492e-12 -6.621402397e-12 -4.740222372e-12)
5(-1.957204508e-11 -1.31640925e-11 -7.407998238e-12 -6.126092225e-12 -4.192327891e-12)
5(-1.875126253e-11 -1.24970516e-11 -6.619812842e-12 -5.229664256e-12 -3.462543491e-12)
5(-1.755603888e-11 -1.148594616e-11 -5.484284379e-12 -4.031232492e-12 -2.509749675e-12)
5(-1.500245684e-11 -9.430860386e-12 -3.865554658e-12 -2.701433642e-12 -1.531021897e-12)
5(-1.066182643e-11 -6.527168013e-12 -2.320500234e-12 -1.500423849e-12 -7.523568242e-13)
5(-6.658277752e-12 -4.001910233e-12 -1.214367957e-12 -7.091237598e-13 -3.350543197e-13)
5(-3.75000685e-12 -2.249997741e-12 -6.279680488e-13 -3.30596949e-13 -1.552464321e-13)
5(-2.144371002e-12 -1.288367803e-12 -3.445879663e-13 -1.6739244e-13 -7.797355143e-14)
5(-1.258346745e-12 -7.599702364e-13 -2.007803342e-13 -9.122848553e-14 -4.249003013e-14)
5(-8.038730136e-13 -4.836801793e-13 -1.219019082e-13 -5.217741165e-14 -2.4038352e-14)
5(-5.387186769e-13 -3.218442723e-13 -7.645465011e-14 -3.101071403e-14 -1.408199555e-14)
5(-3.632643448e-13 -2.162011642e-13 -4.930916316e-14 -1.897407703e-14 -8.467811397e-15)
5(-2.595415198e-13 -1.529748551e-13 -3.247616591e-14 -1.188069072e-14 -5.21724013e-15)
5(-1.874826782e-13 -1.096781742e-13 -2.188698265e-14 -7.591617465e-15 -3.282939943e-15)
5(-1.387627419e-13 -8.049495307e-14 -1.496797323e-14 -4.895957533e-15 -2.083132807e-15)
5(-1.040644968e-13 -5.97965866e-14 -1.030024684e-14 -3.204493337e-15 -1.337169411e-15)
5(-7.968066437e-14 -4.535409064e-14 -7.194548413e-15 -2.108874975e-15 -8.561700407e-16)
5(-6.047006529e-14 -3.41889964e-14 -5.071438366e-15 -1.393600927e-15 -5.522526344e-16)
5(-4.662036714e-14 -2.616387965e-14 -3.594499617e-15 -9.205086707e-16 -3.594102609e-16)
5(-3.682476022e-14 -2.046864038e-14 -2.54666238e-15 -6.069767402e-16 -2.331492601e-16)
5(-2.884496848e-14 -1.591746954e-14 -1.819161769e-15 -3.994432562e-16 -1.505335759e-16)
5(-2.319506982e-14 -1.26815008e-14 -1.298165583e-15 -2.636039909e-16 -9.880859653e-17)
5(-1.798504037e-14 -9.778835939e-15 -9.262770282e-16 -1.723307712e-16 -6.473899695e-17)
5(-1.395991522e-14 -7.552039635e-15 -6.617431508e-16 -1.111791612e-16 -4.30360751e-17)
5(-1.092306463e-14 -5.872309028e-15 -4.651067525e-16 -6.752813568e-17 -2.639619343e-17)
5(-8.374523221e-15 -4.476114635e-15 -3.154649351e-16 -3.310728281e-17 -1.299074514e-17)
5(-6.228618959e-15 -3.303775495e-15 -1.887736396e-16 1.274562592e-18 1.164372227e-18)
5(-4.644777495e-15 -2.422010653e-15 -6.920982036e-17 3.646601333e-17 1.210785668e-17)
5(-3.17372444e-15 -1.598464613e-15 5.399253796e-17 7.751147989e-17 2.383309755e-17)
5(-2.034561292e-15 -9.305031523e-16 1.915842756e-16 1.016530619e-16 -6.307439854e-18)
5(-1.067871285e-15 -3.373368527e-16 3.309663788e-16 9.458877078e-17 -7.955763622e-17)
5(-1.882288387e-16 2.109430667e-16 4.410912729e-16 8.214995883e-18 -2.55637582e-16)
5(5.134906788e-16 6.494196422e-16 4.641614142e-16 -2.343935661e-16 -6.11761355e-16)
5(1.073646513e-15 9.487930615e-16 3.126861828e-16 -6.93284996e-16 -1.188002747e-15)
5(1.376973015e-15 9.859903651e-16 -9.891757959e-17 -1.393994562e-15 -1.99514625e-15)
5(1.274061655e-15 6.524889533e-16 -8.018139655e-16 -2.223539164e-15 -2.812534145e-15)
5(6.824108294e-16 -8.656061664e-17 -1.713935762e-15 -2.992493964e-15 -3.412648468e-15)
5(-3.495917238e-16 -1.121560046e-15 -2.615642175e-15 -3.423021533e-15 -3.508287085e-15)
5(-1.629917905e-15 -2.213214313e-15 -3.197645506e-15 -3.338593895e-15 -3.078407499e-15)
5(-2.75500845e-15 -2.999223966e-15 -3.232073171e-15 -2.752841544e-15 -2.284976227e-15)
5(-3.329053243e-15 -3.202924301e-15 -2.715574997e-15 -1.874516933e-15 -1.394679231e-15)
5(-3.212708421e-15 -2.782793312e-15 -1.878736666e-15 -1.043071207e-15 -6.815472838e-16)
5(-2.485137003e-15 -1.960485014e-15 -1.044246602e-15 -4.540802462e-16 -2.555003137e-16)
5(-1.539901002e-15 -1.110347402e-15 -4.530353552e-16 -1.476947388e-16 -7.011256856e-17)
5(-7.460011017e-16 -4.902567283e-16 -1.454824206e-16 -3.524477572e-17 -1.403706509e-17)
5(-2.618816273e-16 -1.580369915e-16 -3.193769077e-17 -5.741423284e-18 -1.799820724e-18)
5(-5.856495344e-17 -3.337244274e-17 -4.592287096e-18 -5.761765246e-19 -1.477108908e-19)
5(-8.093287032e-18 -4.396564478e-18 -3.773802206e-19 -3.102058314e-20 -7.122649453e-21)
5(-6.000360484e-19 -3.144353524e-19 -1.507506269e-20 -7.868427318e-22 -2.582164222e-22)
5(5.621963946e-22 -8.295962875e-21 -2.163227104e-21 8.647831427e-23 -1.265471131e-20)
5(3.289435461e-18 -1.776803253e-20 -4.420385517e-19 1.773238919e-20 -2.405429645e-18)
5(9.177086611e-16 -4.392725681e-18 -1.525807309e-16 4.392725476e-18 -6.125471998e-16)
5(4.338968321e-13 -1.581995566e-15 -9.238367661e-14 1.581995566e-15 -2.491294789e-13)
5(4.307795637e-11 1.966370032e-19 -2.137961715e-11 -1.966370032e-19 -3.187220615e-13)
)


60
(
5(-5.811623894e-11 -2.382240875e-11 -7.338415804e-12 -1.731386727e-11 -9.479481481e-12)
5(-5.295059635e-11 -3.355729891e-11 -1.678285508e-11 -1.547868228e-11 -1.155565587e-11)
5(-4.973725296e-11 -3.731943667e-11 -2.161147687e-11 -1.543472109e-11 -1.254810884e-11)
5(-5.080239587e-11 -3.881916401e-11 -2.311557168e-11 -1.614828725e-11 -1.290136331e-11)
5(-5.739868417e-11 -4.15469782e-11 -2.338964178e-11 -1.688662155e-11 -1.268923178e-11)
5(-6.525293378e-11 -4.469991147e-11 -2.299355546e-11 -1.688941942e-11 -1.193861708e-11)
5(-6.967078241e-11 -4.630736274e-11 -2.185349163e-11 -1.576216176e-11 -1.076128334e-11)
5(-6.830483297e-11 -4.478114465e-11 -1.978062707e-11 -1.365822621e-11 -9.012654618e-12)
5(-6.305460001e-11 -4.069497195e-11 -1.65494407e-11 -1.07553556e-11 -6.747173676e-12)
5(-5.419871835e-11 -3.415924131e-11 -1.229951447e-11 -7.350856419e-12 -4.222448167e-12)
5(-4.019241401e-11 -2.449495749e-11 -7.481852702e-12 -4.17545801e-12 -2.184711587e-12)
5(-2.49422241e-11 -1.494434957e-11 -3.97914835e-12 -1.984968632e-12 -9.58115612e-13)
5(-1.431079519e-11 -8.480280354e-12 -2.023374046e-12 -9.127092815e-13 -4.284359865e-13)
5(-8.522730243e-12 -5.002596338e-12 -1.089888206e-12 -4.542625725e-13 -2.112111671e-13)
5(-5.076819322e-12 -2.979353636e-12 -6.30189523e-13 -2.457616714e-13 -1.130322465e-13)
5(-3.238881009e-12 -1.892852103e-12 -3.825537876e-13 -1.409674952e-13 -6.36506118e-14)
5(-2.195472179e-12 -1.274866697e-12 -2.420891432e-13 -8.371552803e-14 -3.751398562e-14)
5(-1.525891733e-12 -8.804787013e-13 -1.574503338e-13 -5.126539796e-14 -2.269579741e-14)
5(-1.098664378e-12 -6.292438132e-13 -1.052550833e-13 -3.235699435e-14 -1.402707078e-14)
5(-8.133249021e-13 -4.625236623e-13 -7.223399368e-14 -2.079720142e-14 -8.848838078e-15)
5(-6.137865634e-13 -3.467433902e-13 -5.062040988e-14 -1.361223969e-14 -5.683876543e-15)
5(-4.696196069e-13 -2.63607496e-13 -3.599363005e-14 -9.037799927e-15 -3.683724758e-15)
5(-3.697533703e-13 -2.061361393e-13 -2.614161239e-14 -6.088843172e-15 -2.413369748e-15)
5(-2.969648725e-13 -1.643677844e-13 -1.922255198e-14 -4.134925823e-15 -1.595443863e-15)
5(-2.330572082e-13 -1.285731808e-13 -1.433735187e-14 -2.819652111e-15 -1.053753835e-15)
5(-1.911010217e-13 -1.048698389e-13 -1.091019559e-14 -1.939465839e-15 -6.971965962e-16)
5(-1.516200033e-13 -8.290105002e-14 -8.207290426e-15 -1.349021667e-15 -4.655592795e-16)
5(-1.238474448e-13 -6.744454981e-14 -6.308832228e-15 -9.441901003e-16 -3.123705867e-16)
5(-1.001275361e-13 -5.442450731e-14 -4.917481313e-15 -6.616639387e-16 -2.098437849e-16)
5(-8.308712897e-14 -4.495413593e-14 -3.806317768e-15 -4.661552814e-16 -1.408179291e-16)
5(-6.666268447e-14 -3.59602241e-14 -2.91224426e-15 -3.289010212e-16 -9.107724504e-17)
5(-5.208242858e-14 -2.808347258e-14 -2.239043227e-15 -2.206912694e-16 -4.781267198e-17)
5(-4.060922363e-14 -2.185293331e-14 -1.671655239e-15 -1.292791533e-16 -1.189082956e-17)
5(-3.122216877e-14 -1.676575707e-14 -1.208707373e-15 -3.708968387e-17 3.38900093e-17)
5(-2.397197589e-14 -1.278182781e-14 -7.777851829e-16 6.092218299e-17 8.573499925e-17)
5(-1.767598597e-14 -9.301564489e-15 -3.658390607e-16 1.645102305e-16 1.33555576e-16)
5(-1.211044509e-14 -6.220511857e-15 1.503456379e-17 2.614820931e-16 1.623164315e-16)
5(-7.787536748e-15 -3.762470239e-15 3.855775899e-16 3.149102189e-16 1.212615275e-16)
5(-4.301434726e-15 -1.736878581e-15 6.968982699e-16 2.370025465e-16 -9.21138837e-17)
5(-1.696240853e-15 -2.289651446e-16 8.409972808e-16 -6.745180427e-17 -5.785876064e-16)
5(1.18354626e-16 7.559996928e-16 7.090830286e-16 -6.908809381e-16 -1.406283174e-15)
5(1.212524394e-15 1.178189247e-15 1.848718725e-16 -1.610611769e-15 -2.447113182e-15)
5(1.459891744e-15 9.137776603e-16 -7.635541282e-16 -2.702734116e-15 -3.510696398e-15)
5(8.713033721e-16 9.809873948e-18 -1.983736517e-15 -3.656779811e-15 -4.197770212e-15)
5(-3.915429974e-16 -1.358933911e-15 -3.160536165e-15 -4.129739989e-15 -4.264732473e-15)
5(-1.98148215e-15 -2.771275698e-15 -3.902521752e-15 -3.962379192e-15 -3.680784128e-15)
5(-3.470573762e-15 -3.824745167e-15 -3.931609568e-15 -3.190355454e-15 -2.696408343e-15)
5(-4.289737071e-15 -4.127566871e-15 -3.29581972e-15 -2.122987026e-15 -1.619731284e-15)
5(-4.205615921e-15 -3.612962711e-15 -2.268412166e-15 -1.145988429e-15 -7.754620265e-16)
5(-3.360595184e-15 -2.594967284e-15 -1.255950957e-15 -4.860527599e-16 -2.8954299e-16)
5(-2.157155441e-15 -1.503892125e-15 -5.40421618e-16 -1.539828249e-16 -7.775122225e-17)
5(-1.095719894e-15 -6.902845663e-16 -1.694468427e-16 -3.41120722e-17 -1.417969767e-17)
5(-4.177181041e-16 -2.430763714e-16 -3.84074878e-17 -5.032116935e-18 -1.683896915e-18)
5(-1.06876794e-16 -5.868421089e-17 -5.613441874e-18 -4.226492383e-19 -1.100425665e-19)
5(-1.5089149e-17 -7.952491931e-18 -4.245699043e-19 -1.849764279e-20 -3.690337551e-21)
5(-1.583731601e-18 -8.174095334e-19 -1.808358948e-20 -2.735866015e-22 -1.546746013e-20)
5(3.743535166e-18 -3.729145659e-20 -7.525495049e-19 7.545990863e-21 -2.297927088e-18)
5(9.235474794e-16 -1.271464435e-18 -2.402885028e-16 1.271185983e-18 -4.429710307e-16)
5(3.364239631e-13 9.36428106e-19 -1.08218382e-13 -9.364296919e-19 -1.199871991e-13)
5(-2.782301326e-24 -1.391362573e-24 -2.119073488e-28 6.182298871e-33 6.087308272e-33)
)


60
(
5(-1.166470341e-10 -5.319115151e-11 -1.660394206e-11 -3.117645325e-11 -1.888029133e-11)
5(-1.288395408e-10 -8.249363366e-11 -3.710090786e-11 -3.042282532e-11 -2.279156142e-11)
5(-1.360499228e-10 -9.754339059e-11 -4.87668235e-11 -3.176817575e-11 -2.503956287e-11)
5(-1.472365207e-10 -1.058225445e-10 -5.297181826e-11 -3.380360237e-11 -2.607213646e-11)
5(-1.71053076e-10 -1.175457854e-10 -5.458903753e-11 -3.554733014e-11 -2.595508002e-11)
5(-1.976573833e-10 -1.308715012e-10 -5.531884383e-11 -3.564888486e-11 -2.474570107e-11)
5(-2.082367868e-10 -1.351929441e-10 -5.349897401e-11 -3.37432186e-11 -2.26375905e-11)
5(-2.095568985e-10 -1.338716275e-10 -4.91045131e-11 -2.966696244e-11 -1.931125511e-11)
5(-1.95966638e-10 -1.234058931e-10 -4.189372587e-11 -2.388263198e-11 -1.48229604e-11)
5(-1.717712948e-10 -1.055142466e-10 -3.151125777e-11 -1.677756899e-11 -9.789820876e-12)
5(-1.27879112e-10 -7.698440876e-11 -2.023801451e-11 -9.795955226e-12 -5.205586929e-12)
5(-8.445425965e-11 -4.961603079e-11 -1.099119159e-11 -4.765154152e-12 -2.325727046e-12)
5(-4.828978647e-11 -2.808060672e-11 -5.603125805e-12 -2.177466369e-12 -1.020108089e-12)
5(-2.832115551e-11 -1.635046313e-11 -3.010477969e-12 -1.065676726e-12 -4.901682588e-13)
5(-1.715764666e-11 -9.879156671e-12 -1.743693218e-12 -5.737323193e-13 -2.607448827e-13)
5(-1.116834773e-11 -6.399028887e-12 -1.070560217e-12 -3.290219608e-13 -1.466335352e-13)
5(-7.634950316e-12 -4.347172995e-12 -6.837081061e-13 -1.972533786e-13 -8.648621901e-14)
5(-5.525364434e-12 -3.121581202e-12 -4.551973738e-13 -1.224408352e-13 -5.228489303e-14)
5(-3.979826819e-12 -2.239989673e-12 -3.1187477e-13 -7.813958576e-14 -3.268215768e-14)
5(-2.967268014e-12 -1.663056012e-12 -2.202495692e-13 -5.120132143e-14 -2.07475144e-14)
5(-2.282367633e-12 -1.273014504e-12 -1.593901962e-13 -3.431698108e-14 -1.351494525e-14)
5(-1.769476152e-12 -9.835522555e-13 -1.177835026e-13 -2.345747556e-14 -8.976304485e-15)
5(-1.435498839e-12 -7.935468228e-13 -8.918720602e-14 -1.638785686e-14 -5.99610865e-15)
5(-1.151727813e-12 -6.352166088e-13 -6.89482115e-14 -1.161681833e-14 -4.04261837e-15)
5(-9.300195088e-13 -5.119965964e-13 -5.396578842e-14 -8.359384689e-15 -2.760876595e-15)
5(-7.705494574e-13 -4.227699773e-13 -4.268402844e-14 -6.137065605e-15 -1.896571508e-15)
5(-6.492033268e-13 -3.549877374e-13 -3.429322832e-14 -4.563136657e-15 -1.311964647e-15)
5(-5.369312469e-13 -2.933460503e-13 -2.783760545e-14 -3.417026381e-15 -9.196955223e-16)
5(-4.33633208e-13 -2.37136971e-13 -2.25786326e-14 -2.584839373e-15 -6.531475528e-16)
5(-3.62253386e-13 -1.975474232e-13 -1.81794079e-14 -1.990253928e-15 -4.631525493e-16)
5(-2.974262708e-13 -1.621990602e-13 -1.486483375e-14 -1.542889485e-15 -3.279610343e-16)
5(-2.436683704e-13 -1.329164444e-13 -1.214629399e-14 -1.175251878e-15 -2.224342937e-16)
5(-1.953241887e-13 -1.064201584e-13 -9.568187612e-15 -8.75271833e-16 -1.302966137e-16)
5(-1.512681158e-13 -8.25150123e-14 -7.474127133e-15 -6.050813436e-16 -2.381724709e-17)
5(-1.190083911e-13 -6.477817968e-14 -5.672812598e-15 -3.550969717e-16 8.74630123e-17)