/*--------------------------------*- C++ -*----------------------------------*\
| =========                 |                                                 |
| \\      /  F ield         | OpenFOAM: The Open Source CFD Toolbox           |
|  \\    /   O peration     | Version:  2.3.1                                 |
|   \\  /    A nd           | Web:      www.OpenFOAM.org                      |
|    \\/     M anipulation  |                                                 |
\*---------------------------------------------------------------------------*/
FoamFile
{
    version     2.0;
    format      ascii;
    class       dictionary;
    location    "constant";
    object      GRPSI55;
}
// * * * * * * * * * * * * * * * * * * * * * * * * * * * * * * * * * * * * * //

GRPSI55_table
60
(

60
(
5(-8.260759391e-05 8.692442247e-05 0.0001041266037 0.0001345689496 0.0003173411307)
5(-6.74856511e-05 3.333280916e-05 6.566354471e-05 5.271435909e-05 0.0001082528982)
5(4.919466913e-05 3.569448427e-05 1.121251682e-05 -3.569448427e-05 -7.161970277e-05)
5(6.024142406e-05 3.854458529e-05 -1.936886663e-05 2.388694274e-05 0.0001033593653)
5(5.90945014e-05 4.559253214e-05 1.055423942e-05 2.056561303e-06 1.509520663e-05)
5(2.18606399e-05 5.624753893e-06 1.929218414e-05 2.113397176e-05 -6.927556868e-06)
5(-7.789350552e-06 4.171549715e-07 9.967803392e-06 5.660021083e-05 0.0001018884754)
5(2.312551737e-05 3.197147318e-05 1.883424463e-05 -1.416147618e-05 -2.517401264e-05)
5(2.801109006e-05 2.741074423e-05 2.102506404e-05 1.386698604e-05 1.249424239e-05)
5(4.139246222e-05 4.473100239e-05 1.703506632e-05 1.026532017e-05 3.453005026e-05)
5(4.55346175e-05 4.819123047e-05 2.171010357e-05 1.476351908e-05 3.695467446e-05)
5(4.743610834e-05 4.064485278e-05 2.286706052e-05 1.72765067e-05 2.267248959e-05)
5(3.540657003e-05 3.27472086e-05 2.983397248e-05 2.710082609e-05 2.462155439e-05)
5(2.788486756e-05 3.06998406e-05 2.197014778e-05 2.085442226e-05 3.128336261e-05)
5(3.399977129e-05 3.405061684e-05 3.011895833e-05 2.337380152e-05 2.061114877e-05)
5(2.908806016e-05 3.593275665e-05 3.269954589e-05 2.326605539e-05 2.391047214e-05)
5(2.951266202e-05 3.531264006e-05 3.426528819e-05 2.834429635e-05 2.927063442e-05)
5(2.715178481e-05 3.767265975e-05 3.626951593e-05 2.303981512e-05 2.173413307e-05)
5(2.899350036e-05 3.626507191e-05 3.125629788e-05 1.767949508e-05 1.638303788e-05)
5(3.22751277e-05 3.483028408e-05 2.870355671e-05 1.169926017e-05 3.376847374e-06)
5(2.653556201e-05 3.047322616e-05 2.676522764e-05 1.253793039e-05 5.956295816e-06)
5(2.299939138e-05 2.834941784e-05 1.617807714e-05 3.954539544e-06 9.252369124e-06)
5(1.797899393e-05 2.291875554e-05 1.6854265e-05 5.736811453e-06 5.623610055e-06)
5(2.132569505e-05 2.136683107e-05 1.174687124e-05 2.024910203e-06 1.964045013e-06)
5(1.660347394e-05 1.860511842e-05 1.090502202e-05 2.407726428e-07 -7.217358584e-07)
5(1.234959397e-05 1.773390911e-05 1.113809751e-05 -3.884232253e-06 -6.926435276e-06)
5(7.653800342e-06 1.260286471e-05 9.985834302e-06 -3.209590932e-06 -8.838921396e-06)
5(7.335441014e-06 1.181194783e-05 7.78345418e-06 -5.495445342e-06 -1.026934441e-05)
5(4.105562055e-06 7.359467096e-06 4.529766276e-06 -5.117919129e-06 -8.681998673e-06)
5(4.063853234e-06 5.011144389e-06 6.605559495e-07 -6.031079439e-06 -7.424835233e-06)
5(2.327123002e-06 3.583446571e-06 -1.468814052e-07 -7.223046298e-06 -9.312559646e-06)
5(2.348320874e-07 1.097606811e-06 -2.541350704e-06 -9.672647781e-06 -1.230221262e-05)
5(2.73783031e-07 5.210124578e-07 -3.743571032e-06 -7.64385791e-06 -7.032331872e-06)
5(-2.732339723e-07 -9.78237402e-08 -5.495631536e-06 -1.146067028e-05 -1.1852491e-05)
5(-2.283795436e-06 -1.907150817e-06 -6.031402265e-06 -1.042485976e-05 -1.031742119e-05)
5(-1.346668847e-06 -1.172365699e-06 -7.464684192e-06 -1.233011348e-05 -1.072892112e-05)
5(-5.420927435e-06 -5.253517763e-06 -7.74055407e-06 -9.606612321e-06 -8.818224592e-06)
5(-4.651172239e-06 -6.153220793e-06 -8.517894212e-06 -1.365715775e-05 -1.793379642e-05)
5(-6.846426229e-06 -6.707818816e-06 -9.142360405e-06 -1.024185007e-05 -8.768190728e-06)
5(-9.270339823e-06 -7.483712133e-06 -9.142863374e-06 -2.44408853e-05 -3.629312829e-05)
5(-1.148399461e-05 -9.466746517e-06 -8.832988967e-06 -2.03938286e-05 -3.057117769e-05)
5(-1.121671719e-05 -9.680552911e-06 -1.205768991e-05 -1.80554968e-05 -2.014000243e-05)
5(-1.316948104e-05 -1.049558056e-05 -1.892125421e-05 -1.504377929e-05 -6.673024842e-08)
5(-1.220715134e-05 -7.47937915e-06 -1.728942533e-05 -1.49135144e-05 2.000214894e-06)
5(-1.298271235e-05 -8.347975858e-06 -1.464398167e-05 -1.267955891e-05 2.156061674e-07)
5(-9.792481345e-06 -8.492991466e-06 -1.290876457e-05 -9.389558681e-06 -1.550898046e-07)
5(-9.527954037e-06 -1.254709816e-05 -1.00726261e-05 -2.473163539e-06 -3.673171735e-07)
5(-1.365647428e-05 -1.280691827e-05 -5.881575821e-06 -1.779496417e-08 -2.298005544e-07)
5(-9.638734229e-06 -1.027944007e-05 -5.032942736e-06 2.974145913e-07 -2.594312592e-07)
5(-1.708872243e-05 -8.011508552e-06 1.003600701e-06 3.227595476e-07 -2.959769762e-07)
5(-1.275399447e-05 -5.660484834e-06 1.23057511e-06 3.357061489e-07 -3.567131225e-07)
5(-1.696723741e-06 -5.036702594e-08 1.345997831e-06 3.445380901e-07 -4.069297935e-07)
5(2.465343931e-06 2.114724465e-06 1.466200199e-06 3.461954567e-07 -4.759044842e-07)
5(3.128198519e-06 2.564714459e-06 1.59941616e-06 3.615692006e-07 -4.744635199e-07)
5(3.398995862e-06 2.823251705e-06 1.764606331e-06 3.769216856e-07 -5.278617422e-07)
5(3.188926998e-06 2.847220452e-06 1.901969605e-06 3.915403425e-07 -5.153446193e-07)
5(2.394084813e-06 2.567361858e-06 2.042541235e-06 4.585320638e-07 -4.273794382e-07)
5(2.500342009e-06 2.553948135e-06 2.01014053e-06 3.504542432e-07 -7.118183143e-07)
5(3.289913793e-06 3.074516003e-06 1.28783642e-06 2.642275866e-07 8.119005455e-07)
5(4.841730315e-06 4.258537661e-06 2.883247947e-06 4.267385107e-07 -1.237673866e-06)
)


60
(
5(-2.249410026e-05 0.0001492885772 0.0001877776192 0.0002053519646 0.0003562199455)
5(4.745958443e-05 0.0001039057321 0.0001337281365 0.0001457009641 0.0001842975349)
5(8.808474321e-05 8.83982444e-05 0.0001118188883 0.000115475393 9.602475506e-05)
5(0.0001073570887 9.325102542e-05 0.0001113661109 0.0001110303192 7.847337883e-05)
5(0.0001123224027 0.0001079686046 0.0001207272957 0.0001195558345 0.0001012718841)
5(0.0001113492528 0.0001198695798 0.0001291849063 0.0001278447626 0.0001257096191)
5(0.0001142137103 0.0001256080215 0.0001326239103 0.0001263018152 0.0001243581425)
5(0.0001211775258 0.000129109215 0.0001311151134 0.0001165394299 0.0001078895373)
5(0.0001271881228 0.0001298910168 0.0001259893243 0.0001042115031 8.903826834e-05)
5(0.0001294356939 0.0001291039127 0.0001193310405 8.965737353e-05 6.942479746e-05)
5(0.0001288649589 0.0001267846643 0.000110261236 7.438343534e-05 5.294876826e-05)
5(0.0001233003544 0.0001218484564 9.89979872e-05 5.726809983e-05 3.693678371e-05)
5(0.0001158497963 0.0001140417028 8.544680472e-05 3.880360171e-05 1.894720327e-05)
5(0.0001063798756 0.0001037562454 7.150313319e-05 2.164987523e-05 1.426099243e-06)
5(9.476307813e-05 9.171942658e-05 5.679493369e-05 5.881991973e-06 -1.315010841e-05)
5(8.205031168e-05 7.88439947e-05 4.219524654e-05 -8.515343852e-06 -2.578350307e-05)
5(6.906256577e-05 6.596720186e-05 2.878556028e-05 -2.072855105e-05 -3.615638471e-05)
5(5.558271858e-05 5.282926724e-05 1.646831747e-05 -3.020086977e-05 -4.326255857e-05)
5(4.204556704e-05 4.024096934e-05 6.13335657e-06 -3.731710759e-05 -4.846455667e-05)
5(2.998844814e-05 2.877242976e-05 -2.626065197e-06 -4.206532585e-05 -5.132210993e-05)
5(1.923926153e-05 1.873987548e-05 -9.72790683e-06 -4.520375644e-05 -5.271120978e-05)
5(1.032092557e-05 1.015258594e-05 -1.509130815e-05 -4.652709513e-05 -5.288732763e-05)
5(2.56343709e-06 3.06168334e-06 -1.90394235e-05 -4.67180937e-05 -5.179741082e-05)
5(-3.855030064e-06 -2.687250356e-06 -2.194304072e-05 -4.616564234e-05 -4.99646739e-05)
5(-8.332111282e-06 -7.008030824e-06 -2.367775447e-05 -4.486640877e-05 -4.806125897e-05)
5(-1.202590669e-05 -1.027324948e-05 -2.468649114e-05 -4.34353694e-05 -4.601834881e-05)
5(-1.473054239e-05 -1.275556285e-05 -2.508038362e-05 -4.16460936e-05 -4.391200327e-05)
5(-1.62584853e-05 -1.457122468e-05 -2.533635902e-05 -3.982178398e-05 -4.185481399e-05)
5(-1.725470045e-05 -1.583677567e-05 -2.540087844e-05 -3.797724762e-05 -3.957158925e-05)
5(-1.819407311e-05 -1.68869577e-05 -2.522370635e-05 -3.632021006e-05 -3.777284972e-05)
5(-1.877675198e-05 -1.76586609e-05 -2.503269751e-05 -3.474090599e-05 -3.595698678e-05)
5(-1.920837879e-05 -1.836971112e-05 -2.486564943e-05 -3.332688402e-05 -3.445351264e-05)
5(-1.957459447e-05 -1.89369788e-05 -2.478555403e-05 -3.222292688e-05 -3.317410882e-05)
5(-2.000947948e-05 -1.956812992e-05 -2.479888307e-05 -3.130356608e-05 -3.213614637e-05)
5(-2.04157579e-05 -2.018412963e-05 -2.493776105e-05 -3.059109621e-05 -3.125917167e-05)
5(-2.118101433e-05 -2.100218357e-05 -2.517808908e-05 -3.008497984e-05 -3.063713432e-05)
5(-2.188185223e-05 -2.178760469e-05 -2.55672773e-05 -2.969100977e-05 -2.994082209e-05)
5(-2.295306498e-05 -2.283106257e-05 -2.604957348e-05 -2.937239164e-05 -2.935469648e-05)
5(-2.427931631e-05 -2.396190328e-05 -2.649939757e-05 -2.919897648e-05 -2.904364806e-05)
5(-2.54849317e-05 -2.513057351e-05 -2.709929326e-05 -2.921060073e-05 -2.899883026e-05)
5(-2.701303818e-05 -2.639748633e-05 -2.757219077e-05 -2.936082844e-05 -2.935920982e-05)
5(-2.810939372e-05 -2.741299027e-05 -2.817940339e-05 -2.960390404e-05 -2.956558812e-05)
5(-2.958585098e-05 -2.839172767e-05 -2.866047422e-05 -2.965752842e-05 -2.919171273e-05)
5(-3.087930757e-05 -2.897271093e-05 -2.894416981e-05 -2.93824858e-05 -2.794274629e-05)
5(-3.14285616e-05 -2.922094832e-05 -2.914468181e-05 -2.865822693e-05 -2.604042528e-05)
5(-3.131741636e-05 -2.913769984e-05 -2.899546267e-05 -2.746295055e-05 -2.389295907e-05)
5(-3.061212324e-05 -2.891504052e-05 -2.846589108e-05 -2.57474914e-05 -2.178115844e-05)
5(-2.966824433e-05 -2.848464692e-05 -2.748207351e-05 -2.370940436e-05 -1.975571121e-05)
5(-2.889154838e-05 -2.790223497e-05 -2.608720562e-05 -2.148937832e-05 -1.771726696e-05)
5(-2.8288322e-05 -2.694774835e-05 -2.418320161e-05 -1.921454379e-05 -1.566985904e-05)
5(-2.79039679e-05 -2.573934853e-05 -2.188338611e-05 -1.693546795e-05 -1.367889283e-05)
5(-2.688854238e-05 -2.398757422e-05 -1.931744467e-05 -1.467659463e-05 -1.180490598e-05)
5(-2.495003885e-05 -2.166370563e-05 -1.667202616e-05 -1.253215569e-05 -1.009763145e-05)
5(-2.184601345e-05 -1.870174237e-05 -1.400571486e-05 -1.046107652e-05 -8.468194606e-06)
5(-1.780770986e-05 -1.527076845e-05 -1.138576133e-05 -8.552306237e-06 -7.066916848e-06)
5(-1.345254466e-05 -1.168571666e-05 -8.840160295e-06 -6.781122565e-06 -5.800813199e-06)
5(-9.104395762e-06 -8.130380828e-06 -6.415892419e-06 -5.171711059e-06 -4.668003174e-06)
5(-5.038448199e-06 -4.811293559e-06 -4.173357828e-06 -3.696935308e-06 -3.631293881e-06)
5(-1.580258034e-06 -1.916739722e-06 -2.084307399e-06 -2.256864451e-06 -2.598335514e-06)
5(1.491831628e-06 5.277851699e-07 3.0115809e-07 -5.253839484e-07 -2.089345365e-06)
)


60
(
5(2.732056451e-05 0.0002080364868 0.0002631128301 0.0002569401137 0.0003764069764)
5(0.0001034050352 0.0001657216716 0.0002076810017 0.000209720377 0.0002321170584)
5(0.0001487647562 0.0001547219615 0.0001850433545 0.0001833498454 0.0001572921485)
5(0.0001703556961 0.0001626793591 0.0001824946901 0.0001724033816 0.0001348204051)
5(0.0001760057959 0.0001761543864 0.0001861632477 0.0001675847098 0.0001391459011)
5(0.0001749300467 0.0001845466289 0.0001856899533 0.0001580147915 0.0001388128874)
5(0.0001749749204 0.0001860276114 0.0001788389259 0.0001398464496 0.0001190953497)
5(0.0001774297017 0.0001828380252 0.0001657065786 0.0001160787173 8.899062621e-05)
5(0.0001770148454 0.0001757654206 0.0001488914933 9.012426252e-05 5.698153411e-05)
5(0.00017128252 0.0001655425844 0.000129704787 6.435960559e-05 2.911228585e-05)
5(0.000160667819 0.0001528067085 0.0001089225899 3.777172997e-05 2.643878144e-06)
5(0.0001458056019 0.0001370401055 8.694530937e-05 1.231913644e-05 -2.097773683e-05)
5(0.0001284419425 0.0001187952022 6.463451674e-05 -1.085660648e-05 -4.183378465e-05)
5(0.0001095895828 9.918984842e-05 4.323980045e-05 -3.057165378e-05 -5.883279439e-05)
5(8.995071483e-05 7.936050531e-05 2.354528399e-05 -4.692807921e-05 -7.217643062e-05)
5(7.056789868e-05 6.019803635e-05 6.204024093e-06 -5.937918255e-05 -8.133823926e-05)
5(5.085150729e-05 4.191624762e-05 -8.43923094e-06 -6.84990755e-05 -8.713870116e-05)
5(3.289204645e-05 2.544396182e-05 -2.03722477e-05 -7.443801854e-05 -9.01356645e-05)
5(1.728941195e-05 1.131578114e-05 -2.975336846e-05 -7.771615296e-05 -9.058341866e-05)
5(3.872786478e-06 -6.636471003e-07 -3.657748919e-05 -7.860523807e-05 -8.925557843e-05)
5(-6.617101637e-06 -1.012437917e-05 -4.138115074e-05 -7.780631096e-05 -8.648197714e-05)
5(-1.53323885e-05 -1.771654476e-05 -4.440659279e-05 -7.578837515e-05 -8.286426573e-05)
5(-2.179010415e-05 -2.316896922e-05 -4.589385727e-05 -7.301233294e-05 -7.878478563e-05)
5(-2.625075072e-05 -2.691721999e-05 -4.626767943e-05 -6.970331779e-05 -7.445496597e-05)
5(-2.925631843e-05 -2.938405841e-05 -4.582220888e-05 -6.610104565e-05 -7.006947192e-05)
5(-3.121310199e-05 -3.094596578e-05 -4.484982992e-05 -6.248145326e-05 -6.594207624e-05)
5(-3.223328783e-05 -3.173083105e-05 -4.351449297e-05 -5.880900632e-05 -6.181740099e-05)
5(-3.213010795e-05 -3.178744725e-05 -4.209722302e-05 -5.541663677e-05 -5.808361405e-05)
5(-3.224795242e-05 -3.178282896e-05 -4.058361642e-05 -5.217699591e-05 -5.450446447e-05)
5(-3.169348665e-05 -3.136921332e-05 -3.9086984e-05 -4.924095765e-05 -5.13528873e-05)
5(-3.116517375e-05 -3.097983414e-05 -3.773741614e-05 -4.65635395e-05 -4.844674125e-05)
5(-3.057081076e-05 -3.052641636e-05 -3.646791894e-05 -4.416796981e-05 -4.58821237e-05)
5(-3.004632282e-05 -3.006584642e-05 -3.533054026e-05 -4.213619168e-05 -4.369667286e-05)
5(-2.949539191e-05 -2.973244208e-05 -3.446136439e-05 -4.039035528e-05 -4.182747403e-05)
5(-2.908225774e-05 -2.948852128e-05 -3.374265151e-05 -3.891862072e-05 -4.024672324e-05)
5(-2.858619226e-05 -2.923487785e-05 -3.324108427e-05 -3.773023342e-05 -3.886186174e-05)
5(-2.870570217e-05 -2.93572944e-05 -3.292308527e-05 -3.680469686e-05 -3.77721098e-05)
5(-2.90300496e-05 -2.967478551e-05 -3.279619101e-05 -3.603658934e-05 -3.680031809e-05)
5(-2.952850068e-05 -3.016418992e-05 -3.28399524e-05 -3.550122641e-05 -3.612242717e-05)
5(-3.022009507e-05 -3.078586302e-05 -3.299402295e-05 -3.520828294e-05 -3.578015095e-05)
5(-3.096760901e-05 -3.146949291e-05 -3.326547694e-05 -3.514153587e-05 -3.572349467e-05)
5(-3.205792494e-05 -3.234109067e-05 -3.361557871e-05 -3.51477171e-05 -3.56885332e-05)
5(-3.309554291e-05 -3.308475912e-05 -3.39828503e-05 -3.509247726e-05 -3.529322925e-05)
5(-3.41055963e-05 -3.368943091e-05 -3.431210428e-05 -3.484583825e-05 -3.434073346e-05)
5(-3.491946495e-05 -3.409780192e-05 -3.445389376e-05 -3.424324791e-05 -3.285484717e-05)
5(-3.526434776e-05 -3.428013084e-05 -3.437864407e-05 -3.328856978e-05 -3.111576536e-05)
5(-3.50576371e-05 -3.424655962e-05 -3.39926557e-05 -3.191914269e-05 -2.92884561e-05)
5(-3.453568636e-05 -3.398138549e-05 -3.323333127e-05 -3.025345612e-05 -2.746733432e-05)
5(-3.396994488e-05 -3.348481047e-05 -3.209906733e-05 -2.840838929e-05 -2.561831998e-05)
5(-3.357317217e-05 -3.279658773e-05 -3.064151902e-05 -2.648771351e-05 -2.371239227e-05)
5(-3.331517885e-05 -3.191543208e-05 -2.888144831e-05 -2.450817719e-05 -2.176914306e-05)
5(-3.283200779e-05 -3.075947118e-05 -2.691960635e-05 -2.247356084e-05 -1.979484355e-05)
5(-3.172223179e-05 -2.919843704e-05 -2.47801287e-05 -2.035798134e-05 -1.783034757e-05)
5(-2.978579194e-05 -2.711702329e-05 -2.246851204e-05 -1.816971479e-05 -1.585066015e-05)
5(-2.709129487e-05 -2.450596707e-05 -1.993778186e-05 -1.592387753e-05 -1.389283061e-05)
5(-2.369722901e-05 -2.1420702e-05 -1.725378263e-05 -1.36804578e-05 -1.199752532e-05)
5(-1.984389676e-05 -1.801624654e-05 -1.448521874e-05 -1.148948069e-05 -1.019712024e-05)
5(-1.589598811e-05 -1.455318615e-05 -1.169898668e-05 -9.347942344e-06 -8.508295513e-06)
5(-1.217305883e-05 -1.124824123e-05 -9.041958866e-06 -7.324173713e-06 -6.887853323e-06)
5(-9.036093977e-06 -7.783044276e-06 -5.696355289e-06 -6.031955031e-06 -7.201194057e-06)
)


60
(
5(7.5009926e-05 0.0002628176579 0.0003285027591 0.0002945250378 0.0003826699472)
5(0.0001560999519 0.0002225445674 0.0002688432002 0.0002527533735 0.0002568095296)
5(0.0002037449405 0.0002133416237 0.0002422073788 0.0002242587748 0.0001870410987)
5(0.0002251112079 0.000221198002 0.0002341075359 0.0002040564636 0.0001571826514)
5(0.000228656426 0.0002304312508 0.0002290802123 0.0001849194418 0.0001438845345)
5(0.0002239634647 0.0002321618368 0.0002182308747 0.0001604481975 0.0001247948545)
5(0.0002192735015 0.0002263605706 0.0001998156044 0.0001290596819 9.193579479e-05)
5(0.0002149134979 0.0002149979102 0.0001758900478 9.483731306e-05 5.29768531e-05)
5(0.0002065512842 0.0001991607469 0.0001489457002 6.027582844e-05 1.443046604e-05)
5(0.0001924453738 0.0001797752088 0.0001203389285 2.717250469e-05 -1.922780379e-05)
5(0.0001728255547 0.0001576054387 9.132948098e-05 -4.003596622e-06 -4.82808326e-05)
5(0.0001499602674 0.0001332499845 6.280419278e-05 -3.153403754e-05 -7.213675889e-05)
5(0.0001251111885 0.0001077085295 3.612361902e-05 -5.487200607e-05 -9.168537975e-05)
5(9.937537677e-05 8.206777248e-05 1.20344515e-05 -7.344528444e-05 -0.0001061993037)
5(7.43082808e-05 5.773961545e-05 -8.868730518e-06 -8.724305517e-05 -0.0001155776992)
5(5.095331292e-05 3.551036369e-05 -2.643092779e-05 -9.685049234e-05 -0.0001207717146)
5(2.964695778e-05 1.588222644e-05 -4.022780464e-05 -0.0001025879867 -0.0001226028691)
5(1.00416489e-05 -1.308175972e-06 -5.056303405e-05 -0.0001049481178 -0.0001214281683)
5(-5.358590284e-06 -1.4887704e-05 -5.794408448e-05 -0.000104990503 -0.0001185096547)
5(-1.871602356e-05 -2.605972517e-05 -6.262550681e-05 -0.0001029435539 -0.0001140395211)
5(-2.881059713e-05 -3.41856165e-05 -6.501594796e-05 -9.958499272e-05 -0.0001086987254)
5(-3.528039117e-05 -3.962618977e-05 -6.589804696e-05 -9.536904786e-05 -0.0001029139902)
5(-4.025277756e-05 -4.338349108e-05 -6.537783043e-05 -9.055498799e-05 -9.686851972e-05)
5(-4.401644629e-05 -4.591747821e-05 -6.39219373e-05 -8.545140481e-05 -9.087744514e-05)
5(-4.560162911e-05 -4.678207077e-05 -6.187369058e-05 -8.036133575e-05 -8.493780277e-05)
5(-4.598337228e-05 -4.680731659e-05 -5.95521576e-05 -7.546071298e-05 -7.944837165e-05)
5(-4.560817659e-05 -4.620852321e-05 -5.702168215e-05 -7.07488549e-05 -7.426321533e-05)
5(-4.47889978e-05 -4.524938453e-05 -5.444746222e-05 -6.628288698e-05 -6.938062077e-05)
5(-4.359721576e-05 -4.40255598e-05 -5.191794039e-05 -6.219266549e-05 -6.500335404e-05)
5(-4.222723122e-05 -4.267090499e-05 -4.949540177e-05 -5.838555604e-05 -6.08948873e-05)
5(-4.08584164e-05 -4.131347731e-05 -4.722034292e-05 -5.498170226e-05 -5.72912569e-05)
5(-3.949241974e-05 -4.002191088e-05 -4.515274284e-05 -5.187988613e-05 -5.40056886e-05)
5(-3.816024086e-05 -3.873924735e-05 -4.33024455e-05 -4.920738154e-05 -5.112812592e-05)
5(-3.693970258e-05 -3.761236115e-05 -4.168066056e-05 -4.686214981e-05 -4.864799822e-05)
5(-3.585245672e-05 -3.664745505e-05 -4.031139566e-05 -4.487071334e-05 -4.656108872e-05)
5(-3.494665219e-05 -3.585161253e-05 -3.918280425e-05 -4.316988777e-05 -4.473073991e-05)
5(-3.430145133e-05 -3.527405344e-05 -3.829491534e-05 -4.176203946e-05 -4.318090379e-05)
5(-3.393721258e-05 -3.493181872e-05 -3.765731413e-05 -4.065714007e-05 -4.192607674e-05)
5(-3.380843812e-05 -3.480738711e-05 -3.724328206e-05 -3.979177135e-05 -4.090331468e-05)
5(-3.388720407e-05 -3.489000824e-05 -3.704030838e-05 -3.92526939e-05 -4.031758345e-05)
5(-3.423298007e-05 -3.520663808e-05 -3.702459573e-05 -3.892609875e-05 -3.998330211e-05)
5(-3.480053052e-05 -3.568100488e-05 -3.716025572e-05 -3.875867606e-05 -3.975831993e-05)
5(-3.560287805e-05 -3.625954628e-05 -3.74023801e-05 -3.861922897e-05 -3.934991222e-05)
5(-3.649197044e-05 -3.682417362e-05 -3.768566597e-05 -3.836261266e-05 -3.851027018e-05)
5(-3.737482538e-05 -3.734976599e-05 -3.789159719e-05 -3.787619503e-05 -3.729390226e-05)
5(-3.800238602e-05 -3.774902808e-05 -3.790465252e-05 -3.706117391e-05 -3.580871291e-05)
5(-3.823555455e-05 -3.79637559e-05 -3.764431496e-05 -3.591440654e-05 -3.423214041e-05)
5(-3.813929533e-05 -3.795617823e-05 -3.707917337e-05 -3.450800492e-05 -3.263072424e-05)
5(-3.776958446e-05 -3.761923496e-05 -3.617921804e-05 -3.292319869e-05 -3.095684677e-05)
5(-3.762326033e-05 -3.713614161e-05 -3.498299394e-05 -3.129173245e-05 -2.92664999e-05)
5(-3.742925706e-05 -3.644035739e-05 -3.359238819e-05 -2.962784728e-05 -2.752237591e-05)
5(-3.707218148e-05 -3.558999996e-05 -3.210703766e-05 -2.791749147e-05 -2.572872605e-05)
5(-3.649392569e-05 -3.461173334e-05 -3.054330077e-05 -2.610610716e-05 -2.385515376e-05)
5(-3.552723107e-05 -3.337240397e-05 -2.880016604e-05 -2.414766319e-05 -2.191257116e-05)
5(-3.410175101e-05 -3.17470122e-05 -2.678121389e-05 -2.201335903e-05 -1.985656368e-05)
5(-3.202259662e-05 -2.960722556e-05 -2.4445725e-05 -1.972107161e-05 -1.774254773e-05)
5(-2.930293857e-05 -2.696585979e-05 -2.186543348e-05 -1.737669524e-05 -1.565130451e-05)
5(-2.604569944e-05 -2.392661325e-05 -1.912355935e-05 -1.502661569e-05 -1.361363974e-05)
5(-2.264769342e-05 -2.076345181e-05 -1.638963518e-05 -1.278886599e-05 -1.167767181e-05)
5(-1.681944588e-05 -1.572999203e-05 -1.409642066e-05 -1.221079834e-05 -1.086929355e-05)
)


60
(
5(0.0001210750975 0.000313728053 0.0003850517924 0.0003214486212 0.000379174666)
5(0.0002057757831 0.000274052894 0.0003193654866 0.0002815151286 0.0002666292888)
5(0.0002536789729 0.0002646357409 0.0002870026446 0.0002481599709 0.0001979071615)
5(0.0002728487743 0.0002702742752 0.0002720264728 0.0002182909196 0.0001602286697)
5(0.0002726237465 0.0002738558798 0.0002577356712 0.0001867448388 0.0001331063482)
5(0.0002630556724 0.0002677830239 0.0002363944079 0.0001506032612 0.0001009280819)
5(0.0002520873633 0.0002539441835 0.0002081863212 0.0001094713371 5.837103539e-05)
5(0.0002404175722 0.0002342610609 0.0001751560709 6.795103835e-05 1.36944844e-05)
5(0.0002243992675 0.000210092473 0.0001397729128 2.789934608e-05 -2.796145495e-05)
5(0.0002021167121 0.0001825978282 0.0001044281025 -8.590530424e-06 -6.295832153e-05)
5(0.0001755299069 0.0001530219188 6.993855821e-05 -4.151585639e-05 -9.239489844e-05)
5(0.000145994177 0.0001222885337 3.781032632e-05 -6.900800128e-05 -0.0001150537649)
5(0.0001152242393 9.167727963e-05 8.823745649e-06 -9.113562337e-05 -0.0001317884181)
5(8.607655881e-05 6.26905947e-05 -1.632923684e-05 -0.0001073679129 -0.0001427727216)
5(5.75371933e-05 3.580904182e-05 -3.715878809e-05 -0.000118628551 -0.0001488586354)
5(3.182017726e-05 1.204467778e-05 -5.379665988e-05 -0.0001252706521 -0.0001506788061)
5(9.559383378e-06 -7.833539568e-06 -6.618310521e-05 -0.000128219456 -0.0001492991641)
5(-9.783090768e-06 -2.433753028e-05 -7.481556546e-05 -0.000128042358 -0.0001453455548)
5(-2.516052177e-05 -3.720975871e-05 -8.025563084e-05 -0.0001255587568 -0.0001398652476)
5(-3.7217544e-05 -4.683183849e-05 -8.298123193e-05 -0.0001213773112 -0.0001332382916)
5(-4.598384536e-05 -5.352764024e-05 -8.369082825e-05 -0.0001161463453 -0.0001259824692)
5(-5.212139443e-05 -5.791645411e-05 -8.284187411e-05 -0.0001102290166 -0.0001184857987)
5(-5.576834518e-05 -6.021851669e-05 -8.084739772e-05 -0.0001039931272 -0.0001109601472)
5(-5.768142241e-05 -6.103475699e-05 -7.81096995e-05 -9.774901315e-05 -0.0001036667189)
5(-5.809313663e-05 -6.068628836e-05 -7.491467805e-05 -9.165106771e-05 -9.67522194e-05)
5(-5.777631329e-05 -5.96722463e-05 -7.14459737e-05 -8.578155806e-05 -9.023934802e-05)
5(-5.646929539e-05 -5.807867969e-05 -6.799854411e-05 -8.023589094e-05 -8.416275765e-05)
5(-5.473745405e-05 -5.614963425e-05 -6.45546975e-05 -7.504682685e-05 -7.854607316e-05)
5(-5.292212437e-05 -5.413187752e-05 -6.122628712e-05 -7.027311428e-05 -7.343528499e-05)
5(-5.083347664e-05 -5.198017952e-05 -5.807446352e-05 -6.58896741e-05 -6.875730356e-05)
5(-4.88510925e-05 -4.993664096e-05 -5.516415442e-05 -6.189269556e-05 -6.447927171e-05)
5(-4.69303613e-05 -4.797571727e-05 -5.245785087e-05 -5.830519573e-05 -6.071576296e-05)
5(-4.502871197e-05 -4.608866267e-05 -5.001085912e-05 -5.506535147e-05 -5.725759808e-05)
5(-4.326265421e-05 -4.435953617e-05 -4.782509562e-05 -5.22492254e-05 -5.430467768e-05)
5(-4.165122659e-05 -4.278692262e-05 -4.589377581e-05 -4.979514189e-05 -5.172535081e-05)
5(-4.027155616e-05 -4.143609717e-05 -4.424059903e-05 -4.76832514e-05 -4.948594292e-05)
5(-3.907924997e-05 -4.029395201e-05 -4.287224019e-05 -4.589321195e-05 -4.755059755e-05)
5(-3.808842578e-05 -3.937078771e-05 -4.177577227e-05 -4.439769156e-05 -4.589698821e-05)
5(-3.74294781e-05 -3.874398198e-05 -4.094857949e-05 -4.324091115e-05 -4.464314917e-05)
5(-3.70495664e-05 -3.838825028e-05 -4.038219679e-05 -4.238910956e-05 -4.374075971e-05)
5(-3.700200844e-05 -3.831386376e-05 -4.005593514e-05 -4.185603606e-05 -4.322592092e-05)
5(-3.721642643e-05 -3.846046452e-05 -3.995535228e-05 -4.154486189e-05 -4.288352184e-05)
5(-3.768621345e-05 -3.879520491e-05 -4.005731904e-05 -4.129984785e-05 -4.2389254e-05)
5(-3.835500557e-05 -3.924633405e-05 -4.029724037e-05 -4.104053116e-05 -4.16242441e-05)
5(-3.912166989e-05 -3.977393973e-05 -4.055649851e-05 -4.061952967e-05 -4.055227189e-05)
5(-3.989978394e-05 -4.03360829e-05 -4.07142792e-05 -3.997232062e-05 -3.92884647e-05)
5(-4.036295523e-05 -4.077452542e-05 -4.065778707e-05 -3.902129428e-05 -3.791311003e-05)
5(-4.061767208e-05 -4.103912926e-05 -4.031149433e-05 -3.781082808e-05 -3.645925394e-05)
5(-4.065960531e-05 -4.098992349e-05 -3.96226013e-05 -3.644255075e-05 -3.496014059e-05)
5(-4.062952382e-05 -4.063477094e-05 -3.861801496e-05 -3.501714969e-05 -3.343828753e-05)
5(-4.044061797e-05 -4.001153157e-05 -3.744460775e-05 -3.360320563e-05 -3.189964093e-05)
5(-3.999001876e-05 -3.922042885e-05 -3.625427533e-05 -3.220947896e-05 -3.036124621e-05)
5(-3.929456518e-05 -3.838581319e-05 -3.513253794e-05 -3.080165054e-05 -2.881528639e-05)
5(-3.844445239e-05 -3.752594463e-05 -3.400414728e-05 -2.925417622e-05 -2.710749474e-05)
5(-3.764757539e-05 -3.666213724e-05 -3.271776281e-05 -2.750890367e-05 -2.525898081e-05)
5(-3.672214158e-05 -3.55872273e-05 -3.112507618e-05 -2.552118949e-05 -2.324453965e-05)
5(-3.551420508e-05 -3.413932251e-05 -2.915018937e-05 -2.333890975e-05 -2.114188069e-05)
5(-3.377363602e-05 -3.214705022e-05 -2.682517772e-05 -2.10854709e-05 -1.904105078e-05)
5(-3.13749644e-05 -2.957791137e-05 -2.429896422e-05 -1.894761477e-05 -1.707815944e-05)
5(-2.587523056e-05 -2.409223025e-05 -2.201955656e-05 -1.854837512e-05 -1.536686705e-05)
)


60
(
5(0.0001658182614 0.0003609394933 0.0004336351049 0.0003407278417 0.0003702461987)
5(0.000252243861 0.0003205123285 0.0003612719833 0.0003003271171 0.0002668910635)
5(0.0002991829312 0.0003098395871 0.0003225253745 0.0002614299238 0.0001983053416)
5(0.0003150139524 0.0003117942233 0.0003001789551 0.000221690883 0.00015159835)
5(0.0003099188483 0.0003088635119 0.0002769162377 0.000179946529 0.0001138687582)
5(0.0002948677527 0.0002948687742 0.0002459545684 0.0001350957013 7.315206142e-05)
5(0.0002774908768 0.0002730286171 0.0002091346694 8.678508618e-05 2.386719084e-05)
5(0.000258890266 0.0002457604729 0.0001685216461 4.040781849e-05 -2.359697541e-05)
5(0.0002352412783 0.0002140751706 0.0001270254088 -2.688792804e-06 -6.65193403e-05)
5(0.0002062363519 0.0001797425857 8.654238148e-05 -4.103845827e-05 -0.00010191286)
5(0.0001734239123 0.0001442556502 4.856195857e-05 -7.388868097e-05 -0.000129813891)
5(0.0001385013667 0.0001086627811 1.406783799e-05 -0.0001004859334 -0.0001502833472)
5(0.0001041465597 7.468005156e-05 -1.600295897e-05 -0.0001208337271 -0.0001644479929)
5(7.145600315e-05 4.319603425e-05 -4.127737558e-05 -0.0001349660142 -0.0001724412118)
5(4.168511855e-05 1.535950898e-05 -6.143957963e-05 -0.0001438339341 -0.0001757548095)
5(1.491624824e-05 -8.63274706e-06 -7.67446306e-05 -0.0001480175917 -0.0001747276646)
5(-7.955590678e-06 -2.842520249e-05 -8.770034593e-05 -0.0001487218965 -0.0001709379155)
5(-2.672749688e-05 -4.404461985e-05 -9.471591289e-05 -0.0001463802546 -0.0001646904262)
5(-4.162778595e-05 -5.594696878e-05 -9.856157858e-05 -0.0001420252793 -0.0001571935531)
5(-5.230891746e-05 -6.418066429e-05 -9.984133587e-05 -0.000136172666 -0.0001487150713)
5(-6.005978526e-05 -6.963090532e-05 -9.910554382e-05 -0.0001294999472 -0.0001399908322)
5(-6.517060152e-05 -7.276048719e-05 -9.693836878e-05 -0.0001224525928 -0.000131378821)
5(-6.775968195e-05 -7.386816225e-05 -9.38133316e-05 -0.0001152119166 -0.0001227738126)
5(-6.857921383e-05 -7.355348331e-05 -9.005421989e-05 -0.0001080477727 -0.0001145148584)
5(-6.833529064e-05 -7.234055013e-05 -8.594497077e-05 -0.0001011221953 -0.0001067002588)
5(-6.697115987e-05 -7.03607301e-05 -8.172838697e-05 -9.459100904e-05 -9.947554448e-05)
5(-6.521980246e-05 -6.802867289e-05 -7.74647728e-05 -8.841275948e-05 -9.273351668e-05)
5(-6.295067913e-05 -6.53995986e-05 -7.333532664e-05 -8.266530797e-05 -8.650848072e-05)
5(-6.063868425e-05 -6.276344271e-05 -6.939117886e-05 -7.735393252e-05 -8.081370847e-05)
5(-5.812148146e-05 -6.006168388e-05 -6.567591632e-05 -7.246073187e-05 -7.557151742e-05)
5(-5.567196458e-05 -5.743340028e-05 -6.218188589e-05 -6.800163151e-05 -7.083432722e-05)
5(-5.324979326e-05 -5.491433173e-05 -5.898838652e-05 -6.397297075e-05 -6.654803868e-05)
5(-5.097757915e-05 -5.253143002e-05 -5.605265734e-05 -6.036193392e-05 -6.270383406e-05)
5(-4.881195745e-05 -5.034167197e-05 -5.339565254e-05 -5.704376581e-05 -5.916761302e-05)
5(-4.690860881e-05 -4.836488866e-05 -5.100344365e-05 -5.421794613e-05 -5.625017346e-05)
5(-4.507364768e-05 -4.65265686e-05 -4.8896146e-05 -5.17308582e-05 -5.364891393e-05)
5(-4.338532352e-05 -4.489003951e-05 -4.709048991e-05 -4.957574865e-05 -5.136527298e-05)
5(-4.202254401e-05 -4.353521979e-05 -4.557736312e-05 -4.775731067e-05 -4.940779067e-05)
5(-4.091373615e-05 -4.245156149e-05 -4.434923854e-05 -4.628100947e-05 -4.785292869e-05)