/*--------------------------------*- C++ -*----------------------------------*\
| =========                 |                                                 |
| \\      /  F ield         | OpenFOAM: The Open Source CFD Toolbox           |
|  \\    /   O peration     | Version:  2.3.1                                 |
|   \\  /    A nd           | Web:      www.OpenFOAM.org                      |
|    \\/     M anipulation  |                                                 |
\*---------------------------------------------------------------------------*/
FoamFile
{
    version     2.0;
    format      ascii;
    class       dictionary;
    location    "constant";
    object      GRPSI18;
}
// * * * * * * * * * * * * * * * * * * * * * * * * * * * * * * * * * * * * * //

GRPSI18_table
60
(

60
(
5(-2.862557875e-07 -1.855164488e-07 -2.79086575e-07 -1.476100961e-07 -2.040550045e-07)
5(-7.236565486e-08 -6.776788264e-08 -2.08291828e-07 -1.199860537e-07 -1.851281198e-07)
5(4.226218126e-07 3.422794681e-08 -6.564851553e-08 -7.290204625e-08 -4.806908726e-08)
5(5.907391423e-07 4.189459324e-09 8.460924139e-09 -2.848592012e-10 2.419057302e-08)
5(2.194564661e-07 -1.064848141e-08 -2.963106064e-08 3.064217507e-08 -1.407398138e-08)
5(-7.244400355e-07 -9.247198874e-09 -2.516440396e-08 -6.712193208e-09 1.765641961e-08)
5(-7.406712403e-07 -2.018243767e-09 2.997061672e-08 -4.449864128e-09 -7.019154217e-09)
5(9.194066916e-07 7.076490826e-09 1.406015812e-08 8.908819432e-09 -1.846074287e-08)
5(1.491233526e-06 1.854866926e-08 8.942961951e-09 9.441814069e-10 1.246952942e-08)
5(6.987827113e-07 2.131951592e-08 1.707359504e-08 2.176707831e-09 5.097803932e-09)
5(-8.404750423e-07 2.593970092e-09 -3.654867595e-09 6.166147558e-09 1.253631617e-09)
5(-1.621747334e-06 1.352067704e-09 -4.016797624e-09 9.951781499e-09 3.436277224e-09)
5(-5.993854871e-07 1.541065178e-08 8.798292995e-09 5.055369649e-09 4.155767738e-09)
5(1.630077145e-08 1.183089064e-08 9.439328509e-09 5.3626678e-09 1.773552393e-09)
5(8.01189983e-08 3.43950024e-08 1.835310253e-08 1.61917092e-08 6.101721208e-09)
5(9.230606099e-08 3.802697796e-08 2.83888907e-08 1.407921651e-08 1.020946809e-08)
5(-1.875786655e-08 1.509823117e-08 1.539775018e-08 1.576742912e-08 1.21859163e-08)
5(-4.157484423e-08 1.776520957e-08 1.650786272e-08 1.964857181e-08 1.565237075e-08)
5(1.245640905e-08 3.298397899e-08 3.619821286e-08 3.118005021e-08 1.706001955e-08)
5(4.791648766e-08 4.293846067e-08 3.844535611e-08 3.750110213e-08 1.582849385e-08)
5(5.373214292e-08 5.05660838e-08 5.14368916e-08 1.904967162e-08 1.378779128e-08)
5(8.228468236e-08 7.94203235e-08 7.125143626e-08 4.77107787e-08 3.451728787e-08)
5(9.863492077e-08 1.233643872e-07 8.724827233e-08 8.702034553e-08 5.442357743e-08)
5(1.344063977e-07 1.869331417e-07 1.318640243e-07 1.15525611e-07 7.181591666e-08)
5(1.8768687e-07 2.784562633e-07 2.093624571e-07 1.851455312e-07 1.039945651e-07)
5(2.418631612e-07 3.039552407e-07 2.55245991e-07 2.584746778e-07 1.439833229e-07)
5(3.262034459e-07 3.018057488e-07 3.599522199e-07 3.477468934e-07 2.034786443e-07)
5(5.05573838e-07 5.098425069e-07 5.088135161e-07 4.523522024e-07 2.917739704e-07)
5(7.25567009e-07 8.501943814e-07 6.724111671e-07 5.475119983e-07 3.794482853e-07)
5(1.021127759e-06 1.201125145e-06 1.033656162e-06 8.403333334e-07 5.150731765e-07)
5(1.420977409e-06 1.545258749e-06 1.306511094e-06 9.898592866e-07 4.293280572e-07)
5(1.873588911e-06 2.06929819e-06 1.713029237e-06 1.170938255e-06 7.83981163e-07)
5(2.567333281e-06 2.839747072e-06 2.46530955e-06 1.466375243e-06 6.546006636e-07)
5(3.446632149e-06 3.401932401e-06 2.800038041e-06 1.581694135e-06 2.890375419e-07)
5(4.310380622e-06 4.346706957e-06 3.772387711e-06 1.731807667e-06 5.650961072e-07)
5(5.162849082e-06 4.184687901e-06 2.550924845e-06 9.316941273e-07 3.583420169e-07)
5(5.85308764e-06 4.400921578e-06 1.353994796e-06 5.42688853e-07 -1.228256268e-06)
5(6.429799933e-06 4.519299323e-06 2.453084637e-06 -6.78950628e-08 -5.668411836e-07)
5(7.143400316e-06 3.188571312e-06 2.17067084e-06 -1.005535965e-06 -1.232955963e-06)
5(5.911763423e-06 7.386873488e-07 -1.39661984e-06 -1.697842755e-06 -1.981627055e-06)
5(2.456880484e-06 -1.970541927e-06 -4.338466421e-06 -2.737712623e-06 -1.011043628e-08)
5(-4.436363835e-07 -4.542378447e-06 -4.825436434e-06 -3.758141463e-06 -1.544036578e-08)
5(-2.919046965e-06 -5.541661822e-06 -2.368909396e-06 -2.283257401e-06 7.310092992e-08)
5(-5.774773121e-06 -5.882291051e-06 -2.397196403e-06 8.955292179e-15 6.485757365e-09)
5(-9.136093092e-06 -6.11184052e-06 -5.000002519e-06 1.63424698e-14 -7.31008849e-08)
5(-1.037583281e-05 -4.900866409e-06 -2.814596256e-06 1.401124823e-08 -6.485678372e-09)
5(-7.627665504e-06 -4.133769825e-06 -8.323549603e-07 4.941556861e-14 1.025005469e-13)
5(-6.203662286e-06 -1.919668152e-06 -2.36455001e-07 -1.401113618e-08 1.725761129e-13)
5(-4.809580766e-06 -3.342431879e-07 -5.19164963e-08 1.364803268e-13 2.821544816e-13)
5(-1.912175436e-06 -1.387199067e-07 -5.688569917e-09 2.228358777e-13 4.547342423e-13)
5(-7.670293506e-07 -2.627164868e-09 1.534020798e-13 3.562506506e-13 7.200755911e-13)
5(-2.923717503e-07 1.074950322e-13 2.440554134e-13 5.57978509e-13 1.118971909e-12)
5(-5.565903343e-08 1.683825786e-13 3.833974969e-13 8.591297343e-13 1.723299542e-12)
5(-4.823665589e-10 2.600694382e-13 5.923267537e-13 1.308031838e-12 2.601859883e-12)
5(2.477499487e-13 3.98437995e-13 9.021692902e-13 1.948579879e-12 3.846907496e-12)
5(5.847720036e-13 6.075731898e-13 1.361946256e-12 2.854983884e-12 5.488853593e-12)
5(8.03057803e-13 1.177704961e-12 2.052513086e-12 4.102957101e-12 7.623552335e-12)
5(7.824273179e-13 1.927634461e-12 3.59906373e-12 3.989382279e-12 1.036808862e-11)
5(8.039802207e-13 2.700177032e-12 6.525884449e-12 1.517839384e-11 2.490228427e-11)
5(8.463248667e-13 3.166587901e-12 8.322435503e-12 2.719334e-11 3.7915879e-11)
)


60
(
5(-2.482614866e-07 2.040243613e-08 -2.607230264e-07 -9.807092288e-08 -1.784706169e-07)
5(-1.7253147e-07 2.197423305e-08 -1.763005798e-07 -6.555647323e-08 -1.240253914e-07)
5(-4.724135828e-08 2.777142774e-08 -4.362218705e-08 -1.238496039e-08 -3.630191317e-08)
5(3.779435243e-08 3.797391049e-08 3.144730651e-08 2.012415992e-08 1.577421152e-08)
5(8.230620461e-08 4.615358505e-08 6.043408505e-08 3.51067534e-08 3.878872364e-08)
5(8.049056558e-08 4.627942662e-08 5.291166732e-08 3.406181954e-08 3.600918557e-08)
5(5.944975272e-08 4.477568508e-08 3.673395538e-08 2.889295427e-08 2.451878291e-08)
5(4.848514638e-08 4.834407386e-08 3.087059511e-08 3.016334409e-08 2.101693369e-08)
5(5.144143704e-08 5.496190346e-08 3.803738198e-08 3.686879371e-08 2.764661481e-08)
5(6.753230676e-08 6.312388756e-08 5.194790464e-08 4.638250995e-08 3.835207745e-08)
5(8.178722283e-08 7.368117579e-08 6.525818185e-08 5.658706093e-08 4.81586196e-08)
5(9.093652872e-08 8.512336755e-08 7.665242409e-08 6.707556005e-08 5.75761199e-08)
5(1.040288494e-07 9.775573542e-08 8.815441031e-08 7.798956305e-08 6.675147636e-08)
5(1.174633225e-07 1.137845776e-07 1.019380311e-07 9.145707456e-08 7.790390513e-08)
5(1.335524049e-07 1.323423883e-07 1.193382868e-07 1.089312739e-07 9.343525104e-08)
5(1.579070331e-07 1.552060084e-07 1.417696183e-07 1.307981071e-07 1.135267761e-07)
5(1.8761091e-07 1.851383693e-07 1.707792501e-07 1.588425139e-07 1.37456282e-07)
5(2.197889695e-07 2.232491835e-07 2.073174463e-07 1.944022113e-07 1.677411513e-07)
5(2.616624931e-07 2.698016662e-07 2.525913544e-07 2.395942033e-07 2.071514246e-07)
5(3.154674606e-07 3.288915402e-07 3.113292495e-07 2.986072223e-07 2.601113003e-07)
5(3.844192893e-07 4.056016956e-07 3.894827789e-07 3.760050069e-07 3.297318545e-07)
5(4.69370004e-07 5.076219457e-07 4.921295999e-07 4.808151075e-07 4.248226345e-07)
5(5.775349004e-07 6.463304167e-07 6.334563155e-07 6.292465383e-07 5.586757499e-07)
5(7.332989737e-07 8.323401008e-07 8.277731149e-07 8.343428017e-07 7.482128537e-07)
5(9.405439363e-07 1.090001096e-06 1.095976687e-06 1.122039692e-06 1.018053401e-06)
5(1.222018848e-06 1.44822396e-06 1.47667092e-06 1.527973327e-06 1.392583127e-06)
5(1.61797739e-06 1.945823526e-06 2.008974886e-06 2.087113514e-06 1.899722538e-06)
5(2.170002132e-06 2.635785865e-06 2.743751436e-06 2.850720955e-06 2.602514914e-06)
5(2.925888202e-06 3.575923624e-06 3.743582924e-06 3.873612684e-06 3.53857838e-06)
5(3.973082964e-06 4.840907387e-06 5.08407005e-06 5.212629562e-06 4.72249706e-06)
5(5.38544433e-06 6.509093824e-06 6.799911788e-06 6.887426227e-06 6.173508576e-06)
5(7.215155381e-06 8.599230888e-06 8.929528463e-06 8.883777002e-06 7.868286568e-06)
5(9.548779972e-06 1.114907324e-05 1.146282412e-05 1.114270154e-05 9.622168575e-06)
5(1.242403349e-05 1.416302596e-05 1.431065945e-05 1.344759094e-05 1.126167664e-05)
5(1.580040627e-05 1.739826758e-05 1.721201335e-05 1.55057938e-05 1.249495685e-05)
5(1.948279743e-05 2.055993938e-05 1.974000543e-05 1.689660622e-05 1.290608138e-05)
5(2.312455428e-05 2.325849164e-05 2.137910731e-05 1.709177352e-05 1.211929241e-05)
5(2.62179511e-05 2.467545878e-05 2.141180318e-05 1.55257069e-05 9.486955231e-06)
5(2.80213204e-05 2.42841058e-05 1.919386269e-05 1.172292156e-05 4.57753198e-06)
5(2.7661506e-05 2.11837404e-05 1.413307611e-05 5.60119288e-06 -2.214439162e-06)
5(2.414111159e-05 1.50251232e-05 6.482646693e-06 -2.517949771e-06 -9.488273662e-06)
5(1.726924029e-05 5.865648567e-06 -3.174831573e-06 -1.165003099e-05 -1.541037077e-05)
5(7.018297304e-06 -5.905956049e-06 -1.372925811e-05 -1.986684391e-05 -1.859788838e-05)
5(-6.229778063e-06 -1.789958095e-05 -2.329680965e-05 -2.503385018e-05 -1.864780433e-05)
5(-2.029943788e-05 -2.81349835e-05 -3.001006444e-05 -2.585124019e-05 -1.602822372e-05)
5(-3.237118918e-05 -3.482748464e-05 -3.2253918e-05 -2.246983542e-05 -1.176383749e-05)
5(-4.016253076e-05 -3.644819116e-05 -2.94071073e-05 -1.664096994e-05 -7.273565886e-06)
5(-4.180693621e-05 -3.294117574e-05 -2.263439426e-05 -1.052881775e-05 -3.739775302e-06)
5(-3.747039298e-05 -2.561120817e-05 -1.459224676e-05 -5.615049767e-06 -1.591732685e-06)
5(-2.878057963e-05 -1.68299339e-05 -7.819538097e-06 -2.469090705e-06 -5.681559614e-07)
5(-1.859565793e-05 -9.073560369e-06 -3.449267984e-06 -8.812378527e-07 -1.753060347e-07)
5(-9.828414108e-06 -3.918659542e-06 -1.201944593e-06 -2.659746431e-07 -4.676016523e-08)
5(-4.028030835e-06 -1.329207749e-06 -3.405474881e-07 -6.798078804e-08 -1.10562927e-08)
5(-1.312646689e-06 -3.484772029e-07 -7.943201616e-08 -1.487895088e-08 -2.299685263e-09)
5(-2.880953654e-07 -6.58091066e-08 -1.398465185e-08 -2.725561025e-09 -4.232365974e-10)
5(-4.322472502e-08 -9.871205742e-09 -1.977568431e-09 -4.028413222e-10 -5.526445533e-11)
5(-3.78812083e-09 -8.743505806e-10 -2.112663407e-10 -3.880250803e-11 4.841657758e-12)
5(-2.188819057e-10 -6.493190315e-11 -9.896849814e-12 4.25141739e-12 1.625677738e-11)
5(-9.927353961e-12 -3.577588714e-12 1.485009413e-09 9.803288122e-12 2.199115504e-11)
5(-4.212580354e-12 -1.139137684e-12 2.967952647e-09 1.199471949e-11 2.481291851e-11)
)


60
(
5(-1.719154394e-07 1.451862033e-07 -2.835992204e-07 -9.380668785e-08 -1.988475779e-07)
5(-1.104695727e-07 1.260150965e-07 -1.800503033e-07 -5.519442008e-08 -1.325066474e-07)
5(1.004979159e-08 9.953431019e-08 -1.583215666e-08 8.622195412e-09 -2.579921862e-08)
5(1.143654878e-07 9.8093317e-08 7.758433242e-08 4.948585841e-08 3.659042845e-08)
5(1.804689829e-07 1.091616794e-07 1.156658457e-07 7.008157093e-08 6.659987459e-08)
5(1.83503621e-07 1.122955904e-07 1.0780607e-07 7.071418734e-08 6.700666736e-08)
5(1.488795987e-07 1.105432399e-07 8.646350767e-08 6.659635707e-08 5.546426473e-08)
5(1.276748577e-07 1.15376581e-07 8.039166728e-08 7.130408523e-08 5.517130838e-08)
5(1.389055067e-07 1.287414967e-07 9.488586561e-08 8.49693479e-08 6.691018906e-08)
5(1.705057947e-07 1.48570874e-07 1.198015491e-07 1.040656332e-07 8.616497437e-08)
5(1.99584943e-07 1.711665426e-07 1.45318271e-07 1.248760902e-07 1.074913453e-07)
5(2.195080992e-07 1.926456959e-07 1.697524189e-07 1.459023957e-07 1.266009977e-07)
5(2.423029008e-07 2.171125284e-07 1.935580851e-07 1.684959934e-07 1.454479209e-07)
5(2.738817762e-07 2.498539299e-07 2.215202454e-07 1.955707922e-07 1.691553649e-07)
5(3.170065509e-07 2.896219033e-07 2.5756476e-07 2.284697997e-07 1.985008153e-07)
5(3.591134899e-07 3.360536217e-07 3.005869653e-07 2.6693611e-07 2.325324496e-07)
5(4.075906217e-07 3.899647032e-07 3.510529899e-07 3.129251498e-07 2.751253944e-07)
5(4.779971162e-07 4.520131342e-07 4.10658511e-07 3.708553771e-07 3.265173722e-07)
5(5.538069096e-07 5.271279429e-07 4.835315689e-07 4.409086751e-07 3.870517386e-07)
5(6.49780553e-07 6.167986812e-07 5.728683187e-07 5.26804257e-07 4.628438177e-07)
5(7.502266276e-07 7.247090198e-07 6.828093907e-07 6.364746222e-07 5.690713147e-07)
5(8.692244847e-07 8.630382166e-07 8.18443187e-07 7.756720611e-07 7.048142883e-07)
5(1.031355304e-06 1.039295553e-06 9.961706829e-07 9.644137729e-07 8.838563946e-07)
5(1.230265607e-06 1.267458843e-06 1.240730063e-06 1.22707187e-06 1.139009622e-06)
5(1.474862155e-06 1.573286314e-06 1.576736274e-06 1.595395031e-06 1.49664277e-06)
5(1.802614405e-06 1.990049119e-06 2.038643939e-06 2.094949767e-06 1.99360914e-06)
5(2.266615232e-06 2.550892311e-06 2.659635043e-06 2.782452817e-06 2.670993504e-06)
5(2.8624731e-06 3.328765502e-06 3.52708871e-06 3.732968826e-06 3.609901644e-06)
5(3.696710958e-06 4.394825585e-06 4.731336899e-06 5.016320506e-06 4.886450891e-06)
5(4.84345266e-06 5.8245015e-06 6.326075217e-06 6.710940169e-06 6.485483927e-06)
5(6.37390128e-06 7.741574215e-06 8.409949999e-06 8.88067847e-06 8.516528022e-06)
5(8.429292591e-06 1.020143524e-05 1.107182042e-05 1.156298365e-05 1.095148699e-05)
5(1.108277296e-05 1.32469197e-05 1.431847915e-05 1.46395009e-05 1.368678837e-05)
5(1.43585545e-05 1.69070879e-05 1.805888805e-05 1.800683583e-05 1.648592718e-05)
5(1.828149668e-05 2.105679082e-05 2.207097012e-05 2.143214951e-05 1.902610868e-05)
5(2.283630661e-05 2.537602764e-05 2.59865884e-05 2.435374404e-05 2.08874212e-05)
5(2.74013958e-05 2.944315056e-05 2.91732237e-05 2.611046018e-05 2.129160399e-05)
5(3.173823887e-05 3.26251972e-05 3.076923041e-05 2.593233222e-05 1.940645773e-05)
5(3.508485959e-05 3.386694226e-05 3.002787158e-05 2.304607074e-05 1.460971839e-05)
5(3.61369768e-05 3.219642288e-05 2.608320202e-05 1.687892225e-05 6.731553027e-06)
5(3.434686533e-05 2.700134604e-05 1.822225994e-05 7.308625477e-06 -3.363171282e-06)
5(2.857843959e-05 1.763390009e-05 6.681134365e-06 -4.994594311e-06 -1.386881515e-05)
5(1.800620915e-05 4.355835888e-06 -7.350590009e-06 -1.826419122e-05 -2.299112503e-05)
5(3.555048576e-06 -1.145281449e-05 -2.224991509e-05 -2.986165225e-05 -2.890409089e-05)
5(-1.345056051e-05 -2.755106897e-05 -3.554099858e-05 -3.721496734e-05 -3.059449528e-05)
5(-3.095148784e-05 -4.085810732e-05 -4.435557852e-05 -3.893706125e-05 -2.793379696e-05)
5(-4.534621437e-05 -4.912105903e-05 -4.651465206e-05 -3.507531497e-05 -2.200168983e-05)
5(-5.37243502e-05 -5.064024504e-05 -4.179231055e-05 -2.724795966e-05 -1.490243044e-05)
5(-5.462805617e-05 -4.506498025e-05 -3.221241324e-05 -1.829714747e-05 -8.54044115e-06)
5(-4.798272116e-05 -3.456712918e-05 -2.109342367e-05 -1.042923951e-05 -4.121547609e-06)
5(-3.628590055e-05 -2.246578078e-05 -1.162896999e-05 -4.926143322e-06 -1.645897562e-06)
5(-2.311706994e-05 -1.201032996e-05 -5.239253992e-06 -1.93339347e-06 -5.392321905e-07)
5(-1.184153949e-05 -5.109647499e-06 -1.867447235e-06 -6.009912345e-07 -1.520997093e-07)
5(-4.645797064e-06 -1.674686564e-06 -5.168223171e-07 -1.505595745e-07 -3.533187189e-08)
5(-1.299190832e-06 -4.000637588e-07 -1.03478233e-07 -2.83960479e-08 -6.689426637e-09)
5(-2.535636907e-07 -6.67058102e-08 -1.558979433e-08 -4.44149339e-09 -1.085022094e-09)
5(-2.851228511e-08 -7.345305533e-09 -1.532979078e-09 -5.095874889e-10 -1.104940626e-10)
5(-1.865935818e-09 -4.598125046e-09 -1.039559563e-10 -2.367331811e-09 1.030551954e-11)
5(-4.895727845e-11 -6.979385551e-13 3.260047987e-09 1.822277372e-11 2.31778984e-11)
5(-1.440851242e-11 8.410543153e-09 6.525929044e-09 4.689532489e-09 2.529310436e-11)
)


60
(
5(1.139885358e-08 3.608966744e-07 -2.724402247e-07 -7.492918847e-08 -2.180025677e-07)
5(4.591131455e-08 3.05456382e-07 -1.539257548e-07 -2.967931233e-08 -1.387946912e-07)
5(1.297023699e-07 2.212120377e-07 3.88279217e-08 4.663452084e-08 -9.661101469e-09)
5(2.437816372e-07 1.971492764e-07 1.555265188e-07 9.813521934e-08 7.164330056e-08)
5(3.372889133e-07 2.110462467e-07 2.036914871e-07 1.258529771e-07 1.147669724e-07)
5(3.387837371e-07 2.150272366e-07 1.92562508e-07 1.307871638e-07 1.182968739e-07)
5(2.86076438e-07 2.138088898e-07 1.669148281e-07 1.301506883e-07 1.058860047e-07)
5(2.651635362e-07 2.275132845e-07 1.632267294e-07 1.399457359e-07 1.092560144e-07)
5(2.901616003e-07 2.512883325e-07 1.889324263e-07 1.639469036e-07 1.318689693e-07)
5(3.316948414e-07 2.851279705e-07 2.323196176e-07 1.987743204e-07 1.659615457e-07)
5(3.809392101e-07 3.25207632e-07 2.787834439e-07 2.368502217e-07 2.010228376e-07)
5(4.323456029e-07 3.690117547e-07 3.244981359e-07 2.741550018e-07 2.342449634e-07)
5(4.736083244e-07 4.19349696e-07 3.685281821e-07 3.138783056e-07 2.714784676e-07)
5(5.222820633e-07 4.776341456e-07 4.176430255e-07 3.6177327e-07 3.09045212e-07)
5(5.952989287e-07 5.41368984e-07 4.774990877e-07 4.173585248e-07 3.549475269e-07)
5(6.891819638e-07 6.177937579e-07 5.511649262e-07 4.792882226e-07 4.120344197e-07)
5(7.765589144e-07 7.125620052e-07 6.391596106e-07 5.536777226e-07 4.74482788e-07)
5(8.912030822e-07 8.125405692e-07 7.317594186e-07 6.410820989e-07 5.514954474e-07)
5(1.01400441e-06 9.265795445e-07 8.376054414e-07 7.380067752e-07 6.366243294e-07)
5(1.142589498e-06 1.065140535e-06 9.578247743e-07 8.463542196e-07 7.358755657e-07)
5(1.332779986e-06 1.207181542e-06 1.095333067e-06 9.815037299e-07 8.764793329e-07)
5(1.516771504e-06 1.375831648e-06 1.271620939e-06 1.147483267e-06 1.037957198e-06)
5(1.660261558e-06 1.5931559e-06 1.492217818e-06 1.358109758e-06 1.245896009e-06)
5(1.889862976e-06 1.850969352e-06 1.749210176e-06 1.649757846e-06 1.529104012e-06)
5(2.201916385e-06 2.160049425e-06 2.087826439e-06 2.043071889e-06 1.926055312e-06)
5(2.541479952e-06 2.564122454e-06 2.570589269e-06 2.578046122e-06 2.493188903e-06)
5(2.983206147e-06 3.124628398e-06 3.220205324e-06 3.310337627e-06 3.244389209e-06)
5(3.567416035e-06 3.893245143e-06 4.105664499e-06 4.315733829e-06 4.278411902e-06)
5(4.353795588e-06 4.93647367e-06 5.329459419e-06 5.677071258e-06 5.679196273e-06)
5(5.428296121e-06 6.343264938e-06 6.990855908e-06 7.499361821e-06 7.538943805e-06)
5(6.901507296e-06 8.239671481e-06 9.186914748e-06 9.877027713e-06 9.911474573e-06)
5(8.860544791e-06 1.070943864e-05 1.199533004e-05 1.287211107e-05 1.28063018e-05)
5(1.142042381e-05 1.386173655e-05 1.549035218e-05 1.642589283e-05 1.614698685e-05)
5(1.468804156e-05 1.774749252e-05 1.96725544e-05 2.048738548e-05 1.984371135e-05)
5(1.8658148e-05 2.22557067e-05 2.433336575e-05 2.485828452e-05 2.345524341e-05)
5(2.33093848e-05 2.714326441e-05 2.918721214e-05 2.896798965e-05 2.654409684e-05)
5(2.849414478e-05 3.213683578e-05 3.361831303e-05 3.219781178e-05 2.847444695e-05)
5(3.362185235e-05 3.653991282e-05 3.683418988e-05 3.370349095e-05 2.810827819e-05)
5(3.796481781e-05 3.938293016e-05 3.789349966e-05 3.244523252e-05 2.44383266e-05)
5(4.08467383e-05 3.982445027e-05 3.555624223e-05 2.758715928e-05 1.694510777e-05)
5(4.089783121e-05 3.660316343e-05 2.901775454e-05 1.848487588e-05 6.278388572e-06)
5(3.721282562e-05 2.876244361e-05 1.798690787e-05 5.276575818e-06 -6.779556658e-06)
5(2.898429772e-05 1.618742065e-05 2.846634569e-06 -1.072410087e-05 -2.022035996e-05)
5(1.589723047e-05 -4.299516743e-07 -1.504084629e-05 -2.69764584e-05 -3.16117247e-05)
5(-1.300935914e-06 -1.936519283e-05 -3.313840633e-05 -4.045133122e-05 -3.932930669e-05)
5(-2.099875039e-05 -3.782325464e-05 -4.815274577e-05 -4.847014197e-05 -4.143163621e-05)
5(-3.985751159e-05 -5.246932375e-05 -5.666575086e-05 -4.974641965e-05 -3.782902554e-05)
5(-5.490192093e-05 -6.066202131e-05 -5.707472966e-05 -4.455557394e-05 -2.998718995e-05)
5(-6.331693187e-05 -6.069975723e-05 -5.009579286e-05 -3.470376407e-05 -2.046611429e-05)
5(-6.308060453e-05 -5.280354332e-05 -3.765726296e-05 -2.31404101e-05 -1.198920764e-05)
5(-5.508210489e-05 -3.972005876e-05 -2.391909176e-05 -1.306250199e-05 -5.885297882e-06)
5(-4.190154016e-05 -2.505732763e-05 -1.279228306e-05 -6.181781167e-06 -2.376400744e-06)
5(-2.668210508e-05 -1.280457366e-05 -5.565939829e-06 -2.318510885e-06 -7.690899596e-07)
5(-1.342724557e-05 -5.199768134e-06 -1.871034824e-06 -6.947797804e-07 -2.052021532e-07)
5(-5.168158651e-06 -1.568946463e-06 -4.533620751e-07 -1.576852638e-07 -4.294467667e-08)
5(-1.460094712e-06 -3.243235261e-07 -7.475592272e-08 -2.538673982e-08 -6.89505329e-09)
5(-2.367162702e-07 -4.053565809e-08 -8.404012665e-09 -2.73417394e-09 -8.614410558e-10)
5(-1.629407017e-08 1.944573409e-08 -6.995758535e-10 1.898854971e-08 -4.080959317e-11)
5(-1.099150157e-09 9.252182168e-09 -1.359908512e-10 -5.750117442e-12 2.042516325e-11)
5(-5.197801783e-11 -2.67940234e-08 1.918726504e-10 -3.821972577e-08 2.418338052e-11)
)


60
(
5(3.22668847e-07 6.719804728e-07 -2.147874821e-07 -3.051046229e-08 -2.244900684e-07)
5(3.079446395e-07 5.643133761e-07 -8.486324784e-08 1.97911737e-08 -1.323686223e-07)
5(3.222240057e-07 3.975086112e-07 1.308438493e-07 1.072471425e-07 2.103288089e-08)
5(4.280222346e-07 3.383807001e-07 2.663508234e-07 1.70046027e-07 1.23973187e-07)
5(5.430627438e-07 3.514800532e-07 3.226407125e-07 2.068850719e-07 1.832017376e-07)
5(5.485478285e-07 3.600379544e-07 3.109705607e-07 2.172335102e-07 1.932290812e-07)
5(4.831615584e-07 3.630280452e-07 2.848317796e-07 2.216145964e-07 1.814477093e-07)
5(4.552869319e-07 3.851653347e-07 2.865751287e-07 2.424830651e-07 1.910777479e-07)
5(4.94390298e-07 4.264399038e-07 3.281042175e-07 2.830757298e-07 2.285258317e-07)
5(5.623425133e-07 4.824409538e-07 3.964410698e-07 3.377214587e-07 2.825395766e-07)
5(6.414598832e-07 5.484119981e-07 4.712113518e-07 3.97481005e-07 3.384393394e-07)
5(7.191771289e-07 6.243462727e-07 5.446048879e-07 4.607945817e-07 3.932437334e-07)
5(8.099968241e-07 7.045398422e-07 6.207664616e-07 5.288210498e-07 4.48094241e-07)
5(8.939348303e-07 7.97297003e-07 7.06073741e-07 6.046039879e-07 5.11660955e-07)
5(9.872505986e-07 9.041442539e-07 8.064773257e-07 6.919360773e-07 5.882508996e-07)
5(1.142079168e-06 1.028922147e-06 9.18169836e-07 7.903895889e-07 6.702879577e-07)
5(1.300461506e-06 1.172222616e-06 1.039813749e-06 9.010791305e-07 7.604117539e-07)
5(1.464416203e-06 1.323950272e-06 1.181784444e-06 1.016431536e-06 8.640241071e-07)
5(1.659537595e-06 1.497613425e-06 1.337389526e-06 1.14630643e-06 9.851182493e-07)
5(1.870270137e-06 1.685553401e-06 1.502694788e-06 1.299260854e-06 1.117628242e-06)
5(2.084811787e-06 1.880478895e-06 1.689355887e-06 1.465011416e-06 1.283551375e-06)
5(2.326391003e-06 2.102421913e-06 1.89798396e-06 1.659370747e-06 1.468062878e-06)
5(2.601699637e-06 2.355292046e-06 2.130832221e-06 1.897103261e-06 1.707141973e-06)
5(2.879379475e-06 2.639339939e-06 2.413145909e-06 2.195273185e-06 2.010592985e-06)
5(3.163735001e-06 2.973372896e-06 2.778772307e-06 2.588511928e-06 2.420747585e-06)
5(3.496385414e-06 3.33375385e-06 3.246435816e-06 3.117984707e-06 2.992415498e-06)
5(3.938277504e-06 3.829133863e-06 3.84522362e-06 3.828369025e-06 3.743486557e-06)
5(4.483079366e-06 4.544929796e-06 4.663568454e-06 4.80007311e-06 4.803979578e-06)
5(5.14864118e-06 5.47301315e-06 5.809548854e-06 6.127534869e-06 6.244238426e-06)
5(6.056157653e-06 6.731258715e-06 7.381584157e-06 7.907355883e-06 8.148710158e-06)
5(7.297035539e-06 8.417543265e-06 9.452482486e-06 1.028987977e-05 1.066412978e-05)
5(8.973906727e-06 1.068471868e-05 1.21769188e-05 1.333574606e-05 1.3717354e-05)
5(1.123241121e-05 1.368235765e-05 1.568698242e-05 1.705212218e-05 1.738541798e-05)
5(1.419899646e-05 1.738665872e-05 1.989473187e-05 2.141810946e-05 2.162018703e-05)
5(1.795427981e-05 2.182691976e-05 2.478023231e-05 2.626162831e-05 2.603539315e-05)
5(2.2408824e-05 2.690868298e-05 3.019293964e-05 3.12219721e-05 3.028571322e-05)
5(2.740814216e-05 3.23265675e-05 3.553173097e-05 3.574633116e-05 3.362786721e-05)
5(3.283216699e-05 3.76534988e-05 4.007176913e-05 3.890894066e-05 3.49833172e-05)
5(3.807756076e-05 4.196961392e-05 4.27954472e-05 3.960975485e-05 3.313948189e-05)
5(4.223575861e-05 4.426772324e-05 4.263320392e-05 3.684876023e-05 2.718523384e-05)
5(4.434744942e-05 4.341295469e-05 3.849293084e-05 2.95175407e-05 1.726244582e-05)
5(4.335065157e-05 3.834657907e-05 2.934586062e-05 1.716191854e-05 3.687605657e-06)
5(3.813427818e-05 2.832888207e-05 1.521656938e-05 6.186320956e-07 -1.213319337e-05)
5(2.801330151e-05 1.317891752e-05 -3.441835207e-06 -1.832205811e-05 -2.79401843e-05)
5(1.311650755e-05 -5.838940003e-06 -2.414999469e-05 -3.664986915e-05 -4.131272075e-05)
5(-5.373942937e-06 -2.66906071e-05 -4.394214713e-05 -5.098124127e-05 -4.959018851e-05)
5(-2.556093048e-05 -4.631910587e-05 -5.964519203e-05 -5.891184952e-05 -5.122257443e-05)
5(-4.523437965e-05 -6.152521574e-05 -6.723605414e-05 -5.915223623e-05 -4.618759629e-05)
5(-6.091452985e-05 -6.955399554e-05 -6.546186931e-05 -5.181358883e-05 -3.635691679e-05)
5(-6.958394811e-05 -6.862722379e-05 -5.565282816e-05 -3.954836245e-05 -2.46409599e-05)
5(-6.98793412e-05 -5.942449254e-05 -4.098823741e-05 -2.603807331e-05 -1.411847212e-05)
5(-6.201247868e-05 -4.400526305e-05 -2.558800959e-05 -1.44520665e-05 -6.862875925e-06)
5(-4.830615395e-05 -2.734114419e-05 -1.316634534e-05 -6.596234871e-06 -2.741872858e-06)
5(-3.224334679e-05 -1.426162259e-05 -5.387987886e-06 -2.343789453e-06 -8.236518264e-07)
5(-1.711203322e-05 -5.827504454e-06 -1.648200802e-06 -6.310075936e-07 -2.107754884e-07)
5(-6.944477862e-06 -1.681154349e-06 -3.58377679e-07 -1.172045895e-07 -3.689021553e-08)
5(-2.274250219e-06 -3.287299702e-07 -4.835064399e-08 -1.478142625e-08 -3.850197292e-09)
5(-4.318032202e-07 -2.160555638e-08 -3.247432488e-09 7.007476041e-09 -3.209755769e-10)
5(-3.726695639e-08 -2.329025122e-09 1.541985514e-08 -9.614778401e-11 2.150639417e-13)
5(1.120314442e-09 -2.986274146e-08 3.113252482e-08 -1.639926302e-08 7.026779424e-12)
)


60
(
5(7.716980843e-07 1.085317137e-06 -1.028149801e-07 4.208931676e-08 -2.115254864e-07)
5(6.804023427e-07 9.084190812e-07 3.347233832e-08 9.633475919e-08 -1.079030026e-07)
5(5.86268938e-07 6.281330022e-07 2.632569198e-07 1.932438236e-07 7.161321675e-08)
5(6.732393153e-07 5.191146502e-07 4.113293481e-07 2.674280387e-07 1.992204904e-07)
5(8.103012514e-07 5.345847776e-07 4.744850032e-07 3.160203951e-07 2.746739804e-07)
5(8.098946392e-07 5.502603672e-07 4.662442206e-07 3.34825659e-07 2.94185037e-07)
5(7.307852425e-07 5.570124981e-07 4.42444564e-07 3.475462575e-07 2.862683006e-07)
5(7.090454243e-07 5.951212474e-07 4.543479311e-07 3.834611559e-07 3.051689346e-07)
5(7.655406489e-07 6.573847633e-07 5.18782474e-07 4.460789369e-07 3.630495353e-07)
5(8.693754024e-07 7.435091642e-07 6.20038804e-07 5.283282822e-07 4.433149255e-07)
5(9.775550325e-07 8.448400712e-07 7.310957267e-07 6.195370839e-07 5.26480219e-07)
5(1.099655119e-06 9.577400379e-07 8.439192284e-07 7.161048597e-07 6.093145988e-07)
5(1.223565469e-06 1.084005442e-06 9.60249515e-07 8.199328452e-07 6.932277024e-07)
5(1.37194307e-06 1.228284585e-06 1.090451538e-06 9.353155199e-07 7.903768615e-07)
5(1.550583676e-06 1.393840589e-06 1.240884985e-06 1.062099373e-06 8.978399798e-07)
5(1.741646357e-06 1.575456146e-06 1.407587191e-06 1.204089245e-06 1.021291098e-06)
5(1.980280379e-06 1.784247835e-06 1.592991035e-06 1.361129682e-06 1.15352959e-06)
5(2.22283376e-06 2.009607801e-06 1.792305994e-06 1.533325474e-06 1.298659582e-06)
5(2.50499793e-06 2.247096919e-06 2.006954842e-06 1.717393021e-06 1.459016935e-06)
5(2.820942341e-06 2.509285806e-06 2.234433653e-06 1.908897294e-06 1.623305731e-06)
5(3.094862732e-06 2.776857733e-06 2.466834994e-06 2.118324564e-06 1.830284916e-06)
5(3.436411081e-06 3.056539943e-06 2.728389887e-06 2.345852881e-06 2.052464147e-06)
5(3.80446711e-06 3.35871244e-06 3.011340651e-06 2.608783119e-06 2.308272349e-06)
5(4.099281299e-06 3.662363838e-06 3.309431397e-06 2.929531814e-06 2.647640187e-06)
5(4.43855033e-06 3.986530914e-06 3.673717327e-06 3.315654442e-06 3.051180128e-06)
5(4.840485696e-06 4.382056076e-06 4.114599602e-06 3.810886353e-06 3.585779954e-06)
5(5.220385044e-06 4.856858587e-06 4.656980893e-06 4.473049919e-06 4.340378126e-06)
5(5.601798613e-06 5.420754369e-06 5.380329208e-06 5.35924347e-06 5.342988346e-06)
5(6.153245273e-06 6.169929196e-06 6.39119683e-06 6.565445505e-06 6.695402869e-06)
5(6.9238451e-06 7.23640706e-06 7.776773987e-06 8.224597712e-06 8.574329556e-06)
5(7.891683779e-06 8.690851351e-06 9.63213421e-06 1.042275159e-05 1.101394168e-05)
5(9.190476804e-06 1.061619465e-05 1.211661245e-05 1.329400306e-05 1.407313492e-05)
5(1.094945549e-05 1.3153137e-05 1.531845052e-05 1.693928278e-05 1.797721484e-05)
5(1.344103636e-05 1.644750986e-05 1.932245926e-05 2.132941082e-05 2.241362757e-05)
5(1.665865743e-05 2.05907782e-05 2.414680607e-05 2.640054798e-05 2.722794002e-05)
5(2.055348619e-05 2.551164613e-05 2.965247569e-05 3.19113053e-05 3.22869551e-05)
5(2.527239324e-05 3.101482451e-05 3.546081681e-05 3.725890556e-05 3.681488821e-05)
5(3.055949977e-05 3.66393292e-05 4.089446843e-05 4.171773474e-05 3.981185159e-05)
5(3.603484887e-05 4.178216573e-05 4.515408971e-05 4.431349965e-05 3.994036533e-05)
5(4.102178191e-05 4.574861247e-05 4.707035883e-05 4.380388206e-05 3.58083961e-05)
5(4.469508703e-05 4.729176833e-05 4.546254619e-05 3.886079364e-05 2.782119946e-05)
5(4.607039116e-05 4.512759284e-05 3.921040823e-05 2.86994197e-05 1.534868488e-05)
5(4.410518965e-05 3.837926076e-05 2.755880998e-05 1.348014778e-05 -1.19175408e-06)
5(3.81387423e-05 2.662674501e-05 1.043002084e-05 -5.871759302e-06 -1.946909048e-05)
5(2.717800952e-05 1.009908011e-05 -1.060306469e-05 -2.703832971e-05 -3.731706874e-05)
5(1.067670684e-05 -1.017887849e-05 -3.310139493e-05 -4.665385193e-05 -5.166542827e-05)
5(-7.760438031e-06 -3.209387469e-05 -5.40311148e-05 -6.134397632e-05 -5.976061946e-05)
5(-2.755037024e-05 -5.250880664e-05 -6.903759902e-05 -6.85571458e-05 -6.000043388e-05)