/*--------------------------------*- C++ -*----------------------------------*\
| =========                 |                                                 |
| \\      /  F ield         | OpenFOAM: The Open Source CFD Toolbox           |
|  \\    /   O peration     | Version:  2.3.1                                 |
|   \\  /    A nd           | Web:      www.OpenFOAM.org                      |
|    \\/     M anipulation  |                                                 |
\*---------------------------------------------------------------------------*/
FoamFile
{
    version     2.0;
    format      ascii;
    class       dictionary;
    location    "constant";
    object      GRPSI9;
}
// * * * * * * * * * * * * * * * * * * * * * * * * * * * * * * * * * * * * * //

GRPSI9_table
60
(

60
(
5(-3.861781917e-05 -8.723078204e-05 -8.375763474e-05 -7.153012116e-05 -0.0001621323974)
5(0.0001308222702 -2.045306553e-05 -6.163968591e-05 -5.97540259e-05 -0.0001772207926)
5(0.0004376650762 3.565551631e-05 -5.963360941e-06 -4.43497858e-05 -8.732309027e-06)
5(0.0004899819334 1.465156534e-05 1.985594111e-05 1.31231514e-05 7.090061772e-05)
5(0.000258355675 4.621853513e-06 -2.802226596e-05 4.366005182e-05 -2.481321584e-05)
5(-0.0006265818236 8.720980877e-06 -1.681812798e-05 4.760026379e-06 4.041919833e-05)
5(-0.0006976483109 1.999294729e-05 5.629241914e-05 2.039687197e-05 6.505283454e-06)
5(0.0009976112527 3.435670671e-05 6.458840579e-05 4.99989899e-05 1.165273003e-06)
5(0.001431964717 8.946084346e-05 7.281717779e-05 4.66754449e-05 7.667649479e-05)
5(0.0005887508249 0.0001228735515 7.159625387e-05 5.903890952e-05 6.313166209e-05)
5(-0.000595767091 1.096866684e-05 3.230423512e-05 6.240146006e-05 6.11632337e-05)
5(-0.00149547696 -5.597041843e-06 3.53410391e-05 8.105952962e-05 7.605076063e-05)
5(-0.00068259394 8.303243593e-05 7.849622138e-05 8.832279193e-05 8.685797139e-05)
5(7.1417795e-05 8.822648036e-05 9.843857658e-05 0.0001074047808 0.0001025136317)
5(0.0001896654523 0.0002355861017 0.0001670644648 0.0001867729608 0.0001522273974)
5(0.0002274511301 0.0002437411172 0.0002248007584 0.0001894228451 0.0001903271612)
5(5.398309436e-05 0.0001040804357 0.0001397219358 0.0001858626207 0.000222822431)
5(1.362575966e-05 0.0001102942285 0.0001490026833 0.000240562504 0.0003094438717)
5(0.0001242589929 0.0001639570941 0.0002719388493 0.0003308521117 0.0003494084092)
5(0.0002072129932 0.0002379919071 0.0003061442564 0.0003875638119 0.0003323129052)
5(0.0002353152993 0.0002942258768 0.0003711357635 0.000331283425 0.0003493143692)
5(0.0003032557062 0.0003743621497 0.0004481198526 0.0004726936255 0.0005272787492)
5(0.0003436067906 0.0004802599918 0.0004975408586 0.0006448303855 0.0006683567406)
5(0.0004062912912 0.0005828830215 0.000612936921 0.0007241466215 0.0007462732976)
5(0.0004866086481 0.0006836743079 0.0007716376706 0.0009008061968 0.0008652737462)
5(0.0005445262391 0.0006962339088 0.0008100711838 0.001012134112 0.0009542286314)
5(0.0006142498701 0.0006836775481 0.000908818986 0.001090134673 0.001067722578)
5(0.0007563215172 0.0008626349302 0.001039639697 0.001146179617 0.001193146003)
5(0.000886195242 0.001093360774 0.001098766578 0.001142639659 0.001261908099)
5(0.001000644441 0.001239105142 0.00133601141 0.001383025495 0.001373973003)
5(0.001130988426 0.001300331292 0.001402866135 0.001418281296 0.00112686691)
5(0.001213785224 0.001428293521 0.001507474152 0.001428733328 0.001557027932)
5(0.001379290767 0.001662870724 0.001842002515 0.001634599419 0.001501570082)
5(0.001578819583 0.001750150188 0.001875796554 0.001707871402 0.001021505022)
5(0.001724651141 0.002002869962 0.002250023324 0.001909837165 0.001508070754)
5(0.001874231764 0.001917209363 0.00180698512 0.001683930847 0.00193484709)
5(0.002029491322 0.002066467794 0.001521858536 0.001833063335 0.000388369576)
5(0.002256854768 0.002405600942 0.0024067982 0.001994570659 0.00166582755)
5(0.002676265768 0.002426274891 0.002868805258 0.002052469478 -0.006754138876)
5(0.002776023116 0.002316209564 0.002192621074 0.001800175687 -0.008290521079)
5(0.00253753052 0.002244741971 0.001617963519 -0.002159629463 0.001341069883)
5(0.002643281625 0.002128083226 0.001718319756 -0.009833417789 0.001451950782)
5(0.00297175322 0.002496822429 0.003857041585 -0.006033435259 0.00260649154)
5(0.003140175756 0.002613264192 0.003556736882 0.002229172051 0.002592590377)
5(0.002635480202 0.002503307319 0.0002427101114 0.00263209211 0.002468531099)
5(0.002193092543 0.001971719762 -0.008219001409 0.003169182657 0.003331141993)
5(0.001902715296 -0.001078134345 -0.009758068489 0.003559098248 0.003954913179)
5(0.002049276012 0.0001032033751 -0.0002389900883 0.004026127436 0.004562639962)
5(0.002158888375 -0.007731102061 0.003627001873 0.004640492079 0.005179528114)
5(0.0007516661406 -0.007524038826 0.004551701463 0.005301201782 0.00587223319)
5(-0.007458239659 0.00421024205 0.005190517481 0.006017073277 0.00664530097)
5(-0.008619122009 0.004995198713 0.005863954021 0.006755010741 0.007455679698)
5(0.0006504841577 0.005604477163 0.006618393386 0.00755706544 0.008394574839)
5(0.004694318593 0.006258700303 0.007428481665 0.008458734386 0.009397770004)
5(0.006409057529 0.007009288325 0.008292953649 0.009382428442 0.01041446047)
5(0.008427851562 0.007871753838 0.00925305648 0.01034995261 0.01147909994)
5(0.009490773658 0.009440826813 0.01037282948 0.01145620774 0.01235229367)
5(0.009259223412 0.0112511449 0.01238641418 0.01009677674 0.0135604394)
5(0.009363764828 0.01333317659 0.01630269011 0.01980222214 0.02034488174)
5(0.009628227393 0.01470976254 0.01882364397 0.03143401343 0.02626046629)
)


60
(
5(-1.112707614e-05 1.396679003e-05 -4.84638684e-05 -3.004201664e-05 -0.0001436430477)
5(-2.60661903e-06 2.059577412e-05 -2.586665456e-05 -8.443494577e-06 -9.036180348e-05)
5(1.416991604e-05 3.399899297e-05 1.713784959e-05 3.320041335e-05 4.024477666e-06)
5(3.126427558e-05 4.857619207e-05 5.536184998e-05 7.102121474e-05 8.018214445e-05)
5(4.773187689e-05 6.424920821e-05 8.484077494e-05 0.0001025526012 0.0001376981854)
5(6.023061497e-05 7.966193469e-05 0.0001018365341 0.000125283304 0.0001635783084)
5(6.954366509e-05 9.527897978e-05 0.0001144577177 0.0001441314878 0.0001699826101)
5(8.056980662e-05 0.0001128517129 0.0001314537429 0.0001664143518 0.0001838348144)
5(9.680972653e-05 0.0001342315399 0.0001560153109 0.0001955496857 0.0002151875166)
5(0.000116859459 0.000159435648 0.0001884367104 0.0002306356323 0.0002567014909)
5(0.0001400778833 0.000188044151 0.0002250557075 0.0002683753601 0.0002982189135)
5(0.0001661267968 0.0002210941707 0.000263247859 0.0003086642876 0.0003364928261)
5(0.0001950121287 0.000258271546 0.0003035726831 0.0003532908073 0.0003744158992)
5(0.000228775094 0.0003008876922 0.0003492488332 0.0004025923155 0.0004192744879)
5(0.0002689467566 0.0003508076732 0.0004036847946 0.0004593845136 0.0004750556516)
5(0.0003169103673 0.0004084219348 0.0004684027857 0.0005287651155 0.0005440493925)
5(0.0003722603037 0.0004766803351 0.0005434324381 0.0006101326557 0.0006248856036)
5(0.0004376272065 0.0005556836993 0.0006308888525 0.0007053629092 0.0007213165449)
5(0.0005137007823 0.0006473232213 0.0007318380551 0.0008175332754 0.000839299645)
5(0.0006027151841 0.0007552596654 0.0008503587413 0.0009463472466 0.0009742045421)
5(0.0007062664599 0.0008787972126 0.0009872053853 0.00109577499 0.00112729698)
5(0.000822393265 0.001018863503 0.001142176701 0.001264020459 0.001307065912)
5(0.0009605591651 0.001179880455 0.001320895133 0.001449286666 0.001503608938)
5(0.001120093858 0.001359034543 0.001517289066 0.001658428399 0.001718317448)
5(0.001295663625 0.001557785298 0.001737542317 0.001890961437 0.001953892357)
5(0.001493982453 0.001776267596 0.001977960114 0.002138930875 0.002196990944)
5(0.00171139008 0.002019521514 0.002229320331 0.002394266387 0.002439942751)
5(0.001953680437 0.002285257984 0.002503090557 0.002655603981 0.002701059305)
5(0.002220325186 0.002558913704 0.002790962205 0.002928179447 0.002959506314)
5(0.002508736963 0.002850047513 0.003088832253 0.003206641147 0.003209301924)
5(0.002819227624 0.003162030486 0.003388969141 0.00348352899 0.003454054382)
5(0.003145321492 0.003481880999 0.003697886751 0.003753931468 0.003680149003)
5(0.003490991962 0.003809538316 0.004010112977 0.004015468468 0.003882201185)
5(0.003855229512 0.004153116395 0.004319735714 0.004262615098 0.004064373953)
5(0.004245196166 0.00449628981 0.004624950772 0.004492283382 0.004227055789)
5(0.004636128522 0.004830970973 0.00491306192 0.004690851589 0.004373724295)
5(0.005034341739 0.005170085212 0.005184017208 0.004873911729 0.004511367626)
5(0.005446026432 0.005474818018 0.005420813639 0.005040766687 0.004554927737)
5(0.005827997395 0.005776203332 0.005617580944 0.005137662452 0.004423310539)
5(0.006190415999 0.006031198168 0.005745058801 0.005159892067 0.004098403065)
5(0.006494882173 0.006257374217 0.005871629802 0.005076354037 0.003695773629)
5(0.006790227381 0.006416991172 0.005970320862 0.004815707488 0.00334342384)
5(0.007034388788 0.006397625017 0.005973765507 0.004358025075 0.00310733285)
5(0.00711942656 0.006392756375 0.005836765299 0.003811339373 0.002932335176)
5(0.007075489995 0.006347384943 0.005457348366 0.003336754927 0.002729602365)
5(0.00689409544 0.006155608754 0.004808242642 0.002993842566 0.002545339076)
5(0.006607056453 0.005775372935 0.003998075934 0.002755414039 0.002436616233)
5(0.006213184878 0.005127247363 0.003250425831 0.002569976765 0.002483562529)
5(0.005599123665 0.004168021788 0.002666906876 0.002458152487 0.002711081373)
5(0.004780409868 0.003012115119 0.002259110941 0.002477345304 0.003078849889)
5(0.003701659513 0.002027105534 0.002003885684 0.002689163027 0.003622841547)
5(0.002378809013 0.001397071131 0.00194635646 0.003069176257 0.004269238947)
5(0.0009804870726 0.001017036684 0.002079135617 0.003587729781 0.005091066462)
5(-0.0003556336608 0.0008876306601 0.002364862944 0.004329407929 0.00610578112)
5(-0.001353776083 0.0009088890799 0.002803410239 0.005242537299 0.007238598401)
5(-0.002003377336 0.000970865678 0.003402033556 0.006255816763 0.00853406768)
5(-0.002322570485 0.001221499465 0.004119189677 0.007391962643 0.00996311294)
5(-0.002342739357 0.001537579648 0.004842175198 0.008670054692 0.01154843057)
5(-0.003090877648 0.001440745975 0.00398410188 0.0102043551 0.01369885919)
5(-0.003868743119 0.001208360011 0.002770481774 0.01105982074 0.01501890733)
)


60
(
5(7.828720943e-07 3.051371551e-05 -3.209824986e-05 -1.024811792e-05 -0.0001290338556)
5(9.329061691e-06 3.809422617e-05 -6.214558704e-06 1.686311098e-05 -6.601544806e-05)
5(2.721792313e-05 5.413799904e-05 4.399990211e-05 6.987924918e-05 4.944313286e-05)
5(4.711201721e-05 7.303037547e-05 9.00484311e-05 0.0001198082596 0.0001455363066)
5(6.736476297e-05 9.465641245e-05 0.0001279148254 0.0001627851507 0.0002177810009)
5(8.444496754e-05 0.0001165153218 0.0001542869965 0.0001949801581 0.0002525055521)
5(9.928493769e-05 0.0001390571872 0.0001751388998 0.0002220371429 0.0002645506023)
5(0.0001164881286 0.0001645586449 0.0002002489962 0.0002525554605 0.0002835296711)
5(0.0001389733369 0.0001937330461 0.0002336700007 0.0002891927251 0.000318991549)
5(0.0001658853926 0.0002270447455 0.0002745961023 0.0003302457604 0.0003616202742)
5(0.0001968659743 0.0002638596048 0.0003183784373 0.0003725273145 0.0004006565768)
5(0.0002312369435 0.0003044665916 0.0003630252391 0.0004156081641 0.000436783692)
5(0.0002683214876 0.0003501713467 0.0004103394494 0.0004619675976 0.0004735539954)
5(0.0003118163034 0.000401603969 0.0004636799055 0.0005144885192 0.0005189774733)
5(0.0003625720865 0.0004608578822 0.0005253204591 0.0005769087673 0.0005768510527)
5(0.0004208062812 0.0005285216204 0.0005977761381 0.0006524662845 0.0006504747183)
5(0.0004875435363 0.0006074831652 0.0006820062829 0.0007421413517 0.0007399432782)
5(0.0005656445523 0.0006999001146 0.000781345416 0.0008487636869 0.0008499075678)
5(0.0006572469302 0.0008060825388 0.0008979000205 0.0009761160839 0.0009846579197)
5(0.0007608373521 0.0009297311505 0.001033836208 0.001125515017 0.001144259636)
5(0.0008863601683 0.001073934439 0.001192240328 0.001297549758 0.001329905579)
5(0.001027359675 0.001239650901 0.001375005977 0.001495953297 0.001537545262)
5(0.001187841475 0.001426573779 0.001583675767 0.001718913272 0.001770564189)
5(0.00137286785 0.001636350029 0.001816956158 0.001965644724 0.002029412034)
5(0.001582076357 0.001872200196 0.002075101998 0.002240900775 0.002304939911)
5(0.001818724758 0.002132078804 0.002355480648 0.002531768574 0.002602615156)
5(0.002073760472 0.002418018606 0.002657783544 0.002838494888 0.002906630515)
5(0.002361677273 0.002725245597 0.002980596544 0.003158534244 0.003222342599)
5(0.002675755578 0.003050274358 0.003325526513 0.003491147474 0.003548281838)
5(0.003009446055 0.003402896816 0.003683255217 0.003832628383 0.0038611258)
5(0.003368773894 0.003771052441 0.004044477724 0.004174048368 0.00417606427)
5(0.003754659353 0.00414572589 0.004421614979 0.004521930565 0.004475300085)
5(0.004163898038 0.004544474795 0.004808687792 0.004858190322 0.004763431408)
5(0.004584317875 0.004954154594 0.005186213809 0.005181353086 0.00503188197)
5(0.005006620951 0.005362634372 0.005566701612 0.005499634696 0.005284976168)
5(0.005483345128 0.005771278608 0.005943044037 0.005801793034 0.00553064241)
5(0.005951440213 0.006181920712 0.006293962462 0.006081525473 0.005745104908)
5(0.006405664265 0.006594130444 0.006617167639 0.006329336255 0.005876433834)
5(0.00686516672 0.006968359641 0.006916015943 0.006529345441 0.005874032366)
5(0.007263307059 0.00730671898 0.007194693992 0.006668289268 0.005726090601)
5(0.007695751845 0.007632305292 0.007413581989 0.006710623046 0.00550075376)
5(0.008059941846 0.007886927387 0.007577875333 0.006596598889 0.005274357731)
5(0.008325477528 0.008042482719 0.007685704997 0.006322214323 0.005067485311)
5(0.008529283149 0.008101284972 0.007643462839 0.005956475454 0.004886494124)
5(0.008616487452 0.008112616053 0.007404524785 0.00556434139 0.004664434523)
5(0.008566142719 0.008037428114 0.006934316551 0.005211955798 0.004383973265)
5(0.008360003173 0.007737095237 0.006270674701 0.004881341628 0.00411861765)
5(0.008014719038 0.007147693529 0.005563126245 0.00451745996 0.003927268844)
5(0.00752433969 0.006330191294 0.004909090253 0.004167649109 0.003854295665)
5(0.006833619418 0.005341556887 0.004315051287 0.003891207348 0.003940908651)
5(0.005889065321 0.004316945767 0.003785681168 0.003728956026 0.004132381032)
5(0.004686427395 0.003456574948 0.003340412089 0.00370921319 0.004443544317)
5(0.003304506315 0.002764219493 0.003021504661 0.003863259889 0.004935277543)
5(0.001951464996 0.00215814044 0.002867741788 0.004206252964 0.005647056575)
5(0.0007058246751 0.001670508228 0.002879479625 0.004714911968 0.006549108752)
5(-0.0003396306915 0.001349974391 0.003048314473 0.00540063566 0.007603069203)
5(-0.001107063398 0.001147433619 0.003360083134 0.00627347781 0.008844419685)
5(-0.001723823981 0.00102524712 0.003785071292 0.007264385234 0.01024467544)
5(-0.004012369919 -0.000222723653 0.002409710785 0.008247729493 0.01221769695)
5(-0.006007230443 -0.001421423563 0.000801598323 0.008719952248 0.01345599373)
)


60
(
5(1.056420517e-05 4.654272392e-05 -1.633439566e-05 9.104708795e-06 -0.000109119542)
5(1.986962861e-05 5.534353998e-05 1.331766598e-05 4.235140367e-05 -3.629243766e-05)
5(3.94557988e-05 7.389380392e-05 7.152618567e-05 0.0001069025928 9.679016217e-05)
5(6.216810516e-05 9.652378503e-05 0.0001252937626 0.0001668895512 0.0002067249166)
5(8.639221666e-05 0.0001235748051 0.0001700696211 0.0002186392057 0.0002888034637)
5(0.0001077582027 0.000151452807 0.0002035284751 0.0002583451114 0.0003285068939)
5(0.0001271302549 0.0001797474776 0.0002311516115 0.0002907451486 0.0003417048451)
5(0.0001490213589 0.0002106302015 0.000261886017 0.0003247951308 0.0003606398852)
5(0.0001767424111 0.0002455854205 0.0003003179953 0.0003637789614 0.0003938532027)
5(0.0002096554513 0.000284040153 0.0003447614891 0.0004050578145 0.0004318876868)
5(0.0002454517221 0.0003255490594 0.000391252124 0.0004460659288 0.0004659841885)
5(0.0002843955056 0.0003705109209 0.0004384971161 0.0004880477668 0.0004974978225)
5(0.0003273184151 0.000419560165 0.00048736205 0.0005330965959 0.0005296009771)
5(0.0003762572109 0.0004742229856 0.0005415988527 0.0005839584522 0.0005726417405)
5(0.0004319438769 0.0005363678868 0.0006049348723 0.0006457321654 0.0006310367237)
5(0.0004949386182 0.0006083921146 0.0006792858868 0.0007225926725 0.0007058380399)
5(0.0005678091398 0.0006917743895 0.0007668635159 0.0008152381725 0.0008021719923)
5(0.000652661546 0.0007884674181 0.0008710404261 0.0009281801095 0.0009199718405)
5(0.0007490914999 0.0009010504135 0.0009941176779 0.001063483399 0.001064683562)
5(0.0008626779815 0.001033100536 0.001140273455 0.001223573696 0.001238496144)
5(0.0009977924112 0.001187182063 0.001310228664 0.001410221125 0.001439994076)
5(0.001149401629 0.001362929803 0.001506575517 0.00162520922 0.001667487194)
5(0.001319438672 0.001563886142 0.001731094832 0.001869428369 0.001924514574)
5(0.001521893424 0.001793115149 0.001984971921 0.002140097101 0.002215600327)
5(0.001748802805 0.002049837356 0.00226798003 0.002437916825 0.002522202527)
5(0.001998829854 0.00233079735 0.002576579788 0.00276124916 0.002845105274)
5(0.002278721382 0.002638768453 0.002908659935 0.003103489633 0.003195478627)
5(0.002590481009 0.002975782752 0.003264141461 0.003460258611 0.003544616491)
5(0.00293016023 0.0033347507 0.003642701148 0.003834853483 0.003912782007)
5(0.003290139942 0.003714531481 0.004036461696 0.004219672976 0.004286605079)
5(0.00368151242 0.004116057533 0.004440373933 0.004609359404 0.004652369748)
5(0.004099330344 0.004534543738 0.004864340088 0.005007065065 0.005016995155)
5(0.004530337911 0.004971188446 0.005297134969 0.005398977698 0.005363325159)
5(0.004988413563 0.005420570445 0.00572688394 0.005787346632 0.005699176275)
5(0.005462571135 0.005877932722 0.006157378704 0.006177436931 0.006022167832)
5(0.005943164811 0.006332617404 0.00658405853 0.006548478042 0.006340543214)
5(0.006449914623 0.006790293648 0.007006711168 0.006897334407 0.006626503359)
5(0.006946223648 0.007246867298 0.007415455139 0.007224109145 0.006853713916)
5(0.007423504357 0.007681134571 0.007801425363 0.007512097365 0.006956363965)
5(0.007908286917 0.008109971202 0.008142665683 0.007746903483 0.006942348244)
5(0.008341666311 0.00850152349 0.008437515655 0.007896958071 0.006866886838)
5(0.008735792682 0.008818063863 0.008696870972 0.007915389024 0.006735708049)
5(0.009080551347 0.009060709138 0.008890754871 0.007783162117 0.006619051078)
5(0.009343508222 0.009233701484 0.008958525573 0.0075506989 0.006501179431)
5(0.009500383289 0.009321345444 0.008825551259 0.007274737267 0.006315787513)
5(0.009515768958 0.00928611257 0.008493546273 0.006979721411 0.006028045872)
5(0.009424885029 0.009114919447 0.007979174894 0.006670225299 0.005695931717)
5(0.009180299209 0.008721832102 0.007391910858 0.006301246004 0.005406752791)
5(0.008852077197 0.00804022096 0.006812944852 0.005865952682 0.005168800679)
5(0.008346487528 0.007170330638 0.006170454614 0.005408251711 0.005021124869)
5(0.007559147884 0.006273075151 0.005500399022 0.005026581332 0.00500155402)
5(0.006622252028 0.005411908524 0.004857156187 0.004739379996 0.005079576239)
5(0.005481545429 0.004560751758 0.004268742618 0.004569140568 0.005291649963)
5(0.004210790072 0.003716624756 0.003797923667 0.004597788624 0.00573035899)
5(0.002898240538 0.002945232412 0.00347526553 0.004804665751 0.006395111319)
5(0.001643062579 0.002267555135 0.003314962846 0.005207433916 0.007211806359)
5(0.0004661000876 0.001708020722 0.003313415329 0.005772993394 0.008200238934)
5(-0.0007586276336 0.001208456943 0.003437431283 0.006475869357 0.009438446774)
5(-0.004110191491 -0.001554630453 0.001964665572 0.0067181236 0.01110676752)
5(-0.006842246773 -0.004052845221 0.0004022952493 0.006563859521 0.01209289546)
)


60
(
5(2.054847966e-05 6.365879879e-05 8.394000752e-07 2.96762193e-05 -8.199335541e-05)
5(3.070796398e-05 7.329060117e-05 3.385835089e-05 6.857292102e-05 -2.948850422e-06)
5(5.176238431e-05 9.35425144e-05 9.903841227e-05 0.0001434271703 0.0001418923038)
5(7.655138731e-05 0.0001193462832 0.0001601085466 0.0002116790605 0.0002628677376)
5(0.0001047690444 0.0001516911044 0.0002112218854 0.0002698309127 0.000351036446)
5(0.0001304848125 0.0001847156229 0.0002499521906 0.0003141089703 0.0003915090371)
5(0.0001537019335 0.0002175664008 0.0002822838456 0.0003499374117 0.0004040540878)
5(0.0001799802082 0.0002527837077 0.000316398971 0.0003853793622 0.0004207319845)
5(0.0002116924296 0.0002909331825 0.0003571570396 0.0004233822987 0.0004492055344)
5(0.0002485699414 0.0003328345336 0.0004034565767 0.0004628295401 0.000481848476)
5(0.0002883845245 0.0003770215729 0.0004504693776 0.0005015000331 0.000510262888)
5(0.0003304842141 0.0004233491369 0.0004967013208 0.0005396505454 0.0005353299488)
5(0.0003760443302 0.0004738823721 0.0005438613006 0.0005806401786 0.0005641275444)
5(0.0004273003664 0.0005292903554 0.0005962944355 0.0006290559367 0.000603980155)
5(0.0004852743146 0.0005914738117 0.0006576814813 0.0006891371045 0.0006599487904)
5(0.0005512480264 0.000662972018 0.0007316260805 0.0007638270367 0.0007361436483)
5(0.0006254926659 0.0007468901195 0.0008201591423 0.0008555851989 0.0008336131346)
5(0.0007114619433 0.000845150114 0.0009245388941 0.0009713325941 0.00095610582)
5(0.0008122294316 0.0009592818246 0.001050430914 0.001111482485 0.001108044265)
5(0.0009281703484 0.001092992951 0.001201479461 0.001276916645 0.001290284512)
5(0.001065618575 0.001250136043 0.001377416088 0.001471401628 0.001501886731)
5(0.001220082822 0.001432107723 0.001579819209 0.001694741734 0.001743589671)
5(0.001399766946 0.001641757832 0.001813634259 0.001948297979 0.002021322189)
5(0.001610628589 0.001880189679 0.002080547078 0.002234565495 0.002321120923)
5(0.001840665216 0.002143497214 0.002377198596 0.002551103243 0.002646223085)
5(0.002103355165 0.002435425955 0.002700338563 0.002892813944 0.003004556727)
5(0.002398689694 0.002758003449 0.003048604729 0.003256713468 0.003374627508)
5(0.002724683579 0.00310710619 0.003423827626 0.003642099775 0.003757578805)
5(0.003066467773 0.00348494269 0.003824281864 0.004043505554 0.004154580766)
5(0.003443197377 0.003890644457 0.004243873024 0.004457579544 0.004560034268)
5(0.003862518948 0.004312144659 0.004677678322 0.004885722405 0.004971123586)
5(0.004286733058 0.004752163386 0.005129383042 0.005320801789 0.005380931928)
5(0.004733593103 0.005211518154 0.005597478752 0.005755021861 0.005781590652)
5(0.005206973112 0.005686502919 0.00606331838 0.006188779466 0.006169912249)
5(0.005701923755 0.006175737072 0.00653286534 0.006620017805 0.006550916067)
5(0.006215167856 0.006660636745 0.007009626099 0.007041452895 0.006928859219)
5(0.006720449343 0.007149852408 0.007476866939 0.007457310573 0.007289883179)
5(0.007234510301 0.007653953565 0.007932235377 0.007854146582 0.007592348174)
5(0.007750479409 0.008135888821 0.008362455683 0.008214734254 0.007799421014)
5(0.008240641143 0.008590365609 0.008768294514 0.008534304671 0.007902667971)
5(0.008700605743 0.00901206403 0.0091461892 0.008775022752 0.007911134139)
5(0.009111413068 0.009382148126 0.009473134208 0.008901720171 0.007914357358)
5(0.009453825611 0.009704148509 0.009740870252 0.008899263069 0.007919741529)
5(0.00972805159 0.009943675844 0.009909906486 0.0087977224 0.007859402024)
5(0.009952340571 0.01009914496 0.009904426 0.00864763216 0.007720743344)
5(0.01003536158 0.01017157439 0.009697254576 0.00845028435 0.007501650796)
5(0.01000582465 0.01008756465 0.009336490701 0.008198383876 0.007222145432)
5(0.009896135615 0.009799918292 0.008884753575 0.007892074226 0.006908005657)
5(0.009655623835 0.009290170448 0.008385203594 0.007469455784 0.006606100239)
5(0.009296927691 0.008631280311 0.007825095901 0.00696636621 0.006325997763)
5(0.00876446816 0.007925821843 0.007182778988 0.006472308092 0.006086941977)
5(0.00805529506 0.007186857427 0.006488885411 0.006017833994 0.005938650211)
5(0.007176025754 0.006400621942 0.005796998857 0.005651212856 0.005946952078)
5(0.006187438274 0.00555955957 0.005130506125 0.005400053294 0.006136183549)
5(0.005056023974 0.004669075315 0.004528537694 0.005300902479 0.006516049575)
5(0.003818003791 0.003744341702 0.004071967149 0.005391780674 0.007091925148)
5(0.002504200716 0.002845673155 0.003745582771 0.005699166018 0.007869457563)
5(0.000811957948 0.001812689971 0.003507690799 0.006206788272 0.008899242988)
5(-0.003715903955 -0.001645750296 0.0007948494026 0.005886833716 0.01028579022)
5(-0.007257367436 -0.004503483971 -0.001823481681 0.005269016753 0.01108990257)
)


60
(
5(3.12539309e-05 8.119425907e-05 1.948608833e-05 5.069747405e-05 -5.244882843e-05)
5(4.142202601e-05 9.139533353e-05 5.585736259e-05 9.444716415e-05 3.091420303e-05)
5(6.39559771e-05 0.0001134071366 0.0001274821787 0.0001782965154 0.0001875577723)
5(9.18500701e-05 0.0001422069334 0.0001939383125 0.0002538483212 0.0003156854098)
5(0.0001233784862 0.0001785747794 0.0002498414939 0.000317188591 0.0004036271637)
5(0.0001529923882 0.0002159400265 0.0002928124092 0.0003643086607 0.000444135184)
5(0.0001795456603 0.000252971801 0.0003284684438 0.0004009040581 0.0004545540853)
5(0.0002091174682 0.0002918015922 0.0003649658023 0.0004361492418 0.0004674722152)
5(0.0002444106628 0.0003328854319 0.0004070625012 0.0004727427014 0.0004921238435)
5(0.000284055213 0.0003760457532 0.0004528796984 0.0005092975629 0.0005187457397)
5(0.0003260790019 0.0004208740353 0.0004982745245 0.0005439637431 0.0005411535012)
5(0.0003703424787 0.0004676063605 0.0005423689659 0.0005778702632 0.0005609435043)
5(0.0004186277446 0.0005171840639 0.0005871238288 0.0006148905325 0.0005856718663)
5(0.0004705809707 0.000571804822 0.0006372585754 0.000659623063 0.0006226096313)
5(0.0005277810937 0.0006328791512 0.0006964766381 0.0007162013688 0.0006774454503)
5(0.0005934595654 0.0007030431145 0.0007676894023 0.0007879279552 0.0007521434902)
5(0.0006693492957 0.0007848263955 0.0008532256334 0.0008796168306 0.0008493266893)
5(0.0007561792983 0.0008810924581 0.0009574020151 0.0009945000096 0.0009764034955)
5(0.0008551482997 0.0009950461874 0.001083467458 0.001134312856 0.001131466504)
5(0.0009733576087 0.001129269676 0.001233780799 0.001302283504 0.001317392243)
5(0.001108249263 0.001286469282 0.001411623405 0.00149975468 0.001534874622)
5(0.001265289004 0.00146924272 0.001619253413 0.00172827217 0.001784913101)
5(0.001449550912 0.001679953098 0.001858371989 0.001990233261 0.002070299745)
5(0.001658821751 0.001919454378 0.002129209674 0.002285124179 0.00238870396)
5(0.001894642625 0.002189454561 0.00243108712 0.002609857593 0.002726545115)
5(0.002161483561 0.002488553845 0.002761946149 0.002962946147 0.003089734322)
5(0.002459378705 0.002817669411 0.003123549496 0.003340800928 0.003481201604)
5(0.002790307009 0.003176756301 0.003513142824 0.003741825571 0.00389113238)
5(0.003146842277 0.003564103901 0.003925618948 0.004164814755 0.004314700366)
5(0.003534079878 0.003975639573 0.004360642834 0.004603249719 0.004748367813)
5(0.003949205435 0.004409613586 0.00481792337 0.005053202302 0.005189891522)
5(0.004384111759 0.004871500677 0.005289964787 0.005514333072 0.005630988708)
5(0.004848446536 0.005346822534 0.005771178177 0.005983045121 0.006074750076)
5(0.005332555092 0.005832052744 0.006260981818 0.006452715227 0.00651189367)
5(0.005837431278 0.006334387658 0.00676009526 0.00692131539 0.006936316311)
5(0.006337426281 0.00684553352 0.007268533789 0.007389579042 0.007360733466)
5(0.006857934801 0.007366685833 0.007769804543 0.007848564038 0.00777906136)
5(0.007383070837 0.007881721964 0.008260378425 0.008292802304 0.008150001855)
5(0.007893183175 0.008373300264 0.008741649414 0.008714127113 0.008441590149)
5(0.008390260779 0.008859090327 0.009189991014 0.009098902869 0.008614421302)
5(0.008840209249 0.009315423065 0.009609560406 0.009412448311 0.008749682284)
5(0.009252659732 0.009714364796 0.00998965212 0.009622877533 0.008859246149)
5(0.009603151778 0.01007031472 0.01032485488 0.009729967528 0.008941442303)
5(0.009881852107 0.01034842318 0.01056630873 0.009749778454 0.008983979139)
5(0.01010535561 0.0105395881 0.01064181339 0.009712318403 0.008940343205)
5(0.0102148191 0.01065244799 0.01054503366 0.009632597577 0.008816082925)
5(0.01027282639 0.01063593469 0.01030634811 0.009480342293 0.008578220356)
5(0.01025235732 0.01044642498 0.01001224716 0.009238140214 0.008310230608)
5(0.01007897123 0.01007467445 0.009650657556 0.008907723813 0.008022663625)
5(0.009870158985 0.009611376119 0.009198716791 0.008467127133 0.00768468456)
5(0.009505977848 0.009078161203 0.00867847203 0.007959137953 0.007356076234)
5(0.00897529049 0.008552352464 0.00806023336 0.007449293127 0.00707328653)
5(0.0082878274 0.00796762572 0.007400129492 0.006930094828 0.006860751147)
5(0.007497564833 0.007227472865 0.00671246607 0.006502190842 0.006801901148)
5(0.006571295407 0.006424938232 0.006000524637 0.006206146573 0.006921803403)
5(0.005535895103 0.005451687056 0.005277428301 0.006025167316 0.007265989118)
5(0.004282615992 0.004387560451 0.004602551499 0.00603024791 0.007844210817)
5(0.002504093984 0.002973583993 0.003869488086 0.006203918578 0.008671663399)
5(-0.003302067413 -0.001994787594 0.0001893905481 0.005049225717 0.009464057449)
5(-0.008101046015 -0.006061492571 -0.00305640468 0.003771475249 0.009761569776)
)


60
(
5(4.260041858e-05 9.922387277e-05 3.794768984e-05 7.285736498e-05 -2.148450035e-05)
5(5.332024099e-05 0.000110471274 7.801915579e-05 0.0001207542255 6.6479688e-05)
5(7.665661302e-05 0.0001339375558 0.0001561542681 0.0002118928743 0.0002281593835)
5(0.0001070519445 0.000164894789 0.0002278333181 0.0002926109815 0.0003604844457)
5(0.0001422077699 0.0002052324285 0.0002870603091 0.0003593107044 0.000450749739)
5(0.0001750817086 0.0002465508973 0.0003324060488 0.000408397848 0.0004888983134)
5(0.0002051705706 0.0002868270418 0.0003706212053 0.0004458343187 0.000496809087)