/*--------------------------------*- C++ -*----------------------------------*\
| =========                 |                                                 |
| \\      /  F ield         | OpenFOAM: The Open Source CFD Toolbox           |
|  \\    /   O peration     | Version:  2.3.1                                 |
|   \\  /    A nd           | Web:      www.OpenFOAM.org                      |
|    \\/     M anipulation  |                                                 |
\*---------------------------------------------------------------------------*/
FoamFile
{
    version     2.0;
    format      ascii;
    class       dictionary;
    location    "constant";
    object      H2O2;
}
// * * * * * * * * * * * * * * * * * * * * * * * * * * * * * * * * * * * * * //

H2O2_table
60
(

60
(
5(5.209246201e-06 4.155048542e-06 8.420657928e-06 7.603061033e-06 1.222711193e-05)
5(3.637733249e-06 2.352842261e-06 5.153465042e-06 4.99827913e-06 6.584019045e-06)
5(1.298323664e-06 3.006105833e-06 3.776674487e-06 3.468674826e-06 4.420866864e-07)
5(0 3.167978359e-06 3.945199284e-06 2.446615562e-06 4.599864745e-06)
5(6.961005376e-07 2.948246354e-06 3.810696851e-06 3.32220407e-06 3.546956371e-06)
5(2.128741172e-06 2.709034385e-06 2.597482868e-06 3.26977713e-06 2.9246632e-06)
5(2.596163565e-06 2.531775351e-06 2.708292603e-06 2.730337509e-06 3.944472739e-06)
5(2.033144422e-06 2.458796417e-06 3.109126388e-06 2.867676607e-06 2.312866565e-06)
5(2.120686745e-06 2.440324606e-06 2.829503218e-06 2.850496879e-06 2.796529958e-06)
5(1.91638478e-06 2.416800163e-06 2.988831404e-06 2.662391956e-06 2.827466999e-06)
5(1.895165657e-06 2.324947649e-06 2.868737997e-06 2.599864565e-06 2.764065762e-06)
5(1.987027326e-06 2.249762152e-06 2.615442048e-06 2.5192329e-06 2.531080782e-06)
5(1.879310879e-06 2.179726884e-06 2.481368359e-06 2.516773745e-06 2.530403615e-06)
5(1.914506727e-06 2.111361925e-06 2.408210162e-06 2.293586156e-06 2.351368551e-06)
5(1.756510716e-06 1.983591252e-06 2.257323471e-06 2.259592368e-06 2.239791815e-06)
5(1.713257817e-06 1.905755298e-06 2.192567023e-06 2.16650216e-06 2.153434368e-06)
5(1.642270795e-06 1.815826435e-06 2.092728913e-06 2.070227403e-06 2.103719231e-06)
5(1.568148333e-06 1.729789036e-06 1.991412501e-06 2.003154141e-06 2.015935276e-06)
5(1.487968806e-06 1.650707083e-06 1.893644024e-06 1.890544257e-06 1.914607576e-06)
5(1.44437512e-06 1.605031474e-06 1.823575739e-06 1.845697241e-06 1.800265414e-06)
5(1.365943354e-06 1.496150529e-06 1.691840112e-06 1.726169218e-06 1.689195955e-06)
5(1.299870755e-06 1.410428468e-06 1.609348305e-06 1.530922882e-06 1.526976461e-06)
5(1.254602661e-06 1.340992096e-06 1.506582792e-06 1.490753255e-06 1.483122759e-06)
5(1.175240161e-06 1.286180489e-06 1.414724325e-06 1.393092848e-06 1.376027446e-06)
5(1.11781102e-06 1.207723076e-06 1.332909518e-06 1.318372956e-06 1.296946675e-06)
5(1.050957522e-06 1.123610582e-06 1.265143304e-06 1.247890345e-06 1.195227472e-06)
5(9.887087637e-07 1.034793419e-06 1.148449436e-06 1.158250481e-06 1.09940502e-06)
5(9.149200407e-07 9.560497226e-07 1.069741858e-06 1.063698736e-06 9.990259266e-07)
5(8.650781333e-07 8.877465411e-07 9.675524998e-07 9.577857552e-07 9.063565683e-07)
5(8.016789351e-07 8.244474607e-07 8.754913558e-07 8.456011751e-07 8.035635391e-07)
5(7.481810623e-07 7.604846475e-07 8.049996852e-07 7.733857456e-07 7.18772868e-07)
5(6.889164617e-07 6.881526574e-07 7.134068683e-07 6.68546516e-07 5.904206368e-07)
5(6.298737634e-07 6.296673264e-07 6.471831947e-07 5.953931348e-07 5.567617037e-07)
5(5.816005863e-07 5.78852577e-07 5.921757466e-07 5.232567609e-07 4.498147362e-07)
5(5.374932456e-07 5.236733727e-07 5.267036119e-07 4.632474202e-07 4.033924506e-07)
5(4.952032263e-07 4.886365058e-07 4.958983969e-07 4.135688366e-07 3.517836296e-07)
5(4.5736192e-07 4.290091228e-07 4.109119067e-07 3.521649306e-07 3.019467203e-07)
5(4.220855734e-07 4.006944274e-07 3.687772708e-07 3.18280864e-07 2.093869779e-07)
5(3.945472444e-07 3.636532857e-07 3.388713697e-07 2.760764235e-07 2.270449534e-07)
5(3.762962494e-07 3.352548283e-07 3.159692912e-07 2.497024327e-07 1.557188988e-08)
5(3.487878859e-07 2.985248528e-07 2.689671864e-07 2.155764531e-07 1.954432344e-08)
5(3.189679457e-07 2.715500847e-07 2.373691258e-07 1.444498522e-07 1.621141968e-08)
5(2.958660823e-07 2.389206721e-07 2.047026332e-07 1.751701029e-08 1.832704616e-08)
5(2.768120648e-07 2.23870862e-07 2.153450394e-07 2.004287023e-08 3.508114266e-08)
5(2.58358658e-07 1.992995351e-07 1.830215954e-07 2.236306926e-08 2.55959657e-08)
5(2.309311959e-07 1.847024141e-07 1.475852765e-07 2.543880432e-08 2.635674369e-08)
5(2.080524e-07 1.592685864e-07 6.154200464e-08 2.967601021e-08 2.958367121e-08)
5(1.890168307e-07 1.170645255e-07 3.338921437e-08 3.214297421e-08 3.321515079e-08)
5(1.676584616e-07 1.115263713e-07 3.326768374e-08 3.59596872e-08 3.717511936e-08)
5(1.49050068e-07 3.471908357e-08 3.690842029e-08 4.003540182e-08 4.13841052e-08)
5(1.278511662e-07 3.733934203e-08 4.113244778e-08 4.461151106e-08 4.602674068e-08)
5(6.349679258e-08 4.15715043e-08 4.570269866e-08 4.946373057e-08 5.100634281e-08)
5(4.328739516e-08 4.614345847e-08 5.063370512e-08 5.469242116e-08 5.63276776e-08)
5(4.476515513e-08 5.099201763e-08 5.600055198e-08 6.026740918e-08 6.217855361e-08)
5(4.946135601e-08 5.618932965e-08 6.171705956e-08 6.632915794e-08 6.839947324e-08)
5(5.531145453e-08 6.17873677e-08 6.784786358e-08 7.267977377e-08 7.504487984e-08)
5(6.240341815e-08 6.784646026e-08 7.440109474e-08 7.950468527e-08 8.222662534e-08)
5(6.932574067e-08 7.502555643e-08 8.152395994e-08 8.687164631e-08 8.939379482e-08)
5(7.600688179e-08 8.297124218e-08 9.001634173e-08 9.175785502e-08 9.794932607e-08)
5(8.315440995e-08 9.272445914e-08 1.013487571e-07 1.089186883e-07 1.108569543e-07)
)


60
(
5(7.584144685e-06 7.488296992e-06 1.253363886e-05 1.322548486e-05 1.822430934e-05)
5(6.630065655e-06 7.577230503e-06 1.024426359e-05 1.169615318e-05 1.428636025e-05)
5(6.174714264e-06 7.633944912e-06 9.243587177e-06 1.10176412e-05 1.238867629e-05)
5(6.095834337e-06 7.686640998e-06 9.123820037e-06 1.089094647e-05 1.20310009e-05)
5(6.252830914e-06 7.753276775e-06 9.426970939e-06 1.100721906e-05 1.24351165e-05)
5(6.455497561e-06 7.790765483e-06 9.669170996e-06 1.105994866e-05 1.279010694e-05)
5(6.521883912e-06 7.760150492e-06 9.635545138e-06 1.094179453e-05 1.266152109e-05)
5(6.468535583e-06 7.6726623e-06 9.445789898e-06 1.068370769e-05 1.222499526e-05)
5(6.372290275e-06 7.546954434e-06 9.185149596e-06 1.035147747e-05 1.169980928e-05)
5(6.283082777e-06 7.407977728e-06 8.939619147e-06 1.001910328e-05 1.119699193e-05)
5(6.187848981e-06 7.249698577e-06 8.69333171e-06 9.663056886e-06 1.07134833e-05)
5(6.08461975e-06 7.064158688e-06 8.432164009e-06 9.270831585e-06 1.020031419e-05)
5(5.956998891e-06 6.855248162e-06 8.128728324e-06 8.836830419e-06 9.622059842e-06)
5(5.802447609e-06 6.621240332e-06 7.785551468e-06 8.382253841e-06 9.014679482e-06)
5(5.628555498e-06 6.364323406e-06 7.415652903e-06 7.896973757e-06 8.390545945e-06)
5(5.44129921e-06 6.095421654e-06 7.034565074e-06 7.401824705e-06 7.76217169e-06)
5(5.236006722e-06 5.810665834e-06 6.641020127e-06 6.903930155e-06 7.140216942e-06)
5(5.021105862e-06 5.515600624e-06 6.236970252e-06 6.404537833e-06 6.538371149e-06)
5(4.795460567e-06 5.210069013e-06 5.8288428e-06 5.915488115e-06 5.956128075e-06)
5(4.56104124e-06 4.904217032e-06 5.423135056e-06 5.441770511e-06 5.408783899e-06)
5(4.320028028e-06 4.597117689e-06 5.025173105e-06 4.985530815e-06 4.892102732e-06)
5(4.075770382e-06 4.295024282e-06 4.637934814e-06 4.558008286e-06 4.42133676e-06)
5(3.834021524e-06 3.999881851e-06 4.271070673e-06 4.158337474e-06 3.994658392e-06)
5(3.596918026e-06 3.716212773e-06 3.926937562e-06 3.789505984e-06 3.612505965e-06)
5(3.363138046e-06 3.447321584e-06 3.605794665e-06 3.45881554e-06 3.274375148e-06)
5(3.142709305e-06 3.195734615e-06 3.315507532e-06 3.162850087e-06 2.978212695e-06)
5(2.932664607e-06 2.961092649e-06 3.048777353e-06 2.898475823e-06 2.718742572e-06)
5(2.736346486e-06 2.748414991e-06 2.807989537e-06 2.662851364e-06 2.490506131e-06)
5(2.554883914e-06 2.554770275e-06 2.592911854e-06 2.452025067e-06 2.290554014e-06)
5(2.390094986e-06 2.378260394e-06 2.399452607e-06 2.263965976e-06 2.109265796e-06)
5(2.23967807e-06 2.218468121e-06 2.225242077e-06 2.093277517e-06 1.945333364e-06)
5(2.103717671e-06 2.073817851e-06 2.066304328e-06 1.937264972e-06 1.79269456e-06)
5(1.980669583e-06 1.942066252e-06 1.922336958e-06 1.792468465e-06 1.64914011e-06)
5(1.869191933e-06 1.821147282e-06 1.788786489e-06 1.657253257e-06 1.513296286e-06)
5(1.766818055e-06 1.709436313e-06 1.664741374e-06 1.530064556e-06 1.384823356e-06)
5(1.67394472e-06 1.605351295e-06 1.548547826e-06 1.410649664e-06 1.263178568e-06)
5(1.586237963e-06 1.507625406e-06 1.439625245e-06 1.297385394e-06 1.149933863e-06)
5(1.505897674e-06 1.416388371e-06 1.337128856e-06 1.19199088e-06 1.044731348e-06)
5(1.430158354e-06 1.329366378e-06 1.240741286e-06 1.094017189e-06 9.455890652e-07)
5(1.358118608e-06 1.248735722e-06 1.150174699e-06 1.001882808e-06 8.508693866e-07)
5(1.290030228e-06 1.171009536e-06 1.064081142e-06 9.157069793e-07 7.593242193e-07)
5(1.224532263e-06 1.099717729e-06 9.850486765e-07 8.336975011e-07 6.73173259e-07)
5(1.163413653e-06 1.030382245e-06 9.107270473e-07 7.544722415e-07 5.939964381e-07)
5(1.103826463e-06 9.626203136e-07 8.413023716e-07 6.77661498e-07 5.23205808e-07)
5(1.045640298e-06 8.995211949e-07 7.742868487e-07 6.043254777e-07 4.601368452e-07)
5(9.876641469e-07 8.385456946e-07 7.08309697e-07 5.363806399e-07 4.039832748e-07)
5(9.301534451e-07 7.796539605e-07 6.416763261e-07 4.749511718e-07 3.545252203e-07)
5(8.723295686e-07 7.205312208e-07 5.761081603e-07 4.201006919e-07 3.116178989e-07)
5(8.145386764e-07 6.605494797e-07 5.135949246e-07 3.714386868e-07 2.753403179e-07)
5(7.543347446e-07 5.978391569e-07 4.557976942e-07 3.289324624e-07 2.452534263e-07)
5(6.927354146e-07 5.345912874e-07 4.036444528e-07 2.924868373e-07 2.207362222e-07)
5(6.277697197e-07 4.740343307e-07 3.574338025e-07 2.621175824e-07 2.011871521e-07)
5(5.608958724e-07 4.188808867e-07 3.177076023e-07 2.371177535e-07 1.857470486e-07)
5(4.932320092e-07 3.695703203e-07 2.839754931e-07 2.170597553e-07 1.743838714e-07)
5(4.281266855e-07 3.272219939e-07 2.560329631e-07 2.017450416e-07 1.663809993e-07)
5(3.686298726e-07 2.907127139e-07 2.332855345e-07 1.904774511e-07 1.615738905e-07)
5(3.161937625e-07 2.599271005e-07 2.154368441e-07 1.828377184e-07 1.595720389e-07)
5(2.718613319e-07 2.348375378e-07 2.019320689e-07 1.786015332e-07 1.603259896e-07)
5(2.364338414e-07 2.149226968e-07 1.9247769e-07 1.78048469e-07 1.643194178e-07)
5(2.165764168e-07 2.0884246e-07 1.984429027e-07 1.946342604e-07 1.794334791e-07)
)


60
(
5(9.90537324e-06 1.051150499e-05 1.634678087e-05 1.815806434e-05 2.356916573e-05)
5(9.425569184e-06 1.109838773e-05 1.463410937e-05 1.711040054e-05 2.044743044e-05)
5(9.22603683e-06 1.14016821e-05 1.396709799e-05 1.666460013e-05 1.901035533e-05)
5(9.263836716e-06 1.154942716e-05 1.397474271e-05 1.658669724e-05 1.869956969e-05)
5(9.485929769e-06 1.165175702e-05 1.425454127e-05 1.662871523e-05 1.88979685e-05)
5(9.720095198e-06 1.169857254e-05 1.441789226e-05 1.655087873e-05 1.896358272e-05)
5(9.795391176e-06 1.163713049e-05 1.430342053e-05 1.626432375e-05 1.857267567e-05)
5(9.734233865e-06 1.150025531e-05 1.400039031e-05 1.581160834e-05 1.787523042e-05)
5(9.614611946e-06 1.130417221e-05 1.360946447e-05 1.527065435e-05 1.706241914e-05)
5(9.475702361e-06 1.106367751e-05 1.319258944e-05 1.468187172e-05 1.62432191e-05)
5(9.31481654e-06 1.078048134e-05 1.275508624e-05 1.405063512e-05 1.539364557e-05)
5(9.119973601e-06 1.045269566e-05 1.227224091e-05 1.336519667e-05 1.449550718e-05)
5(8.890902718e-06 1.008748221e-05 1.173890421e-05 1.263493249e-05 1.35476389e-05)
5(8.620769666e-06 9.682378715e-06 1.115531644e-05 1.186754951e-05 1.256921523e-05)
5(8.315346622e-06 9.244889742e-06 1.053909207e-05 1.107808245e-05 1.157615899e-05)
5(7.979873113e-06 8.780702617e-06 9.899337136e-06 1.027927419e-05 1.059916683e-05)
5(7.62828017e-06 8.296994624e-06 9.250953655e-06 9.485188391e-06 9.645707673e-06)
5(7.255288094e-06 7.800332224e-06 8.5965571e-06 8.705010988e-06 8.728393968e-06)
5(6.865947588e-06 7.298392024e-06 7.948382143e-06 7.947609718e-06 7.858060095e-06)
5(6.465951852e-06 6.795590645e-06 7.30978035e-06 7.224911634e-06 7.045464993e-06)
5(6.060411834e-06 6.302338941e-06 6.694962781e-06 6.542805746e-06 6.298262774e-06)
5(5.657783228e-06 5.82204767e-06 6.108481537e-06 5.906203724e-06 5.618050507e-06)
5(5.26250345e-06 5.361523923e-06 5.561785088e-06 5.326252956e-06 5.013737316e-06)
5(4.876341097e-06 4.925624012e-06 5.056026181e-06 4.803030676e-06 4.481307609e-06)
5(4.510005563e-06 4.519544473e-06 4.59528635e-06 4.3383733e-06 4.020768755e-06)
5(4.166644001e-06 4.14741907e-06 4.181567147e-06 3.930442077e-06 3.623820167e-06)
5(3.848450382e-06 3.809481526e-06 3.813488413e-06 3.575594659e-06 3.288467133e-06)
5(3.556849504e-06 3.509534346e-06 3.492414109e-06 3.269954913e-06 3.003252066e-06)
5(3.297942714e-06 3.242829487e-06 3.211853434e-06 3.005738584e-06 2.76052458e-06)
5(3.065458695e-06 3.008839665e-06 2.968496224e-06 2.778213727e-06 2.551240312e-06)
5(2.862927067e-06 2.804681013e-06 2.756558834e-06 2.579139572e-06 2.368464427e-06)
5(2.684432345e-06 2.624617093e-06 2.569906812e-06 2.402619367e-06 2.204210358e-06)
5(2.528132628e-06 2.465065743e-06 2.404917137e-06 2.243638166e-06 2.053110189e-06)
5(2.390702613e-06 2.323721816e-06 2.255389881e-06 2.097157596e-06 1.911497916e-06)
5(2.267675317e-06 2.194594921e-06 2.117547872e-06 1.960215327e-06 1.777074404e-06)
5(2.154996282e-06 2.075878887e-06 1.990113059e-06 1.830884516e-06 1.649273079e-06)
5(2.054286116e-06 1.964893734e-06 1.869927498e-06 1.708205425e-06 1.526887862e-06)
5(1.960676633e-06 1.860810891e-06 1.756103838e-06 1.591926965e-06 1.411249548e-06)
5(1.872518741e-06 1.762531616e-06 1.647992973e-06 1.481659676e-06 1.300412267e-06)
5(1.788715172e-06 1.668767306e-06 1.545417907e-06 1.377117363e-06 1.193457815e-06)
5(1.708564244e-06 1.580285372e-06 1.448996686e-06 1.27812857e-06 1.090383454e-06)
5(1.633930681e-06 1.496765587e-06 1.357687281e-06 1.183865507e-06 9.919938744e-07)
5(1.561843042e-06 1.416949368e-06 1.271904909e-06 1.09282486e-06 8.997872039e-07)
5(1.493346254e-06 1.340717632e-06 1.190851326e-06 1.004535597e-06 8.143058162e-07)
5(1.427315842e-06 1.267270773e-06 1.112848402e-06 9.197688175e-07 7.357480199e-07)
5(1.363410489e-06 1.197746513e-06 1.036760148e-06 8.391136546e-07 6.629874476e-07)
5(1.300625839e-06 1.130412345e-06 9.606547738e-07 7.635909897e-07 5.961827822e-07)
5(1.238208636e-06 1.063296259e-06 8.847861269e-07 6.930183525e-07 5.351316599e-07)
5(1.175337071e-06 9.941654796e-07 8.103428735e-07 6.272019462e-07 4.802793781e-07)
5(1.11120858e-06 9.227321982e-07 7.386533602e-07 5.66431046e-07 4.318148719e-07)
5(1.044015936e-06 8.487685667e-07 6.70405533e-07 5.110968251e-07 3.895755714e-07)
5(9.723269091e-07 7.747161355e-07 6.064844788e-07 4.615230262e-07 3.532937005e-07)
5(8.953111355e-07 7.029601077e-07 5.474485966e-07 4.17895902e-07 3.224944244e-07)
5(8.146004668e-07 6.350349652e-07 4.940869126e-07 3.803267075e-07 2.970908562e-07)
5(7.327825706e-07 5.71685702e-07 4.467860474e-07 3.486670682e-07 2.768200611e-07)
5(6.533507882e-07 5.141666996e-07 4.057468862e-07 3.226299784e-07 2.612629033e-07)
5(5.788039143e-07 4.630153495e-07 3.709721583e-07 3.020309738e-07 2.501161592e-07)
5(5.123857473e-07 4.188532356e-07 3.424728444e-07 2.86832638e-07 2.433742235e-07)
5(4.572461737e-07 3.83233877e-07 3.211293417e-07 2.773786111e-07 2.415528838e-07)
5(4.328979147e-07 3.756301524e-07 3.353764052e-07 3.037986172e-07 2.624381736e-07)
)


60
(
5(1.217843309e-05 1.342207622e-05 1.994225125e-05 2.269397124e-05 2.85757907e-05)
5(1.215531448e-05 1.446503354e-05 1.872090034e-05 2.202248022e-05 2.603396153e-05)
5(1.218905873e-05 1.498445563e-05 1.831885239e-05 2.174446367e-05 2.486139943e-05)
5(1.232864062e-05 1.520597842e-05 1.840914059e-05 2.168087808e-05 2.456309755e-05)
5(1.25953444e-05 1.532254297e-05 1.864582832e-05 2.163459054e-05 2.459342036e-05)
5(1.284211546e-05 1.535225527e-05 1.871812369e-05 2.142499987e-05 2.443159632e-05)
5(1.290760931e-05 1.524739293e-05 1.849952524e-05 2.096420428e-05 2.380155369e-05)
5(1.282035392e-05 1.50388971e-05 1.807116373e-05 2.032213696e-05 2.285803916e-05)
5(1.265390552e-05 1.474692375e-05 1.753142634e-05 1.956842628e-05 2.177079846e-05)
5(1.24463904e-05 1.439104566e-05 1.694210729e-05 1.874479838e-05 2.064357538e-05)
5(1.219830381e-05 1.397230353e-05 1.630751158e-05 1.785542701e-05 1.947068369e-05)
5(1.190254618e-05 1.349633181e-05 1.561214301e-05 1.690393896e-05 1.824542983e-05)
5(1.155267832e-05 1.296406992e-05 1.485282793e-05 1.590114092e-05 1.696256596e-05)
5(1.11555449e-05 1.238448922e-05 1.404172437e-05 1.48614528e-05 1.565674356e-05)
5(1.071158623e-05 1.176559243e-05 1.319455697e-05 1.380085833e-05 1.435022866e-05)
5(1.023330355e-05 1.112002e-05 1.232837334e-05 1.273638711e-05 1.306814575e-05)
5(9.723615178e-06 1.044946041e-05 1.14508021e-05 1.168456302e-05 1.182324079e-05)
5(9.195563999e-06 9.764118618e-06 1.05728432e-05 1.065554064e-05 1.063692209e-05)
5(8.644742942e-06 9.07918831e-06 9.712410621e-06 9.666849387e-06 9.513276129e-06)
5(8.092430658e-06 8.39964262e-06 8.874051771e-06 8.727568568e-06 8.471137988e-06)
5(7.53496961e-06 7.732913681e-06 8.073684914e-06 7.850231996e-06 7.517844354e-06)
5(6.976892809e-06 7.094112896e-06 7.317702529e-06 7.037561516e-06 6.653405606e-06)
5(6.439457773e-06 6.484276437e-06 6.613697804e-06 6.299910949e-06 5.890341985e-06)
5(5.930651122e-06 5.912600095e-06 5.965829357e-06 5.63929335e-06 5.221191993e-06)
5(5.442839658e-06 5.385096286e-06 5.384693851e-06 5.055936744e-06 4.647171003e-06)
5(4.990441293e-06 4.907801815e-06 4.866654985e-06 4.547776295e-06 4.156016661e-06)
5(4.575551278e-06 4.479582352e-06 4.411685409e-06 4.110784018e-06 3.744073065e-06)
5(4.203194819e-06 4.101227535e-06 4.017299605e-06 3.738877039e-06 3.401648602e-06)
5(3.871224319e-06 3.770792431e-06 3.678735446e-06 3.424266109e-06 3.115341165e-06)
5(3.580383806e-06 3.484807421e-06 3.390036552e-06 3.158457575e-06 2.877097712e-06)
5(3.329155571e-06 3.238607942e-06 3.143892861e-06 2.932251071e-06 2.673627592e-06)
5(3.113302408e-06 3.027532281e-06 2.932347276e-06 2.737344115e-06 2.498016592e-06)
5(2.927761441e-06 2.845119601e-06 2.750479756e-06 2.566052817e-06 2.341132755e-06)
5(2.768042674e-06 2.685991156e-06 2.589232291e-06 2.412260317e-06 2.197341753e-06)
5(2.629151872e-06 2.544808725e-06 2.443834794e-06 2.270968152e-06 2.061879836e-06)
5(2.506189123e-06 2.41708946e-06 2.310161486e-06 2.138792762e-06 1.933778828e-06)
5(2.395609685e-06 2.299138368e-06 2.18514587e-06 2.013418323e-06 1.810807191e-06)
5(2.294476955e-06 2.189111358e-06 2.067458738e-06 1.893768316e-06 1.692230468e-06)
5(2.199949404e-06 2.085172764e-06 1.955532801e-06 1.779478062e-06 1.578573201e-06)
5(2.110776217e-06 1.986592372e-06 1.849081228e-06 1.670356011e-06 1.467491229e-06)
5(2.026575344e-06 1.893342463e-06 1.747640162e-06 1.566313173e-06 1.360422492e-06)
5(1.946298308e-06 1.804690677e-06 1.65140307e-06 1.466706669e-06 1.25710916e-06)
5(1.870368046e-06 1.720308956e-06 1.560553056e-06 1.370725664e-06 1.159093059e-06)
5(1.798164307e-06 1.640016746e-06 1.474795322e-06 1.277705179e-06 1.06702515e-06)
5(1.729732272e-06 1.563858505e-06 1.392858424e-06 1.188038778e-06 9.805824646e-07)
5(1.664086032e-06 1.491366973e-06 1.312772504e-06 1.102139712e-06 8.993662897e-07)
5(1.600602567e-06 1.421771519e-06 1.233710613e-06 1.020371203e-06 8.229276007e-07)
5(1.538897907e-06 1.353760027e-06 1.154769633e-06 9.426216966e-07 7.510465239e-07)
5(1.477227904e-06 1.284800337e-06 1.076919453e-06 8.684002148e-07 6.845192093e-07)
5(1.416388763e-06 1.212854251e-06 1.00041019e-06 7.975665286e-07 6.232040608e-07)
5(1.352704319e-06 1.137823619e-06 9.251306295e-07 7.303478663e-07 5.67621502e-07)
5(1.284752372e-06 1.061079986e-06 8.518100749e-07 6.67725594e-07 5.176203322e-07)
5(1.211314877e-06 9.83558575e-07 7.8112045e-07 6.09938912e-07 4.735282282e-07)
5(1.131486328e-06 9.064356121e-07 7.141539329e-07 5.578054321e-07 4.351906417e-07)
5(1.046401303e-06 8.309511571e-07 6.52105234e-07 5.118436379e-07 4.029767744e-07)
5(9.589757939e-07 7.588833376e-07 5.958195924e-07 4.722018536e-07 3.767217015e-07)
5(8.72062397e-07 6.918646514e-07 5.461925144e-07 4.391359409e-07 3.559938123e-07)
5(7.898747298e-07 6.322609714e-07 5.042542915e-07 4.129389698e-07 3.411870179e-07)
5(7.189065865e-07 5.833879216e-07 4.726665865e-07 3.951047353e-07 3.33548899e-07)
5(6.947725239e-07 5.952549774e-07 5.083023957e-07 4.317310474e-07 3.728064365e-07)
)


60
(
5(1.439898094e-05 1.622899223e-05 2.336273573e-05 2.696373093e-05 3.339902929e-05)
5(1.480927308e-05 1.76930299e-05 2.257485816e-05 2.661378276e-05 3.132294639e-05)
5(1.505814595e-05 1.840704453e-05 2.23988098e-05 2.647663795e-05 3.035854608e-05)
5(1.528543125e-05 1.868633398e-05 2.254974786e-05 2.64170493e-05 3.00634168e-05)
5(1.558605274e-05 1.880611716e-05 2.273940216e-05 2.62911935e-05 2.995606963e-05)
5(1.5834611e-05 1.880912656e-05 2.271754348e-05 2.595535405e-05 2.960377501e-05)
5(1.5878311e-05 1.864758096e-05 2.239041826e-05 2.534239253e-05 2.875702314e-05)
5(1.575128307e-05 1.835919674e-05 2.183583952e-05 2.45239219e-05 2.757676228e-05)
5(1.552786487e-05 1.797086759e-05 2.115096786e-05 2.356741006e-05 2.622912514e-05)
5(1.524591745e-05 1.749546423e-05 2.039346208e-05 2.252443765e-05 2.48252254e-05)
5(1.490487535e-05 1.694369818e-05 1.957172195e-05 2.140134864e-05 2.33474815e-05)
5(1.449843241e-05 1.631837589e-05 1.86774139e-05 2.020867878e-05 2.181628649e-05)
5(1.403239512e-05 1.562679512e-05 1.77164595e-05 1.895498935e-05 2.022993462e-05)
5(1.350046831e-05 1.488290083e-05 1.669434043e-05 1.766557155e-05 1.862464025e-05)
5(1.29240427e-05 1.409346736e-05 1.563846697e-05 1.635719518e-05 1.702419238e-05)
5(1.23053895e-05 1.327390926e-05 1.45599256e-05 1.504987987e-05 1.545753064e-05)
5(1.16491221e-05 1.242963701e-05 1.347749449e-05 1.376220505e-05 1.393944979e-05)
5(1.097126397e-05 1.15741038e-05 1.240309661e-05 1.250962196e-05 1.249937018e-05)
5(1.027620938e-05 1.072069237e-05 1.134949749e-05 1.131108058e-05 1.113959078e-05)
5(9.574189354e-06 9.876707205e-06 1.032993723e-05 1.017405428e-05 9.880381004e-06)
5(8.874117786e-06 9.056293552e-06 9.358424609e-06 9.110549744e-06 8.726296942e-06)
5(8.188719796e-06 8.269155609e-06 8.44310939e-06 8.132140324e-06 7.687660263e-06)
5(7.522044498e-06 7.523196243e-06 7.595007389e-06 7.24321131e-06 6.768226516e-06)
5(6.886647767e-06 6.82612704e-06 6.819931104e-06 6.446799915e-06 5.960177752e-06)
5(6.286427757e-06 6.185561176e-06 6.122059912e-06 5.74540516e-06 5.266603699e-06)
5(5.734834796e-06 5.604094918e-06 5.502459167e-06 5.136334762e-06 4.67832176e-06)
5(5.229323719e-06 5.08833216e-06 4.961187099e-06 4.614512953e-06 4.18557794e-06)
5(4.775459332e-06 4.633357915e-06 4.493881574e-06 4.173042886e-06 3.778274067e-06)
5(4.376567892e-06 4.238289729e-06 4.095822342e-06 3.803170159e-06 3.44203955e-06)
5(4.027793373e-06 3.899564321e-06 3.76003039e-06 3.494808915e-06 3.166434121e-06)
5(3.729832068e-06 3.612102744e-06 3.477611292e-06 3.236640106e-06 2.938245009e-06)
5(3.476342541e-06 3.368053729e-06 3.239340735e-06 3.019811003e-06 2.745504924e-06)
5(3.26099036e-06 3.161279556e-06 3.037522635e-06 2.834136078e-06 2.58048489e-06)
5(3.079178361e-06 2.984543011e-06 2.863775332e-06 2.671760727e-06 2.432428141e-06)
5(2.924020856e-06 2.830988174e-06 2.710515839e-06 2.525861617e-06 2.296660022e-06)
5(2.790009995e-06 2.695129231e-06 2.572443441e-06 2.391451152e-06 2.16913834e-06)
5(2.672015182e-06 2.572073694e-06 2.445209868e-06 2.265168676e-06 2.047472664e-06)
5(2.565318045e-06 2.45870772e-06 2.325889366e-06 2.145221564e-06 1.930292571e-06)
5(2.467736469e-06 2.352872105e-06 2.212768573e-06 2.030469688e-06 1.816531749e-06)
5(2.376592731e-06 2.252612814e-06 2.104851271e-06 1.92042118e-06 1.70574153e-06)
5(2.290757241e-06 2.15743625e-06 2.002029434e-06 1.814914762e-06 1.597421606e-06)
5(2.209294753e-06 2.066796703e-06 1.90426633e-06 1.713544595e-06 1.492374501e-06)
5(2.131812156e-06 1.980691536e-06 1.811696294e-06 1.615867188e-06 1.392596452e-06)
5(2.058149234e-06 1.899350035e-06 1.724359751e-06 1.521277083e-06 1.297835968e-06)
5(1.988338216e-06 1.82241504e-06 1.641540044e-06 1.430278275e-06 1.208344594e-06)
5(1.922709201e-06 1.749931599e-06 1.561331219e-06 1.34305679e-06 1.123281019e-06)
5(1.859151639e-06 1.681513723e-06 1.48272893e-06 1.259706211e-06 1.042292709e-06)
5(1.79857402e-06 1.615218164e-06 1.405305475e-06 1.179723343e-06 9.651871941e-07)
5(1.739850299e-06 1.5492528e-06 1.328867418e-06 1.102851679e-06 8.920101909e-07)
5(1.682362221e-06 1.481424376e-06 1.253199778e-06 1.02794846e-06 8.2280014e-07)
5(1.624583015e-06 1.411532852e-06 1.178016972e-06 9.552611844e-07 7.580095702e-07)
5(1.564461561e-06 1.339760291e-06 1.103006849e-06 8.851685672e-07 6.979228143e-07)
5(1.500329339e-06 1.266109934e-06 1.02829579e-06 8.184674897e-07 6.427590286e-07)
5(1.430568441e-06 1.190593259e-06 9.548412813e-07 7.557380979e-07 5.931332225e-07)
5(1.355485752e-06 1.113835606e-06 8.836954299e-07 6.980913772e-07 5.495849306e-07)
5(1.274332939e-06 1.036781147e-06 8.163387306e-07 6.464132437e-07 5.124979904e-07)
5(1.190229518e-06 9.613402707e-07 7.547796282e-07 6.016192006e-07 4.820200343e-07)
5(1.105804604e-06 8.910091589e-07 7.013332671e-07 5.650932268e-07 4.588783819e-07)
5(1.027557334e-06 8.31302429e-07 6.611962391e-07 5.401209876e-07 4.455775913e-07)
5(1.009449222e-06 8.51764209e-07 7.170160672e-07 5.908658758e-07 5.051093674e-07)
)


60
(
5(1.656668292e-05 1.893781322e-05 2.663976264e-05 3.104801753e-05 3.811048571e-05)
5(1.73856811e-05 2.079434934e-05 2.624189969e-05 3.099499492e-05 3.646065546e-05)
5(1.783862311e-05 2.168620004e-05 2.626297799e-05 3.098890338e-05 3.568685125e-05)
5(1.813988719e-05 2.201466111e-05 2.646377168e-05 3.093630808e-05 3.537057573e-05)
5(1.846150913e-05 2.213116748e-05 2.661255451e-05 3.073813809e-05 3.514835e-05)
5(1.87050917e-05 2.210402268e-05 2.650348353e-05 3.028408206e-05 3.462912804e-05)
5(1.871931278e-05 2.188380857e-05 2.607269195e-05 2.953040449e-05 3.357723128e-05)
5(1.854864336e-05 2.151642186e-05 2.540220512e-05 2.854772617e-05 3.218095926e-05)
5(1.826230783e-05 2.102481341e-05 2.45755265e-05 2.740654182e-05 3.058819308e-05)
5(1.79023021e-05 2.043499332e-05 2.365972915e-05 2.615912459e-05 2.890909979e-05)
5(1.746266845e-05 1.975134505e-05 2.266138071e-05 2.481803368e-05 2.715464905e-05)
5(1.69562179e-05 1.898664321e-05 2.158528823e-05 2.33985005e-05 2.533434323e-05)
5(1.636782498e-05 1.814635831e-05 2.043132324e-05 2.191346442e-05 2.345690749e-05)
5(1.571715347e-05 1.724758383e-05 1.921825287e-05 2.038944471e-05 2.156385305e-05)
5(1.500335198e-05 1.629958953e-05 1.79658348e-05 1.884965862e-05 1.967904409e-05)
5(1.424771298e-05 1.531574094e-05 1.669602256e-05 1.731821828e-05 1.78445396e-05)
5(1.345710316e-05 1.431021329e-05 1.542417477e-05 1.580950682e-05 1.606551236e-05)
5(1.2640241e-05 1.329378039e-05 1.416363382e-05 1.434557941e-05 1.438022042e-05)
5(1.180902481e-05 1.228371959e-05 1.293193234e-05 1.294168868e-05 1.278819076e-05)
5(1.096736399e-05 1.129060628e-05 1.174263622e-05 1.161418e-05 1.132115254e-05)
5(1.013638606e-05 1.032465666e-05 1.06099201e-05 1.037470077e-05 9.972834376e-06)
5(9.324164608e-06 9.399739777e-06 9.546687571e-06 9.232866924e-06 8.75197791e-06)
5(8.537671828e-06 8.525286276e-06 8.56080285e-06 8.194339374e-06 7.671880717e-06)
5(7.786844836e-06 7.710067129e-06 7.660350566e-06 7.26464023e-06 6.726700062e-06)
5(7.085728263e-06 6.961328701e-06 6.850515176e-06 6.44512914e-06 5.912534123e-06)
5(6.43565247e-06 6.284070469e-06 6.131626744e-06 5.732103118e-06 5.218612587e-06)
5(5.845501139e-06 5.677036829e-06 5.501742516e-06 5.121062801e-06 4.638018062e-06)
5(5.314666311e-06 5.144847561e-06 4.960035323e-06 4.604726237e-06 4.158990537e-06)
5(4.848493997e-06 4.683600832e-06 4.498572613e-06 4.173220893e-06 3.76580402e-06)
5(4.442716037e-06 4.289476694e-06 4.110559808e-06 3.815757806e-06 3.446603059e-06)
5(4.095839245e-06 3.955645079e-06 3.787265477e-06 3.521305905e-06 3.186552994e-06)
5(3.802298343e-06 3.676077752e-06 3.518439448e-06 3.276541318e-06 2.972024093e-06)
5(3.556518824e-06 3.442290368e-06 3.294628003e-06 3.072034885e-06 2.79238923e-06)
5(3.351118393e-06 3.245641918e-06 3.104536291e-06 2.897807531e-06 2.638544744e-06)
5(3.179497546e-06 3.078203055e-06 2.941039007e-06 2.745385171e-06 2.499550692e-06)
5(3.033320708e-06 2.933258617e-06 2.797278086e-06 2.608151102e-06 2.371961753e-06)
5(2.906774027e-06 2.805227107e-06 2.667613652e-06 2.481575432e-06 2.251940575e-06)
5(2.796069534e-06 2.689526392e-06 2.547703083e-06 2.36238017e-06 2.136945584e-06)
5(2.695705856e-06 2.582376152e-06 2.434789906e-06 2.248727144e-06 2.0251399e-06)
5(2.603673547e-06 2.481679114e-06 2.327603045e-06 2.139585669e-06 1.915999891e-06)
5(2.517400681e-06 2.386656568e-06 2.225341797e-06 2.034673538e-06 1.808931128e-06)
5(2.435692353e-06 2.296342798e-06 2.127951017e-06 1.933631896e-06 1.704925953e-06)
5(2.358277056e-06 2.210615439e-06 2.035617927e-06 1.836048134e-06 1.605046123e-06)
5(2.284488859e-06 2.129703604e-06 1.948740848e-06 1.741771253e-06 1.509971476e-06)
5(2.214289306e-06 2.053083841e-06 1.866518936e-06 1.651269099e-06 1.419722924e-06)
5(2.147995784e-06 1.981021857e-06 1.787602568e-06 1.564868088e-06 1.333941208e-06)
5(2.084547023e-06 1.913290056e-06 1.711084792e-06 1.482650564e-06 1.25188003e-06)
5(2.024808288e-06 1.848701607e-06 1.636774959e-06 1.404034642e-06 1.17343202e-06)
5(1.967597308e-06 1.785509616e-06 1.56440811e-06 1.328286376e-06 1.098208826e-06)
5(1.912749328e-06 1.722170572e-06 1.493470589e-06 1.254579436e-06 1.026040176e-06)
5(1.859683052e-06 1.65870756e-06 1.423460775e-06 1.182189769e-06 9.568062679e-07)
5(1.805839894e-06 1.594301311e-06 1.35342898e-06 1.110929597e-06 8.908616026e-07)
5(1.750556613e-06 1.530505712e-06 1.282576133e-06 1.04127343e-06 8.284830724e-07)