/*--------------------------------*- C++ -*----------------------------------*\
| =========                 |                                                 |
| \\      /  F ield         | OpenFOAM: The Open Source CFD Toolbox           |
|  \\    /   O peration     | Version:  2.3.1                                 |
|   \\  /    A nd           | Web:      www.OpenFOAM.org                      |
|    \\/     M anipulation  |                                                 |
\*---------------------------------------------------------------------------*/
FoamFile
{
    version     2.0;
    format      ascii;
    class       dictionary;
    location    "constant";
    object      H;
}
// * * * * * * * * * * * * * * * * * * * * * * * * * * * * * * * * * * * * * //

H_table
60
(

60
(
5(5.073631786e-10 2.926213565e-10 1.87597595e-09 1.68517765e-09 8.181782146e-09)
5(2.19428477e-10 4.667512639e-11 5.979769528e-10 6.361237106e-10 1.366131849e-09)
5(9.862298667e-09 1.225419614e-10 1.87671584e-10 2.052088856e-10 0)
5(2.949880602e-08 1.978090708e-10 2.190093655e-10 0 2.431680253e-10)
5(3.636816877e-08 2.359927293e-10 4.201422827e-10 3.51528275e-10 1.95509029e-10)
5(2.949268565e-08 2.858671639e-10 1.973170175e-10 6.990571745e-10 5.631145959e-10)
5(3.401997665e-10 3.510289386e-10 5.001680092e-10 6.611453031e-10 2.563164909e-09)
5(1.863063635e-10 4.88813359e-10 1.159293941e-09 1.240313383e-09 7.331887526e-10)
5(4.028677513e-08 7.588309545e-10 2.135887415e-09 1.86970908e-09 2.105607086e-09)
5(5.919469453e-08 3.467661841e-09 3.909360505e-09 2.794808466e-09 3.872749944e-09)
5(6.53453556e-08 5.777384429e-09 4.751412842e-09 4.786942021e-09 5.979646965e-09)
5(3.193136363e-08 2.534199314e-09 4.72918267e-09 5.895235417e-09 9.241241881e-09)
5(1.509349293e-09 3.72780934e-09 5.910794639e-09 9.969542425e-09 1.359992805e-08)
5(2.683515638e-09 5.426711013e-09 8.732556618e-09 1.171941846e-08 1.765131203e-08)
5(3.112954139e-09 6.982227911e-09 1.129163615e-08 1.811770972e-08 2.379099648e-08)
5(9.389898902e-09 1.767680408e-08 2.01062997e-08 2.897358316e-08 3.522652409e-08)
5(1.134388796e-08 1.958909485e-08 2.771736791e-08 3.571353682e-08 4.87649044e-08)
5(1.049456113e-08 2.176469736e-08 2.97642273e-08 4.690162308e-08 6.568478915e-08)
5(1.079823417e-08 2.433898615e-08 3.833646263e-08 5.939105967e-08 8.850134456e-08)
5(1.495643367e-08 3.07163e-08 5.144068585e-08 8.244658984e-08 1.082791369e-07)
5(1.871157268e-08 3.652496486e-08 6.086256946e-08 9.923551911e-08 1.29265198e-07)
5(2.372173045e-08 4.474665907e-08 7.744885482e-08 1.017106912e-07 1.402398178e-07)
5(3.110257968e-08 5.603267953e-08 9.252867738e-08 1.366647388e-07 1.870711691e-07)
5(3.705977747e-08 7.163443263e-08 1.115079749e-07 1.616308541e-07 2.160114371e-07)
5(4.644333035e-08 8.66798014e-08 1.35628007e-07 1.985885906e-07 2.608065669e-07)
5(5.596561105e-08 1.033124011e-07 1.688393703e-07 2.446851467e-07 2.986218027e-07)
5(6.73589574e-08 1.169691764e-07 1.860621203e-07 2.868581823e-07 3.415450135e-07)
5(7.829066766e-08 1.340295728e-07 2.220875589e-07 3.28631791e-07 3.809871195e-07)
5(9.726468262e-08 1.591363495e-07 2.465345968e-07 3.606168506e-07 4.277067443e-07)
5(1.147276767e-07 1.897651444e-07 2.761146211e-07 3.80280032e-07 4.584779969e-07)
5(1.385821754e-07 2.232447294e-07 3.244548319e-07 4.395806031e-07 5.078089958e-07)
5(1.620444378e-07 2.509430259e-07 3.494755844e-07 4.468270502e-07 4.643583641e-07)
5(1.869528854e-07 2.900034184e-07 3.988859874e-07 4.897440545e-07 5.831261263e-07)
5(2.198789687e-07 3.374212833e-07 4.626159377e-07 5.198170266e-07 5.150313987e-07)
5(2.579585869e-07 3.769209547e-07 5.011391588e-07 5.584822991e-07 5.452898291e-07)
5(2.987217502e-07 4.468044563e-07 6.089123673e-07 6.074755382e-07 5.725679787e-07)
5(3.452254946e-07 4.621540838e-07 5.600897135e-07 5.939484316e-07 6.054409453e-07)
5(3.952064869e-07 5.398698066e-07 6.0673468e-07 6.53480579e-07 4.084164068e-07)
5(4.593510125e-07 5.883086289e-07 6.846932361e-07 6.556293272e-07 6.339527113e-07)
5(5.506076107e-07 6.558084162e-07 7.815154901e-07 7.074999202e-07 1.48835858e-08)
5(6.162624851e-07 6.767381199e-07 7.389078629e-07 6.920913066e-07 2.890834937e-08)
5(6.647116096e-07 7.21866361e-07 7.458421767e-07 4.967656738e-07 1.641991377e-08)
5(7.306312126e-07 7.151765366e-07 7.226209731e-07 1.679003066e-08 2.519807942e-08)
5(8.086168673e-07 7.915605346e-07 1.008199392e-06 2.588300792e-08 6.064767564e-08)
5(8.830896053e-07 7.903524986e-07 9.419544622e-07 3.81916203e-08 6.043579728e-08)
5(8.830095544e-07 8.499191477e-07 7.729132286e-07 5.758994769e-08 8.481884472e-08)
5(8.91000491e-07 8.064736271e-07 2.553663255e-07 8.698174349e-08 1.239431817e-07)
5(8.766987202e-07 5.560585788e-07 9.57626057e-08 1.22882863e-07 1.798087484e-07)
5(8.82050866e-07 6.151075325e-07 1.082952469e-07 1.76060841e-07 2.576458876e-07)
5(8.610699894e-07 1.036721982e-07 1.529476269e-07 2.487882689e-07 3.633917933e-07)
5(7.872161199e-07 1.342061764e-07 2.160446363e-07 3.496320884e-07 5.080632333e-07)
5(3.213166019e-07 1.884579393e-07 3.020138171e-07 4.847438475e-07 7.017927898e-07)
5(1.770179002e-07 2.620339498e-07 4.176873547e-07 6.653280128e-07 9.591637964e-07)
5(2.073654425e-07 3.593191721e-07 5.729727163e-07 9.030157073e-07 1.301943891e-06)
5(2.849502672e-07 4.882736452e-07 7.777158768e-07 1.216603749e-06 1.747544461e-06)
5(4.318460974e-07 6.582555144e-07 1.046771368e-06 1.618719057e-06 2.322276998e-06)
5(6.88137228e-07 8.828273723e-07 1.398529179e-06 2.13612107e-06 3.041266104e-06)
5(9.427894079e-07 1.258836467e-06 1.861477883e-06 2.790174394e-06 3.924057805e-06)
5(1.187166563e-06 1.733659876e-06 2.583943625e-06 3.232037659e-06 5.023310647e-06)
5(1.451939012e-06 2.359777348e-06 3.710552075e-06 5.810810951e-06 7.732074226e-06)
)


60
(
5(1.10816503e-09 1.2801057e-09 5.194518196e-09 7.874626563e-09 2.887113218e-08)
5(9.565319862e-10 1.65292506e-09 3.568435693e-09 6.751047724e-09 1.483734192e-08)
5(1.080213352e-09 2.41538504e-09 3.719465284e-09 8.188362942e-09 1.275387699e-08)
5(1.489248711e-09 3.76164573e-09 5.560776861e-09 1.268016651e-08 1.825464325e-08)
5(2.408561351e-09 6.020265254e-09 9.860591639e-09 2.112000657e-08 3.336670566e-08)
5(3.963985048e-09 9.549256998e-09 1.695266836e-08 3.447557767e-08 5.961019663e-08)
5(6.262383257e-09 1.471911453e-08 2.654041555e-08 5.273254287e-08 9.218668099e-08)
5(9.406701012e-09 2.199577593e-08 3.925093762e-08 7.667877427e-08 1.304729274e-07)
5(1.378421111e-08 3.200189455e-08 5.611563975e-08 1.080200226e-07 1.784224811e-07)
5(1.991086012e-08 4.561764394e-08 7.896830823e-08 1.492096017e-07 2.436582797e-07)
5(2.868391566e-08 6.378938534e-08 1.098500922e-07 2.024948171e-07 3.270700126e-07)
5(4.034755109e-08 8.75021086e-08 1.501697375e-07 2.696347173e-07 4.312999373e-07)
5(5.570934317e-08 1.177716526e-07 2.008312564e-07 3.522433437e-07 5.579018198e-07)
5(7.555182039e-08 1.556527662e-07 2.630514806e-07 4.52014573e-07 7.049927003e-07)
5(1.005477326e-07 2.022948302e-07 3.382605218e-07 5.698261574e-07 8.763372457e-07)
5(1.315772576e-07 2.589663931e-07 4.285791432e-07 7.080200991e-07 1.075310087e-06)
5(1.705493824e-07 3.271025617e-07 5.359592482e-07 8.687753506e-07 1.303635108e-06)
5(2.17428006e-07 4.081197005e-07 6.617926073e-07 1.053116743e-06 1.557885196e-06)
5(2.739694067e-07 5.031335913e-07 8.072530094e-07 1.262320862e-06 1.842175026e-06)
5(3.410724857e-07 6.138724926e-07 9.73933973e-07 1.497115114e-06 2.153716166e-06)
5(4.207672016e-07 7.417155401e-07 1.16327133e-06 1.757395186e-06 2.494252941e-06)
5(5.139410947e-07 8.876721662e-07 1.375673719e-06 2.042577766e-06 2.857482994e-06)
5(6.206661257e-07 1.053290783e-06 1.612651061e-06 2.351541019e-06 3.24668737e-06)
5(7.442888008e-07 1.240658233e-06 1.874944454e-06 2.685096026e-06 3.656658858e-06)
5(8.879452999e-07 1.45085434e-06 2.162832376e-06 3.045315044e-06 4.089644412e-06)
5(1.049879243e-06 1.685509768e-06 2.480123698e-06 3.432918566e-06 4.541311263e-06)
5(1.235862345e-06 1.945908403e-06 2.8251557e-06 3.846063593e-06 5.008897345e-06)
5(1.446314356e-06 2.235656355e-06 3.198638162e-06 4.281640379e-06 5.487538227e-06)
5(1.686794209e-06 2.556525078e-06 3.603906221e-06 4.738627062e-06 5.97866141e-06)
5(1.957066004e-06 2.910274374e-06 4.04010634e-06 5.21745415e-06 6.477025843e-06)
5(2.26557296e-06 3.300891295e-06 4.509121016e-06 5.717649669e-06 6.980071442e-06)
5(2.613745619e-06 3.730771457e-06 5.01016075e-06 6.237874158e-06 7.480738416e-06)
5(3.006325907e-06 4.201837815e-06 5.545502882e-06 6.773117491e-06 7.977131851e-06)
5(3.447399014e-06 4.71784721e-06 6.114634235e-06 7.320857547e-06 8.450736901e-06)
5(3.945851104e-06 5.281140427e-06 6.716616941e-06 7.875714868e-06 8.903080709e-06)
5(4.503506731e-06 5.892344223e-06 7.350318047e-06 8.432168261e-06 9.331629718e-06)
5(5.128552953e-06 6.549315291e-06 8.007469621e-06 8.977052884e-06 9.738137789e-06)
5(5.817160492e-06 7.249754627e-06 8.674770234e-06 9.506732142e-06 1.010797408e-05)
5(6.5765994e-06 7.987223579e-06 9.346384225e-06 1.000819114e-05 1.038159504e-05)
5(7.400776424e-06 8.757507222e-06 1.000697445e-05 1.04560416e-05 1.048792375e-05)
5(8.28289924e-06 9.536972312e-06 1.063315884e-05 1.082312971e-05 1.03871563e-05)
5(9.200374134e-06 1.031757128e-05 1.122215694e-05 1.105583796e-05 1.011010161e-05)
5(1.014846018e-05 1.105498218e-05 1.175170308e-05 1.110392869e-05 9.728229011e-06)
5(1.109487709e-05 1.172009519e-05 1.22031929e-05 1.095116904e-05 9.307693981e-06)
5(1.199286464e-05 1.231700537e-05 1.251273156e-05 1.062248972e-05 8.855388371e-06)
5(1.280693832e-05 1.281376464e-05 1.25976309e-05 1.017925467e-05 8.376977205e-06)
5(1.348299335e-05 1.318007386e-05 1.240995696e-05 9.684443358e-06 7.903622758e-06)
5(1.399355233e-05 1.334185507e-05 1.199101178e-05 9.175576693e-06 7.464777433e-06)
5(1.428640727e-05 1.323198807e-05 1.141455297e-05 8.672134998e-06 7.089459423e-06)
5(1.435012985e-05 1.280407345e-05 1.075577102e-05 8.197982965e-06 6.809756932e-06)
5(1.411362282e-05 1.211533703e-05 1.007820624e-05 7.787963375e-06 6.634622844e-06)
5(1.355068671e-05 1.127702619e-05 9.427815948e-06 7.473128994e-06 6.572847013e-06)
5(1.263339209e-05 1.040631108e-05 8.846066658e-06 7.262149924e-06 6.639807082e-06)
5(1.146653587e-05 9.571567239e-06 8.356686823e-06 7.166751476e-06 6.835273274e-06)
5(1.017849181e-05 8.818199843e-06 7.982662983e-06 7.220597655e-06 7.20170592e-06)
5(8.890634099e-06 8.157328522e-06 7.728391201e-06 7.428257431e-06 7.758998999e-06)
5(7.699781344e-06 7.595280518e-06 7.60898096e-06 7.804170631e-06 8.540432213e-06)
5(6.663877118e-06 7.15666906e-06 7.62878873e-06 8.377077698e-06 9.580651268e-06)
5(5.844090693e-06 6.830146926e-06 7.7736418e-06 9.179169177e-06 1.096866208e-05)
5(5.1350424e-06 6.678492758e-06 8.039197168e-06 1.062263119e-05 1.308373822e-05)
)


60
(
5(1.920033625e-09 2.788003756e-09 1.079192784e-08 2.024695363e-08 6.466681602e-08)
5(2.039529134e-09 4.016561859e-09 9.578075891e-09 2.079471095e-08 4.653879775e-08)
5(2.637910845e-09 6.391972759e-09 1.155103086e-08 2.708642577e-08 4.941346265e-08)
5(3.948408771e-09 1.027110991e-08 1.777865867e-08 4.097694225e-08 7.098883561e-08)
5(6.421081946e-09 1.641618568e-08 2.967109678e-08 6.451738761e-08 1.134018779e-07)
5(1.054053378e-08 2.571787364e-08 4.81873016e-08 9.894847856e-08 1.783894401e-07)
5(1.65255693e-08 3.891888756e-08 7.322723652e-08 1.444912437e-07 2.569758155e-07)
5(2.473858886e-08 5.699138587e-08 1.05329588e-07 2.024452674e-07 3.500669292e-07)
5(3.58535116e-08 8.125888953e-08 1.466770066e-07 2.759475585e-07 4.640415779e-07)
5(5.126612897e-08 1.131987254e-07 2.005075183e-07 3.690771363e-07 6.084537895e-07)
5(7.194944941e-08 1.545650098e-07 2.701301447e-07 4.852999424e-07 7.874335874e-07)
5(9.949041299e-08 2.069523177e-07 3.576895315e-07 6.270286229e-07 1.003127862e-06)
5(1.342697487e-07 2.722207357e-07 4.649869666e-07 7.962593132e-07 1.254384417e-06)
5(1.779138243e-07 3.522165304e-07 5.939363718e-07 9.951972765e-07 1.541525483e-06)
5(2.324958543e-07 4.489730267e-07 7.469765136e-07 1.226023869e-06 1.871103135e-06)
5(2.998212229e-07 5.646591887e-07 9.268261771e-07 1.491445164e-06 2.241105982e-06)
5(3.803017334e-07 7.011812442e-07 1.136355594e-06 1.793967471e-06 2.656315498e-06)
5(4.766714582e-07 8.610725606e-07 1.377351369e-06 2.13531163e-06 3.114166906e-06)
5(5.915007599e-07 1.046331549e-06 1.652504899e-06 2.516591634e-06 3.61768382e-06)
5(7.263463466e-07 1.258905328e-06 1.962890346e-06 2.938867355e-06 4.162899586e-06)
5(8.831361584e-07 1.501316996e-06 2.310600878e-06 3.402073127e-06 4.750484854e-06)
5(1.065403099e-06 1.775910206e-06 2.696845127e-06 3.905857853e-06 5.382371958e-06)
5(1.272509857e-06 2.084739326e-06 3.124429886e-06 4.451863106e-06 6.048397806e-06)
5(1.512222995e-06 2.430265186e-06 3.594763632e-06 5.038807853e-06 6.753158154e-06)
5(1.782472451e-06 2.815203775e-06 4.109260076e-06 5.668757766e-06 7.492518053e-06)
5(2.089377401e-06 3.242136201e-06 4.668972005e-06 6.343258359e-06 8.267919668e-06)
5(2.435954817e-06 3.713777338e-06 5.275887112e-06 7.060120398e-06 9.074816766e-06)
5(2.827155268e-06 4.235049976e-06 5.932934166e-06 7.819695393e-06 9.905537035e-06)
5(3.264192504e-06 4.807254137e-06 6.640672424e-06 8.618424341e-06 1.076953428e-05)
5(3.757733738e-06 5.435589198e-06 7.403613679e-06 9.460527527e-06 1.165788114e-05)
5(4.306132022e-06 6.126349859e-06 8.222583472e-06 1.034302836e-05 1.255980236e-05)
5(4.921389927e-06 6.880480443e-06 9.098599492e-06 1.126640929e-05 1.348227148e-05)
5(5.611170815e-06 7.703835321e-06 1.003772182e-05 1.223076051e-05 1.440595327e-05)
5(6.380149094e-06 8.605707167e-06 1.103844877e-05 1.32303758e-05 1.533762097e-05)
5(7.237110649e-06 9.586034714e-06 1.209966281e-05 1.426094433e-05 1.625096922e-05)
5(8.191534813e-06 1.064895784e-05 1.32261092e-05 1.531764986e-05 1.715568012e-05)
5(9.260169549e-06 1.179583929e-05 1.440923621e-05 1.639198679e-05 1.805647882e-05)
5(1.041187559e-05 1.302949391e-05 1.564007152e-05 1.747226478e-05 1.891495952e-05)
5(1.16960619e-05 1.434483083e-05 1.690609656e-05 1.853918905e-05 1.966979856e-05)
5(1.30832662e-05 1.572681642e-05 1.819257844e-05 1.95653996e-05 2.024697114e-05)
5(1.456774584e-05 1.716647707e-05 1.948242237e-05 2.051309159e-05 2.056857059e-05)
5(1.616011694e-05 1.864329065e-05 2.074656722e-05 2.131994185e-05 2.066682999e-05)
5(1.78057221e-05 2.011750658e-05 2.196576389e-05 2.1904761e-05 2.057203948e-05)
5(1.949558754e-05 2.154630973e-05 2.309407058e-05 2.22154496e-05 2.034144027e-05)
5(2.117320796e-05 2.288990971e-05 2.404325364e-05 2.225404949e-05 1.997400898e-05)
5(2.279407746e-05 2.412905763e-05 2.471278085e-05 2.205967686e-05 1.948650751e-05)
5(2.427326476e-05 2.520017074e-05 2.501122009e-05 2.168963308e-05 1.888315467e-05)
5(2.555868549e-05 2.599076737e-05 2.492451218e-05 2.117140656e-05 1.820827609e-05)
5(2.657814416e-05 2.637619025e-05 2.450300835e-05 2.05251126e-05 1.751876244e-05)
5(2.727173065e-05 2.628689575e-05 2.382144943e-05 1.979105624e-05 1.687586218e-05)
5(2.753518383e-05 2.571840353e-05 2.294913227e-05 1.902052112e-05 1.632315192e-05)
5(2.728618212e-05 2.477532606e-05 2.195132924e-05 1.827048478e-05 1.587718664e-05)
5(2.644369731e-05 2.35853002e-05 2.088493e-05 1.759361832e-05 1.556729051e-05)
5(2.507512877e-05 2.22568108e-05 1.982775345e-05 1.703484167e-05 1.545483428e-05)
5(2.328046265e-05 2.085435256e-05 1.883862873e-05 1.663923877e-05 1.553881176e-05)
5(2.127464527e-05 1.945833602e-05 1.796850609e-05 1.643836034e-05 1.588587467e-05)
5(1.919400378e-05 1.813954851e-05 1.725625654e-05 1.646668031e-05 1.651819247e-05)
5(1.721565864e-05 1.694577668e-05 1.672552797e-05 1.676880479e-05 1.749243042e-05)
5(1.543510772e-05 1.593006021e-05 1.642001285e-05 1.736776466e-05 1.888372787e-05)
5(1.376401159e-05 1.518000271e-05 1.653909967e-05 1.910826743e-05 2.144904371e-05)
)


60
(
5(3.010352177e-09 4.993283198e-09 1.908141017e-08 3.979159833e-08 1.159529968e-07)
5(3.530156841e-09 7.568879176e-09 1.896313617e-08 4.33236284e-08 9.730682003e-08)
5(4.951818856e-09 1.240646123e-08 2.447036754e-08 5.738406064e-08 1.108841789e-07)
5(7.626376397e-09 1.99634191e-08 3.749916906e-08 8.453704923e-08 1.543934808e-07)
5(1.243548925e-08 3.14811333e-08 6.003190817e-08 1.274546086e-07 2.30969936e-07)
5(2.017686433e-08 4.843786319e-08 9.345522062e-08 1.881098971e-07 3.412490642e-07)
5(3.116321179e-08 7.206836004e-08 1.37816556e-07 2.667158925e-07 4.73671668e-07)
5(4.600857296e-08 1.036678444e-07 1.939345155e-07 3.647073778e-07 6.286783592e-07)
5(6.592603278e-08 1.451692922e-07 2.648447873e-07 4.865504803e-07 8.158813729e-07)
5(9.293824978e-08 1.988751748e-07 3.551191043e-07 6.374347961e-07 1.046544078e-06)
5(1.28530734e-07 2.670355283e-07 4.687260884e-07 8.212663669e-07 1.324935546e-06)
5(1.742712976e-07 3.519892421e-07 6.087985993e-07 1.041122434e-06 1.651878907e-06)
5(2.319658705e-07 4.561344622e-07 7.777461201e-07 1.300022921e-06 2.028919327e-06)
5(3.029164601e-07 5.817700279e-07 9.773965805e-07 1.599567889e-06 2.453314602e-06)
5(3.903746748e-07 7.316393337e-07 1.211175841e-06 1.942567856e-06 2.931147277e-06)
5(4.959628521e-07 9.088729137e-07 1.482686486e-06 2.33267485e-06 3.463446826e-06)
5(6.227699717e-07 1.116097556e-06 1.794619514e-06 2.77199338e-06 4.053244529e-06)
5(7.719065282e-07 1.35594307e-06 2.149622059e-06 3.261953454e-06 4.698758517e-06)
5(9.488556694e-07 1.631306959e-06 2.550334345e-06 3.80521783e-06 5.401801912e-06)
5(1.151330616e-06 1.944547483e-06 2.998123465e-06 4.401778259e-06 6.159852493e-06)
5(1.387315534e-06 2.298914997e-06 3.49658444e-06 5.052846945e-06 6.971172662e-06)
5(1.661822996e-06 2.697749391e-06 4.046692032e-06 5.756449791e-06 7.842219025e-06)
5(1.971097857e-06 3.142817275e-06 4.650787116e-06 6.515834869e-06 8.756701484e-06)
5(2.315518367e-06 3.637401917e-06 5.310883092e-06 7.331491311e-06 9.726043534e-06)
5(2.712360596e-06 4.185094682e-06 6.0313913e-06 8.204108123e-06 1.074483046e-05)
5(3.155110298e-06 4.789926628e-06 6.813117432e-06 9.136241642e-06 1.181278981e-05)
5(3.652794255e-06 5.454342015e-06 7.658178946e-06 1.01283878e-05 1.292689262e-05)
5(4.206195621e-06 6.183457452e-06 8.56970259e-06 1.117918639e-05 1.408769145e-05)
5(4.828753101e-06 6.982734445e-06 9.551575307e-06 1.228872832e-05 1.528615091e-05)
5(5.520972944e-06 7.856896534e-06 1.060722691e-05 1.346105922e-05 1.653564752e-05)
5(6.28930197e-06 8.812333229e-06 1.173935724e-05 1.46952966e-05 1.782248037e-05)
5(7.145444372e-06 9.855320006e-06 1.295148409e-05 1.599311373e-05 1.914798687e-05)
5(8.097865491e-06 1.099193175e-05 1.425407215e-05 1.735525695e-05 2.050186325e-05)
5(9.149248352e-06 1.223046435e-05 1.564462352e-05 1.878009854e-05 2.187796906e-05)
5(1.032082803e-05 1.357751732e-05 1.712569085e-05 2.026717026e-05 2.327595351e-05)
5(1.161196378e-05 1.503875873e-05 1.870010022e-05 2.181359755e-05 2.467882208e-05)
5(1.303650965e-05 1.66173891e-05 2.036760706e-05 2.341079798e-05 2.610193964e-05)
5(1.461015916e-05 1.831944605e-05 2.212881593e-05 2.504793888e-05 2.751796545e-05)
5(1.632358449e-05 2.014344514e-05 2.397160131e-05 2.670866624e-05 2.88495349e-05)
5(1.819020378e-05 2.20847056e-05 2.588026533e-05 2.836725192e-05 3.001615771e-05)
5(2.021772116e-05 2.413647861e-05 2.783320881e-05 2.998146232e-05 3.093813844e-05)
5(2.236041104e-05 2.627496942e-05 2.980784801e-05 3.147921634e-05 3.162864888e-05)
5(2.464102281e-05 2.846465242e-05 3.177691806e-05 3.277086876e-05 3.20873784e-05)
5(2.700018854e-05 3.06641239e-05 3.369010221e-05 3.378027601e-05 3.236302402e-05)
5(2.941891836e-05 3.283146379e-05 3.544701061e-05 3.448613802e-05 3.244235027e-05)
5(3.180804164e-05 3.491361273e-05 3.691646922e-05 3.489794325e-05 3.228914113e-05)
5(3.411885592e-05 3.684226248e-05 3.798966346e-05 3.503984153e-05 3.189827943e-05)
5(3.626215986e-05 3.851325062e-05 3.860310448e-05 3.492239237e-05 3.131726197e-05)
5(3.818671714e-05 3.975858431e-05 3.878364483e-05 3.454053796e-05 3.057955291e-05)
5(3.977697003e-05 4.043472193e-05 3.855961817e-05 3.390641145e-05 2.978258749e-05)
5(4.092635385e-05 4.050658772e-05 3.794760259e-05 3.306363221e-05 2.897177505e-05)
5(4.151914432e-05 4.003037329e-05 3.699692813e-05 3.209221298e-05 2.818285337e-05)
5(4.142090605e-05 3.907765874e-05 3.57734193e-05 3.105789e-05 2.751013664e-05)
5(4.056843292e-05 3.772086797e-05 3.436193781e-05 3.005540348e-05 2.699544775e-05)
5(3.900782735e-05 3.604045565e-05 3.287078983e-05 2.9168779e-05 2.67075563e-05)
5(3.689810212e-05 3.414885099e-05 3.138875461e-05 2.847327783e-05 2.671452745e-05)
5(3.436841034e-05 3.217159775e-05 3.002437934e-05 2.801962024e-05 2.705396647e-05)
5(3.163155244e-05 3.023621198e-05 2.886053932e-05 2.788156423e-05 2.780337896e-05)
5(2.893821594e-05 2.847222084e-05 2.800500293e-05 2.815829802e-05 2.909214942e-05)
5(2.625626801e-05 2.725093262e-05 2.826444116e-05 3.045817118e-05 3.276260207e-05)
)


60
(
5(4.43558558e-09 8.075234919e-09 3.034683505e-08 6.689918878e-08 1.821318993e-07)
5(5.56182784e-09 1.250064484e-08 3.217351705e-08 7.47787644e-08 1.669268814e-07)
5(8.173101838e-09 2.059532717e-08 4.266815035e-08 9.874534234e-08 1.948625329e-07)
5(1.272623407e-08 3.282832229e-08 6.432200612e-08 1.418164003e-07 2.637254642e-07)
5(2.04478283e-08 5.093303119e-08 9.978679229e-08 2.071327274e-07 3.786731207e-07)
5(3.263619478e-08 7.703739529e-08 1.505330289e-07 2.965849128e-07 5.366580303e-07)
5(4.968428434e-08 1.126594453e-07 2.167129707e-07 4.10615545e-07 7.256418679e-07)
5(7.250208971e-08 1.595992204e-07 2.997553567e-07 5.516130282e-07 9.451867761e-07)
5(1.027948261e-07 2.203594394e-07 4.031910685e-07 7.24262807e-07 1.207647772e-06)
5(1.428262554e-07 2.976271413e-07 5.323851286e-07 9.340844041e-07 1.52277256e-06)
5(1.950008924e-07 3.944977802e-07 6.925793771e-07 1.186228382e-06 1.899876692e-06)
5(2.612434665e-07 5.136091275e-07 8.869151232e-07 1.484332064e-06 2.334737068e-06)
5(3.43188039e-07 6.579463309e-07 1.117967572e-06 1.83036688e-06 2.829592649e-06)
5(4.439341716e-07 8.305601525e-07 1.38824707e-06 2.227066433e-06 3.382119642e-06)
5(5.652769976e-07 1.034506547e-06 1.701251257e-06 2.67773334e-06 3.998857165e-06)
5(7.105773833e-07 1.272933594e-06 2.060942062e-06 3.185624565e-06 4.680680252e-06)
5(8.842738506e-07 1.549080054e-06 2.471069885e-06 3.751848521e-06 5.432004252e-06)
5(1.086511718e-06 1.866503533e-06 2.934204424e-06 4.378903251e-06 6.245382671e-06)
5(1.32284764e-06 2.228287544e-06 3.452486823e-06 5.070946269e-06 7.129198684e-06)
5(1.595402584e-06 2.63747043e-06 4.029242384e-06 5.827193574e-06 8.078147987e-06)
5(1.907952516e-06 3.097627994e-06 4.667486809e-06 6.648302859e-06 9.095017015e-06)
5(2.264199894e-06 3.611894005e-06 5.368317257e-06 7.534860238e-06 1.017493667e-05)
5(2.665911037e-06 4.183321778e-06 6.134163437e-06 8.486937242e-06 1.131515676e-05)
5(3.120890932e-06 4.816046429e-06 6.96900667e-06 9.507296625e-06 1.25290282e-05)
5(3.63338429e-06 5.513022984e-06 7.875946208e-06 1.059961534e-05 1.379487184e-05)
5(4.199849421e-06 6.277744644e-06 8.857048413e-06 1.176498103e-05 1.512884484e-05)
5(4.837154749e-06 7.117393806e-06 9.915744393e-06 1.300393522e-05 1.652747719e-05)
5(5.546098207e-06 8.034049923e-06 1.105600235e-05 1.431816495e-05 1.798135973e-05)
5(6.335664905e-06 9.033979892e-06 1.228177299e-05 1.570891286e-05 1.950211196e-05)
5(7.201186905e-06 1.012594245e-05 1.3597897e-05 1.717834571e-05 2.107964984e-05)
5(8.167310888e-06 1.131731092e-05 1.50097409e-05 1.873085749e-05 2.271895566e-05)
5(9.236794263e-06 1.26142716e-05 1.652299659e-05 2.036882789e-05 2.442627069e-05)
5(1.041314657e-05 1.402443284e-05 1.814544722e-05 2.209515203e-05 2.617556796e-05)
5(1.171201598e-05 1.555594628e-05 1.988328368e-05 2.391100171e-05 2.798443887e-05)
5(1.314704902e-05 1.722094504e-05 2.173955418e-05 2.581772668e-05 2.983745082e-05)
5(1.473190877e-05 1.902752844e-05 2.372180858e-05 2.781443895e-05 3.173556575e-05)
5(1.647848333e-05 2.098088271e-05 2.583134693e-05 2.989880244e-05 3.36853728e-05)
5(1.838571322e-05 2.309158753e-05 2.806966065e-05 3.206712283e-05 3.566109525e-05)
5(2.047762766e-05 2.536653256e-05 3.043382421e-05 3.43052159e-05 3.760953532e-05)
5(2.275082426e-05 2.780038819e-05 3.291206941e-05 3.659212968e-05 3.942494665e-05)
5(2.520639671e-05 3.038866997e-05 3.549316006e-05 3.888689224e-05 4.105450842e-05)
5(2.784193003e-05 3.311437221e-05 3.815707991e-05 4.111882816e-05 4.245878094e-05)
5(3.064217816e-05 3.595477724e-05 4.087470497e-05 4.319776355e-05 4.3658937e-05)
5(3.35614164e-05 3.887556237e-05 4.360011494e-05 4.503773413e-05 4.466690312e-05)
5(3.658224241e-05 4.182959593e-05 4.623501743e-05 4.659839211e-05 4.543599901e-05)
5(3.964608102e-05 4.477059975e-05 4.864505287e-05 4.786765988e-05 4.593609123e-05)
5(4.266631101e-05 4.762429192e-05 5.069092086e-05 4.883522875e-05 4.612889211e-05)
5(4.560347254e-05 5.02641747e-05 5.229147707e-05 4.94817175e-05 4.601407563e-05)
5(4.836983143e-05 5.252442259e-05 5.342218548e-05 4.977643161e-05 4.562728227e-05)
5(5.089151444e-05 5.424440559e-05 5.407814353e-05 4.967711703e-05 4.501879759e-05)
5(5.306050078e-05 5.536714296e-05 5.423503016e-05 4.920629599e-05 4.423264836e-05)
5(5.472065467e-05 5.589344624e-05 5.388078106e-05 4.84125639e-05 4.333941833e-05)
5(5.573858817e-05 5.582920086e-05 5.303991052e-05 4.73735221e-05 4.246459955e-05)
5(5.60237744e-05 5.517804635e-05 5.17725898e-05 4.618093557e-05 4.158423654e-05)
5(5.555068087e-05 5.396235502e-05 5.016662443e-05 4.495027171e-05 4.092438027e-05)
5(5.421819228e-05 5.221837055e-05 4.835355774e-05 4.379471751e-05 4.054788658e-05)
5(5.218873357e-05 5.006430054e-05 4.648337845e-05 4.284461885e-05 4.051022528e-05)
5(4.953645832e-05 4.767208034e-05 4.474312213e-05 4.224199528e-05 4.09496415e-05)
5(4.636933812e-05 4.521677073e-05 4.336889562e-05 4.218484149e-05 4.207828054e-05)
5(4.279104892e-05 4.357443861e-05 4.369677102e-05 4.451409388e-05 4.648954341e-05)
)


60
(
5(6.245607432e-09 1.220864904e-08 4.476054903e-08 1.01883781e-07 2.62342058e-07)
5(8.220421012e-09 1.895360692e-08 4.936695268e-08 1.150711233e-07 2.533647519e-07)
5(1.22333609e-08 3.101782469e-08 6.616310592e-08 1.504199023e-07 2.97681892e-07)
5(1.91794645e-08 4.872414581e-08 9.801865304e-08 2.111160341e-07 3.975484538e-07)
5(3.056115634e-08 7.43510474e-08 1.480039444e-07 3.005906889e-07 5.52054027e-07)
5(4.792506636e-08 1.106517887e-07 2.176549721e-07 4.206331454e-07 7.580478463e-07)
5(7.211758411e-08 1.594955497e-07 3.07228066e-07 5.716700363e-07 1.004562813e-06)
5(1.038034799e-07 2.23149887e-07 4.185853903e-07 7.560765259e-07 1.287080173e-06)
5(1.456824309e-07 3.044147355e-07 5.559767912e-07 9.796202068e-07 1.622112073e-06)
5(2.000150365e-07 4.066756434e-07 7.255566208e-07 1.248646616e-06 2.021854685e-06)
5(2.701463206e-07 5.332570876e-07 9.327159081e-07 1.568236214e-06 2.490753897e-06)
5(3.571654878e-07 6.874003411e-07 1.181366138e-06 1.941811427e-06 3.029009584e-06)
5(4.651707213e-07 8.723647609e-07 1.474004011e-06 2.372191512e-06 3.63368672e-06)
5(5.958542195e-07 1.091691868e-06 1.813356355e-06 2.861678489e-06 4.30726023e-06)
5(7.530941098e-07 1.348629397e-06 2.20321484e-06 3.413604688e-06 5.053343218e-06)
5(9.3896321e-07 1.646968047e-06 2.647923369e-06 4.030894234e-06 5.873076773e-06)
5(1.157819478e-06 1.990389046e-06 3.151126877e-06 4.715483967e-06 6.770089819e-06)
5(1.413652938e-06 2.382096918e-06 3.715698717e-06 5.470908967e-06 7.739469205e-06)
5(1.708609145e-06 2.826024051e-06 4.344668031e-06 6.298415208e-06 8.791287938e-06)
5(2.048068997e-06 3.325566944e-06 5.04069612e-06 7.199765299e-06 9.910348448e-06)
5(2.435683146e-06 3.884181627e-06 5.806662015e-06 8.175815726e-06 1.110969721e-05)
5(2.870429419e-06 4.505686931e-06 6.645227184e-06 9.226480439e-06 1.23859772e-05)
5(3.364377334e-06 5.193231571e-06 7.558764653e-06 1.035352136e-05 1.373349288e-05)
5(3.918235488e-06 5.950711603e-06 8.551284151e-06 1.15600508e-05 1.515740388e-05)
5(4.535245403e-06 6.782773565e-06 9.626321327e-06 1.284948035e-05 1.66597818e-05)
5(5.221507712e-06 7.69393032e-06 1.078702507e-05 1.422417524e-05 1.822962216e-05)
5(5.985042801e-06 8.689443164e-06 1.203718016e-05 1.568559487e-05 1.988032533e-05)
5(6.830558724e-06 9.77554338e-06 1.338186094e-05 1.723493327e-05 2.160440014e-05)
5(7.767195201e-06 1.095883389e-05 1.482631674e-05 1.88765262e-05 2.341406094e-05)
5(8.798074804e-06 1.224624727e-05 1.63752503e-05 2.061427216e-05 2.529590178e-05)
5(9.941911351e-06 1.364443388e-05 1.80360298e-05 2.245160963e-05 2.726391387e-05)
5(1.11956222e-05 1.516382052e-05 1.981779448e-05 2.439509038e-05 2.931440206e-05)
5(1.257569725e-05 1.681571267e-05 2.172616818e-05 2.644934276e-05 3.144270061e-05)
5(1.409346728e-05 1.860725843e-05 2.37693984e-05 2.8618834e-05 3.363792135e-05)
5(1.576117587e-05 2.054869088e-05 2.595522598e-05 3.090652727e-05 3.593659545e-05)
5(1.760377482e-05 2.265295441e-05 2.829408871e-05 3.331572235e-05 3.830270902e-05)
5(1.960781516e-05 2.493198709e-05 3.079447034e-05 3.584959629e-05 4.075215235e-05)
5(2.181545093e-05 2.739808254e-05 3.345807174e-05 3.850765901e-05 4.327729892e-05)
5(2.421107256e-05 3.005796443e-05 3.628957329e-05 4.128279643e-05 4.58255809e-05)
5(2.682198114e-05 3.291309033e-05 3.928531955e-05 4.415752415e-05 4.830583682e-05)
5(2.963738346e-05 3.596572508e-05 4.243354358e-05 4.710357457e-05 5.060540999e-05)
5(3.265987612e-05 3.920354369e-05 4.572767593e-05 5.005354314e-05 5.281169424e-05)
5(3.58649638e-05 4.260623246e-05 4.914575004e-05 5.291971675e-05 5.481287655e-05)
5(3.922630611e-05 4.614627289e-05 5.265012252e-05 5.562286657e-05 5.66973713e-05)
5(4.271047023e-05 4.977916677e-05 5.614121996e-05 5.811694907e-05 5.834345682e-05)
5(4.627947163e-05 5.345714499e-05 5.948892779e-05 6.037446861e-05 5.973976246e-05)
5(4.982408845e-05 5.711011087e-05 6.255228499e-05 6.236994079e-05 6.081266547e-05)
5(5.343276014e-05 6.061925463e-05 6.524230468e-05 6.404971375e-05 6.149417196e-05)
5(5.690989158e-05 6.382662349e-05 6.753227992e-05 6.535639179e-05 6.183436302e-05)
5(6.018571685e-05 6.659012546e-05 6.936764408e-05 6.622925462e-05 6.182679206e-05)
5(6.329356265e-05 6.88589297e-05 7.070398223e-05 6.662106322e-05 6.152599199e-05)
5(6.596497199e-05 7.059575144e-05 7.148759401e-05 6.653779883e-05 6.090870247e-05)
5(6.813489488e-05 7.184816334e-05 7.167078682e-05 6.601137341e-05 6.010354678e-05)