/*--------------------------------*- C++ -*----------------------------------*\
| =========                 |                                                 |
| \\      /  F ield         | OpenFOAM: The Open Source CFD Toolbox           |
|  \\    /   O peration     | Version:  2.3.1                                 |
|   \\  /    A nd           | Web:      www.OpenFOAM.org                      |
|    \\/     M anipulation  |                                                 |
\*---------------------------------------------------------------------------*/
FoamFile
{
    version     2.0;
    format      ascii;
    class       dictionary;
    location    "constant";
    object      HO2;
}
// * * * * * * * * * * * * * * * * * * * * * * * * * * * * * * * * * * * * * //

HO2_table
60
(

60
(
5(6.277100342e-06 3.55049049e-06 1.201528918e-05 1.042425621e-05 2.089866192e-05)
5(3.131184086e-06 9.037007217e-07 5.331600817e-06 5.238383757e-06 8.811462269e-06)
5(0 1.623757129e-06 2.356319265e-06 2.363935057e-06 0)
5(0 1.988374828e-06 2.544464523e-06 7.097673763e-07 4.121326173e-06)
5(0 1.950518616e-06 3.009724444e-06 2.647241322e-06 3.145485336e-06)
5(1.175617029e-06 1.897166142e-06 1.546926945e-06 3.170711511e-06 2.942055235e-06)
5(2.152292529e-06 1.895191227e-06 2.179830406e-06 2.553201215e-06 5.916210687e-06)
5(1.314557927e-06 2.07785656e-06 3.42510805e-06 3.321171721e-06 2.490258876e-06)
5(1.492688404e-06 2.417244011e-06 3.302168664e-06 3.805182917e-06 4.217577502e-06)
5(1.421132854e-06 2.787364335e-06 4.37398467e-06 3.911909367e-06 5.051634794e-06)
5(1.518923641e-06 3.021874287e-06 4.700197361e-06 4.455035078e-06 5.674789518e-06)
5(1.858704701e-06 3.424417418e-06 4.541815315e-06 4.933953032e-06 5.682298682e-06)
5(2.627992693e-06 3.796649207e-06 4.789751858e-06 5.766095342e-06 6.578773325e-06)
5(3.26331311e-06 4.18370252e-06 5.289918266e-06 5.63402975e-06 6.666592504e-06)
5(3.180098002e-06 4.302320633e-06 5.427899759e-06 6.290579693e-06 6.97088714e-06)
5(3.334420088e-06 4.294522999e-06 5.706468556e-06 6.45313578e-06 7.242343234e-06)
5(3.533225397e-06 4.507343044e-06 5.864337774e-06 6.769316017e-06 7.735445115e-06)
5(3.848353106e-06 4.744545822e-06 6.335258737e-06 7.138824963e-06 7.856198494e-06)
5(4.06374609e-06 5.020727888e-06 6.457731865e-06 7.084066758e-06 7.624817921e-06)
5(4.319638768e-06 5.384936485e-06 6.618909119e-06 7.279759874e-06 7.391218698e-06)
5(4.333999231e-06 5.209852422e-06 6.345644765e-06 6.976719848e-06 7.173317934e-06)
5(4.357924525e-06 5.117060146e-06 6.229369954e-06 6.185032289e-06 6.490423108e-06)
5(4.447029233e-06 5.04045775e-06 5.959977418e-06 6.153067447e-06 6.338684651e-06)
5(4.290438707e-06 4.994331019e-06 5.700938864e-06 5.769783573e-06 5.834610355e-06)
5(4.209942071e-06 4.757969117e-06 5.4381318e-06 5.477848224e-06 5.454026054e-06)
5(4.052214049e-06 4.459834257e-06 5.222892167e-06 5.195099502e-06 4.966480246e-06)
5(3.90591514e-06 4.158542368e-06 4.737874854e-06 4.81774264e-06 4.525998394e-06)
5(3.67160114e-06 3.913720354e-06 4.45134963e-06 4.427533718e-06 4.088575829e-06)
5(3.562715572e-06 3.698226914e-06 4.048540047e-06 3.997252821e-06 3.710688088e-06)
5(3.373103239e-06 3.507237908e-06 3.70390662e-06 3.550843545e-06 3.305773716e-06)
5(3.233947742e-06 3.310758556e-06 3.470503736e-06 3.301062394e-06 2.99368488e-06)
5(3.059419639e-06 3.067170688e-06 3.13187655e-06 2.899407132e-06 2.493350829e-06)
5(2.881130519e-06 2.890167213e-06 2.915524396e-06 2.643040837e-06 2.410926276e-06)
5(2.754873382e-06 2.745854811e-06 2.748415691e-06 2.383068719e-06 1.991856274e-06)
5(2.643680734e-06 2.568300023e-06 2.517782957e-06 2.170145809e-06 1.82960106e-06)
5(2.533075913e-06 2.488626724e-06 2.455683903e-06 1.995856495e-06 1.641729463e-06)
5(2.43646152e-06 2.257534215e-06 2.089658215e-06 1.746552839e-06 1.455491728e-06)
5(2.34196687e-06 2.188446697e-06 1.935770983e-06 1.626150347e-06 1.034213653e-06)
5(2.27838542e-06 2.052407005e-06 1.835578555e-06 1.44888743e-06 1.159477776e-06)
5(2.257078851e-06 1.951094877e-06 1.763052521e-06 1.3475421e-06 1.496231615e-07)
5(2.159449037e-06 1.780399468e-06 1.534515587e-06 1.197302598e-06 1.882467671e-07)
5(2.025619199e-06 1.655391594e-06 1.386571632e-06 8.594207993e-07 1.946643714e-07)
5(1.917278144e-06 1.482596112e-06 1.224427717e-06 2.335371406e-07 2.313345907e-07)
5(1.820511789e-06 1.417593153e-06 1.326771495e-06 2.762569824e-07 3.422776154e-07)
5(1.718765925e-06 1.290248525e-06 1.167686487e-06 3.235474551e-07 3.306639183e-07)
5(1.553983162e-06 1.230764983e-06 9.933307303e-07 3.786117362e-07 3.734927227e-07)
5(1.424540642e-06 1.110053654e-06 5.962622755e-07 4.451239488e-07 4.329999953e-07)
5(1.34644454e-06 8.956884348e-07 5.010145286e-07 5.074247941e-07 4.998398201e-07)
5(1.233063485e-06 9.149200008e-07 5.544812563e-07 5.826776342e-07 5.741146463e-07)
5(1.163130192e-06 5.990866613e-07 6.34262152e-07 6.653378963e-07 6.555686523e-07)
5(1.097473843e-06 6.765056813e-07 7.238052014e-07 7.577403006e-07 7.459663526e-07)
5(8.256012321e-07 7.695978618e-07 8.222763264e-07 8.584519435e-07 8.450205054e-07)
5(7.905642627e-07 8.719373028e-07 9.301647108e-07 9.687263683e-07 9.530182984e-07)
5(8.796504184e-07 9.829021474e-07 1.048956299e-06 1.08848527e-06 1.072824762e-06)
5(9.915644075e-07 1.103754282e-06 1.177937247e-06 1.220242193e-06 1.202819182e-06)
5(1.130384837e-06 1.235641017e-06 1.318339938e-06 1.361196764e-06 1.344186902e-06)
5(1.301066708e-06 1.380087715e-06 1.470547353e-06 1.514923092e-06 1.500816678e-06)
5(1.469070263e-06 1.551598477e-06 1.637665421e-06 1.684294969e-06 1.660800146e-06)
5(1.632197442e-06 1.74078687e-06 1.835157127e-06 1.825801511e-06 1.852599725e-06)
5(1.802757343e-06 1.962567222e-06 2.083878489e-06 2.152900626e-06 2.112049009e-06)
)


60
(
5(1.112119884e-05 1.037874125e-05 2.09762663e-05 2.277460663e-05 3.453227644e-05)
5(9.298997378e-06 1.086548497e-05 1.615818258e-05 1.969335265e-05 2.5776419e-05)
5(8.688634243e-06 1.15960271e-05 1.452411529e-05 1.897758776e-05 2.214705476e-05)
5(9.043467396e-06 1.258697813e-05 1.519929769e-05 1.993864935e-05 2.252880211e-05)
5(1.014215352e-05 1.384955323e-05 1.726954332e-05 2.181918939e-05 2.516184718e-05)
5(1.156553171e-05 1.524081089e-05 1.947854701e-05 2.376876387e-05 2.791803236e-05)
5(1.2827115e-05 1.659694066e-05 2.111894515e-05 2.535191447e-05 2.945657508e-05)
5(1.387763427e-05 1.7877313e-05 2.24005906e-05 2.653268578e-05 3.009377092e-05)
5(1.487639852e-05 1.907446763e-05 2.345096435e-05 2.739146893e-05 3.033033458e-05)
5(1.595684945e-05 2.022910363e-05 2.447945576e-05 2.810656805e-05 3.039805637e-05)
5(1.702426381e-05 2.127767987e-05 2.539376832e-05 2.855641439e-05 3.03040822e-05)
5(1.806820626e-05 2.21379527e-05 2.611185422e-05 2.867316029e-05 2.989232421e-05)
5(1.896862819e-05 2.279245577e-05 2.64969247e-05 2.843310183e-05 2.905848781e-05)
5(1.968969097e-05 2.320094706e-05 2.653900803e-05 2.7921122e-05 2.796819293e-05)
5(2.022364966e-05 2.335147279e-05 2.62783737e-05 2.710070741e-05 2.666666481e-05)
5(2.057819847e-05 2.328641424e-05 2.578296967e-05 2.607187183e-05 2.522084168e-05)
5(2.070597716e-05 2.298550939e-05 2.506070568e-05 2.488574612e-05 2.369234065e-05)
5(2.064478432e-05 2.247939033e-05 2.413223126e-05 2.356652226e-05 2.213856494e-05)
5(2.038926463e-05 2.177705299e-05 2.304571347e-05 2.218193757e-05 2.058227909e-05)
5(1.995230585e-05 2.094212766e-05 2.185167579e-05 2.07687718e-05 1.907479472e-05)
5(1.935797111e-05 1.999299699e-05 2.059505663e-05 1.935082342e-05 1.761099665e-05)
5(1.863456897e-05 1.897522939e-05 1.930477711e-05 1.797899871e-05 1.623335885e-05)
5(1.782767075e-05 1.791228153e-05 1.80297833e-05 1.665542178e-05 1.494575656e-05)
5(1.697034606e-05 1.684310397e-05 1.679295115e-05 1.539456617e-05 1.374539367e-05)
5(1.606428725e-05 1.578927117e-05 1.560166233e-05 1.422621878e-05 1.263987186e-05)
5(1.517205022e-05 1.477511389e-05 1.449387666e-05 1.314547122e-05 1.162655416e-05)
5(1.429103159e-05 1.380482396e-05 1.344899173e-05 1.214917905e-05 1.069978566e-05)
5(1.344382789e-05 1.290718781e-05 1.248192977e-05 1.123464506e-05 9.853152837e-06)
5(1.264481492e-05 1.207529299e-05 1.159937329e-05 1.039849108e-05 9.092360736e-06)
5(1.190840355e-05 1.130787597e-05 1.07936357e-05 9.642769819e-06 8.396010056e-06)
5(1.122962124e-05 1.060986131e-05 1.006391053e-05 8.95736433e-06 7.770540338e-06)
5(1.06149246e-05 9.980918054e-06 9.402274935e-06 8.339448511e-06 7.202249344e-06)
5(1.006344167e-05 9.417347532e-06 8.813344662e-06 7.781165369e-06 6.68619519e-06)
5(9.575193036e-06 8.914744749e-06 8.283431508e-06 7.277682689e-06 6.216972297e-06)
5(9.141791721e-06 8.467933496e-06 7.809365873e-06 6.821703609e-06 5.789939319e-06)
5(8.769278481e-06 8.070161613e-06 7.382849996e-06 6.408066822e-06 5.396833976e-06)
5(8.435426408e-06 7.713177145e-06 6.997149495e-06 6.025390662e-06 5.037140834e-06)
5(8.149766367e-06 7.39215983e-06 6.642607104e-06 5.672535269e-06 4.703631554e-06)
5(7.89248325e-06 7.09110144e-06 6.310673189e-06 5.341782399e-06 4.383145387e-06)
5(7.651871968e-06 6.810696689e-06 5.992913848e-06 5.021776409e-06 4.064618688e-06)
5(7.420356582e-06 6.528743443e-06 5.677765062e-06 4.708605525e-06 3.739552839e-06)
5(7.180864917e-06 6.253064623e-06 5.371236387e-06 4.392842451e-06 3.416977883e-06)
5(6.937707274e-06 5.961173896e-06 5.063468824e-06 4.069194534e-06 3.105670386e-06)
5(6.670027493e-06 5.65080129e-06 4.757436281e-06 3.740094179e-06 2.817794379e-06)
5(6.376596574e-06 5.33924127e-06 4.447618334e-06 3.415297652e-06 2.555787324e-06)
5(6.05753111e-06 5.023844351e-06 4.134048397e-06 3.109751217e-06 2.321121812e-06)
5(5.724434788e-06 4.714027477e-06 3.815650604e-06 2.834893238e-06 2.115967551e-06)
5(5.387510421e-06 4.408257504e-06 3.507138042e-06 2.594068546e-06 1.94199633e-06)
5(5.062298701e-06 4.108682008e-06 3.220373396e-06 2.386573217e-06 1.801783461e-06)
5(4.742266425e-06 3.808560287e-06 2.963350162e-06 2.21214154e-06 1.694930107e-06)
5(4.437661313e-06 3.516641462e-06 2.738515799e-06 2.072041678e-06 1.620545608e-06)
5(4.130332628e-06 3.242828694e-06 2.546827938e-06 1.967615788e-06 1.577973971e-06)
5(3.8217421e-06 2.998221906e-06 2.391644201e-06 1.89764244e-06 1.564352241e-06)
5(3.506396728e-06 2.785330387e-06 2.27182851e-06 1.860763569e-06 1.581255817e-06)
5(3.198564385e-06 2.610789402e-06 2.190486902e-06 1.859174991e-06 1.625918892e-06)
5(2.917136851e-06 2.473111803e-06 2.145721326e-06 1.889541528e-06 1.698075421e-06)
5(2.674104432e-06 2.373597735e-06 2.137389212e-06 1.950061964e-06 1.795986257e-06)
5(2.481014499e-06 2.314711598e-06 2.163403979e-06 2.039213474e-06 1.919356192e-06)
5(2.345946044e-06 2.29378683e-06 2.219415269e-06 2.15619432e-06 2.070431658e-06)
5(2.278785722e-06 2.328026266e-06 2.31362669e-06 2.347906777e-06 2.278944235e-06)
)


60
(
5(1.591733349e-05 1.681909708e-05 2.965055844e-05 3.418810642e-05 4.661208491e-05)
5(1.515619967e-05 1.856926589e-05 2.609607387e-05 3.2279024e-05 3.994045836e-05)
5(1.528267457e-05 2.019291866e-05 2.549641897e-05 3.240828555e-05 3.759999132e-05)
5(1.622979169e-05 2.185268297e-05 2.696883207e-05 3.38998035e-05 3.83497896e-05)
5(1.789943572e-05 2.370881854e-05 2.952801035e-05 3.599811354e-05 4.05908703e-05)
5(1.987370227e-05 2.564757809e-05 3.205627854e-05 3.790562925e-05 4.24873943e-05)
5(2.16481523e-05 2.742350925e-05 3.392849346e-05 3.922929984e-05 4.316025265e-05)
5(2.31720237e-05 2.902840506e-05 3.524180899e-05 3.996728291e-05 4.290457604e-05)
5(2.458894584e-05 3.043163413e-05 3.619184346e-05 4.026048868e-05 4.214126507e-05)
5(2.595618882e-05 3.160967156e-05 3.688424084e-05 4.017194371e-05 4.113284623e-05)
5(2.721136155e-05 3.251448729e-05 3.729867331e-05 3.970485304e-05 3.979211892e-05)
5(2.828115625e-05 3.309372821e-05 3.732765873e-05 3.883329587e-05 3.814088854e-05)
5(2.911087511e-05 3.335032877e-05 3.695296694e-05 3.761708203e-05 3.623628392e-05)
5(2.96391942e-05 3.325639235e-05 3.618706723e-05 3.611080465e-05 3.416892414e-05)
5(2.98683129e-05 3.283729546e-05 3.51071808e-05 3.439160301e-05 3.200929216e-05)
5(2.979277322e-05 3.212199162e-05 3.37666587e-05 3.253154121e-05 2.984682865e-05)
5(2.947754622e-05 3.115599023e-05 3.224458611e-05 3.059888672e-05 2.772271965e-05)
5(2.890108366e-05 2.998674387e-05 3.058072965e-05 2.864189969e-05 2.566681254e-05)
5(2.809561142e-05 2.866627906e-05 2.884260619e-05 2.670215388e-05 2.371228782e-05)
5(2.710694156e-05 2.723476973e-05 2.706313187e-05 2.482016019e-05 2.187412184e-05)
5(2.596753764e-05 2.574912849e-05 2.529919154e-05 2.301741224e-05 2.016292151e-05)
5(2.474646877e-05 2.424039615e-05 2.357693693e-05 2.130895976e-05 1.8573878e-05)
5(2.346311851e-05 2.274389755e-05 2.193365283e-05 1.971428157e-05 1.711385027e-05)
5(2.215351001e-05 2.128705752e-05 2.037660903e-05 1.823276421e-05 1.577524627e-05)
5(2.085760499e-05 1.989194841e-05 1.891785927e-05 1.686706219e-05 1.455429525e-05)
5(1.960582358e-05 1.85755799e-05 1.756297083e-05 1.561488386e-05 1.343834892e-05)
5(1.840634271e-05 1.734242599e-05 1.631167823e-05 1.446988027e-05 1.242948754e-05)
5(1.726833134e-05 1.620782025e-05 1.516992942e-05 1.342883354e-05 1.151168105e-05)
5(1.622532404e-05 1.516092329e-05 1.412722699e-05 1.24818551e-05 1.068283878e-05)
5(1.52532054e-05 1.420710578e-05 1.318241258e-05 1.16268356e-05 9.931842657e-06)
5(1.43742504e-05 1.334558867e-05 1.232916188e-05 1.085440824e-05 9.255337798e-06)
5(1.357498467e-05 1.256594095e-05 1.155982787e-05 1.015856453e-05 8.644143825e-06)
5(1.285790335e-05 1.186617129e-05 1.08731504e-05 9.533877252e-06 8.091591221e-06)
5(1.222047839e-05 1.124693078e-05 1.025773464e-05 8.972014121e-06 7.591424306e-06)
5(1.165384752e-05 1.069393613e-05 9.70720584e-06 8.466464252e-06 7.138049915e-06)
5(1.114794903e-05 1.020441116e-05 9.218051252e-06 8.010049511e-06 6.727344979e-06)
5(1.071670198e-05 9.769219476e-06 8.778723057e-06 7.595850069e-06 6.349114728e-06)
5(1.033982887e-05 9.3816407e-06 8.38089123e-06 7.216648033e-06 6.001988398e-06)
5(1.000622028e-05 9.031579849e-06 8.014975321e-06 6.863698337e-06 5.671413692e-06)
5(9.703921548e-06 8.706453821e-06 7.671637748e-06 6.528401567e-06 5.347414354e-06)
5(9.420886861e-06 8.398746113e-06 7.343474231e-06 6.20277422e-06 5.023657048e-06)
5(9.155489848e-06 8.097361293e-06 7.020539966e-06 5.878277944e-06 4.700314737e-06)
5(8.882745197e-06 7.790368224e-06 6.698703127e-06 5.547039976e-06 4.382124476e-06)
5(8.598204717e-06 7.472489145e-06 6.374246122e-06 5.207425676e-06 4.073948985e-06)
5(8.293387248e-06 7.1408085e-06 6.042470637e-06 4.866385006e-06 3.781952622e-06)
5(7.96672976e-06 6.802767544e-06 5.703776971e-06 4.533311549e-06 3.506280638e-06)
5(7.619881998e-06 6.462742633e-06 5.359145365e-06 4.218767096e-06 3.252049762e-06)
5(7.262260755e-06 6.122349299e-06 5.019029205e-06 3.928499456e-06 3.021891469e-06)
5(6.904565874e-06 5.783327717e-06 4.694114999e-06 3.664354651e-06 2.818776656e-06)
5(6.557826206e-06 5.449684234e-06 4.39280735e-06 3.426929093e-06 2.644259615e-06)
5(6.223315375e-06 5.12368893e-06 4.116464723e-06 3.217122286e-06 2.498593188e-06)
5(5.895416602e-06 4.811738072e-06 3.864875021e-06 3.034679562e-06 2.381315713e-06)
5(5.564190042e-06 4.517141633e-06 3.636697851e-06 2.881317616e-06 2.292795435e-06)
5(5.224468385e-06 4.241335602e-06 3.434377684e-06 2.758109583e-06 2.234930489e-06)
5(4.878447378e-06 3.98425124e-06 3.260721741e-06 2.668087679e-06 2.209530214e-06)
5(4.533370077e-06 3.751201089e-06 3.119313709e-06 2.61221782e-06 2.216218261e-06)
5(4.20302468e-06 3.548041744e-06 3.013708468e-06 2.591821177e-06 2.255247175e-06)
5(3.905564646e-06 3.380889423e-06 2.94485731e-06 2.608597898e-06 2.327766545e-06)
5(3.66265808e-06 3.260864727e-06 2.920121857e-06 2.663973013e-06 2.436627223e-06)
5(3.582045419e-06 3.283793143e-06 3.068259114e-06 2.907756565e-06 2.670068409e-06)
)


60
(
5(2.072408094e-05 2.319991632e-05 3.807360491e-05 4.488554634e-05 5.751624527e-05)
5(2.098068644e-05 2.613304165e-05 3.567164114e-05 4.3880333e-05 5.235678607e-05)
5(2.181395298e-05 2.853891537e-05 3.589738879e-05 4.452788186e-05 5.070150439e-05)
5(2.328270966e-05 3.071290352e-05 3.788477281e-05 4.616717071e-05 5.135526233e-05)
5(2.541662839e-05 3.296383846e-05 4.062821098e-05 4.808623422e-05 5.283539795e-05)
5(2.780995608e-05 3.520226665e-05 4.313578078e-05 4.960845922e-05 5.372753428e-05)
5(2.993395869e-05 3.717146872e-05 4.487682127e-05 5.036200411e-05 5.339650775e-05)
5(3.173849503e-05 3.883209542e-05 4.593126817e-05 5.044322012e-05 5.219181493e-05)
5(3.333581836e-05 4.015340909e-05 4.648312429e-05 4.998584203e-05 5.04621451e-05)
5(3.477818498e-05 4.113018517e-05 4.664578292e-05 4.907418384e-05 4.843953615e-05)
5(3.60004652e-05 4.170487854e-05 4.640455813e-05 4.773386088e-05 4.614026654e-05)
5(3.691869127e-05 4.186839532e-05 4.571499445e-05 4.601432241e-05 4.363332101e-05)
5(3.748062592e-05 4.161014214e-05 4.459084724e-05 4.399479011e-05 4.096855187e-05)
5(3.768267588e-05 4.096273608e-05 4.310026006e-05 4.175717283e-05 3.825187684e-05)
5(3.751480137e-05 3.996747771e-05 4.132639779e-05 3.938202141e-05 3.556717488e-05)
5(3.700982907e-05 3.869163335e-05 3.935399389e-05 3.694683424e-05 3.296055004e-05)
5(3.619320564e-05 3.717175596e-05 3.724164763e-05 3.451617617e-05 3.046945147e-05)
5(3.513913525e-05 3.547057764e-05 3.505277792e-05 3.213273277e-05 2.812478115e-05)
5(3.384106744e-05 3.366419768e-05 3.28582774e-05 2.983910354e-05 2.592748263e-05)
5(3.241058715e-05 3.179283167e-05 3.069029244e-05 2.765870027e-05 2.389462403e-05)
5(3.085248949e-05 2.990154474e-05 2.859577593e-05 2.560961186e-05 2.202181803e-05)
5(2.921071446e-05 2.80462227e-05 2.659484939e-05 2.369605934e-05 2.029920094e-05)
5(2.75688819e-05 2.624026773e-05 2.470498408e-05 2.192444571e-05 1.872712875e-05)
5(2.596531234e-05 2.451247162e-05 2.293413705e-05 2.029275825e-05 1.729318732e-05)
5(2.43857812e-05 2.288061871e-05 2.12975311e-05 1.879611737e-05 1.599259485e-05)
5(2.287727267e-05 2.135951008e-05 1.978735601e-05 1.742826134e-05 1.480592721e-05)
5(2.145180383e-05 1.994642524e-05 1.840141564e-05 1.618222214e-05 1.373103328e-05)
5(2.012256799e-05 1.864422784e-05 1.713549593e-05 1.504995811e-05 1.275992792e-05)
5(1.889002996e-05 1.745102668e-05 1.59837469e-05 1.402373965e-05 1.187818889e-05)
5(1.775707696e-05 1.636329246e-05 1.494021947e-05 1.309592577e-05 1.108598223e-05)
5(1.672497448e-05 1.537637013e-05 1.39977256e-05 1.225918813e-05 1.03681888e-05)
5(1.579051339e-05 1.448699618e-05 1.314852538e-05 1.150630378e-05 9.723750439e-06)
5(1.494796216e-05 1.368841586e-05 1.23906473e-05 1.082986814e-05 9.142293851e-06)
5(1.419469277e-05 1.297543251e-05 1.171176766e-05 1.022394455e-05 8.618231264e-06)
5(1.352537051e-05 1.234199672e-05 1.110614227e-05 9.680898786e-06 8.14406764e-06)
5(1.293364131e-05 1.17801652e-05 1.056694946e-05 9.193569587e-06 7.717152343e-06)
5(1.241490679e-05 1.128272667e-05 1.008634165e-05 8.754743746e-06 7.329481586e-06)
5(1.19626691e-05 1.084251133e-05 9.656696087e-06 8.356618717e-06 6.972774345e-06)
5(1.156545125e-05 1.044954391e-05 9.267692409e-06 7.990983019e-06 6.640896719e-06)
5(1.121273365e-05 1.00942265e-05 8.909520691e-06 7.649064616e-06 6.318311412e-06)
5(1.089586347e-05 9.765943368e-06 8.571748656e-06 7.321818736e-06 6.00209908e-06)
5(1.060089371e-05 9.452240604e-06 8.245464268e-06 6.999160577e-06 5.686866855e-06)
5(1.031702812e-05 9.141892116e-06 7.923407115e-06 6.672828601e-06 5.374015099e-06)
5(1.003069269e-05 8.826210617e-06 7.599798634e-06 6.338446399e-06 5.067346769e-06)
5(9.734336951e-06 8.500714686e-06 7.26874668e-06 5.999356219e-06 4.768404965e-06)
5(9.419022829e-06 8.164686814e-06 6.927075854e-06 5.662466519e-06 4.480536568e-06)
5(9.08375564e-06 7.821723485e-06 6.577633722e-06 5.336688994e-06 4.206796609e-06)
5(8.734924313e-06 7.476069365e-06 6.229302624e-06 5.02834187e-06 3.951307061e-06)
5(8.376556329e-06 7.129904342e-06 5.893177457e-06 4.741586085e-06 3.719800564e-06)
5(8.028932464e-06 6.787110163e-06 5.577444294e-06 4.477758893e-06 3.511766262e-06)
5(7.690232654e-06 6.454813775e-06 5.284675664e-06 4.237261314e-06 3.328836582e-06)
5(7.362651327e-06 6.13901836e-06 5.013229441e-06 4.019519145e-06 3.170297002e-06)
5(7.044523717e-06 5.839977105e-06 4.759680674e-06 3.823705698e-06 3.036324124e-06)
5(6.725755033e-06 5.553115888e-06 4.522724508e-06 3.651914975e-06 2.928651779e-06)
5(6.400406801e-06 5.274818149e-06 4.304674141e-06 3.506895415e-06 2.851494384e-06)
5(6.063446619e-06 5.006484138e-06 4.10896885e-06 3.392735293e-06 2.807111101e-06)
5(5.722878394e-06 4.75568304e-06 3.94276653e-06 3.312268372e-06 2.795669364e-06)
5(5.393187135e-06 4.533502724e-06 3.813706695e-06 3.271088874e-06 2.821746599e-06)
5(5.10862842e-06 4.361101212e-06 3.737959464e-06 3.279163375e-06 2.893721147e-06)
5(5.075217438e-06 4.520061857e-06 4.03682498e-06 3.589507228e-06 3.230746956e-06)
)


60
(
5(2.554240993e-05 2.953870782e-05 4.62527093e-05 5.495733972e-05 6.747267071e-05)
5(2.680532642e-05 3.359732036e-05 4.489652809e-05 5.467976669e-05 6.34803383e-05)
5(2.831259741e-05 3.668572093e-05 4.578213948e-05 5.563178149e-05 6.216405765e-05)
5(3.023167002e-05 3.923752676e-05 4.807343169e-05 5.71949572e-05 6.248358805e-05)
5(3.273744224e-05 4.173587154e-05 5.081563832e-05 5.874991558e-05 6.314332621e-05)
5(3.544246674e-05 4.412508481e-05 5.311977209e-05 5.973031651e-05 6.30616265e-05)
5(3.779041468e-05 4.61110043e-05 5.455416919e-05 5.985412034e-05 6.178075968e-05)
5(3.974048697e-05 4.767589448e-05 5.520488888e-05 5.923856678e-05 5.969057747e-05)
5(4.139510271e-05 4.880179772e-05 5.526405058e-05 5.802870249e-05 5.710578518e-05)
5(4.278608108e-05 4.945730091e-05 5.484001011e-05 5.635096963e-05 5.427291879e-05)
5(4.384812986e-05 4.964180513e-05 5.394964842e-05 5.425869694e-05 5.120903977e-05)
5(4.451899705e-05 4.933779327e-05 5.259169606e-05 5.183378676e-05 4.803623361e-05)
5(4.477196955e-05 4.857514952e-05 5.082391132e-05 4.915763621e-05 4.48077262e-05)
5(4.457364559e-05 4.741475477e-05 4.871207367e-05 4.633680404e-05 4.162433765e-05)
5(4.400654093e-05 4.590565784e-05 4.637042254e-05 4.345267469e-05 3.853933195e-05)
5(4.307890039e-05 4.412918166e-05 4.38740122e-05 4.05778737e-05 3.5604453e-05)
5(4.182315082e-05 4.213867519e-05 4.130603114e-05 3.776969412e-05 3.284181095e-05)
5(4.033239281e-05 4.000948458e-05 3.872578628e-05 3.507064426e-05 3.027325696e-05)
5(3.863968093e-05 3.780921337e-05 3.618333303e-05 3.251125508e-05 2.789475502e-05)
5(3.681218286e-05 3.558375195e-05 3.372064742e-05 3.010586708e-05 2.570810143e-05)
5(3.490424479e-05 3.338646659e-05 3.137069577e-05 2.786173875e-05 2.370346436e-05)
5(3.297276262e-05 3.125240374e-05 2.914949246e-05 2.578371837e-05 2.187288487e-05)
5(3.10465953e-05 2.920586236e-05 2.707135784e-05 2.386883943e-05 2.020640338e-05)
5(2.917029095e-05 2.726641351e-05 2.514117058e-05 2.211011574e-05 1.868841219e-05)
5(2.736511684e-05 2.544765004e-05 2.335900012e-05 2.050226695e-05 1.730878869e-05)
5(2.565953022e-05 2.375252073e-05 2.1720354e-05 1.903611909e-05 1.605760969e-05)
5(2.4054447e-05 2.219057795e-05 2.022046775e-05 1.770175334e-05 1.492381255e-05)
5(2.2558127e-05 2.075142045e-05 1.885149088e-05 1.648993634e-05 1.389738417e-05)
5(2.118011595e-05 1.943332756e-05 1.760667908e-05 1.539156361e-05 1.296770204e-05)
5(1.991002014e-05 1.823217127e-05 1.647862448e-05 1.439847035e-05 1.212901384e-05)
5(1.87552343e-05 1.714281752e-05 1.545873985e-05 1.350123641e-05 1.137298392e-05)
5(1.770636978e-05 1.615735014e-05 1.453932285e-05 1.26944217e-05 1.069039048e-05)
5(1.675701329e-05 1.527076095e-05 1.371453752e-05 1.19693671e-05 1.007947873e-05)
5(1.590506823e-05 1.447710775e-05 1.297673821e-05 1.132000389e-05 9.52758188e-06)
5(1.514300801e-05 1.376823555e-05 1.231849178e-05 1.073862494e-05 9.031338188e-06)
5(1.44681035e-05 1.313886951e-05 1.173276004e-05 1.021839096e-05 8.585019819e-06)
5(1.387242145e-05 1.258254163e-05 1.121247503e-05 9.752393287e-06 8.18290165e-06)
5(1.334824274e-05 1.209106683e-05 1.074923767e-05 9.33330022e-06 7.818388887e-06)
5(1.289180518e-05 1.165637901e-05 1.033417778e-05 8.95321832e-06 7.479692163e-06)
5(1.249171218e-05 1.126882566e-05 9.957567885e-06 8.603053901e-06 7.159312706e-06)
5(1.213888257e-05 1.091756579e-05 9.609648793e-06 8.273331712e-06 6.846583682e-06)
5(1.181947723e-05 1.05910832e-05 9.280565819e-06 7.953488959e-06 6.538042416e-06)
5(1.15222467e-05 1.027834652e-05 8.961237893e-06 7.634021092e-06 6.234888735e-06)
5(1.123502141e-05 9.969046561e-06 8.644231966e-06 7.308883072e-06 5.935001221e-06)
5(1.094672867e-05 9.655448712e-06 8.321110111e-06 6.978170676e-06 5.639671165e-06)
5(1.06511062e-05 9.33414321e-06 7.988378579e-06 6.646449511e-06 5.349664193e-06)
5(1.033685686e-05 9.004606085e-06 7.6451861e-06 6.320641631e-06 5.069252329e-06)
5(1.000860651e-05 8.667948345e-06 7.299468304e-06 6.006843902e-06 4.803441693e-06)
5(9.668427245e-06 8.326385005e-06 6.962537291e-06 5.710756829e-06 4.556835509e-06)
5(9.326090282e-06 7.985040934e-06 6.643645205e-06 5.435729058e-06 4.332039193e-06)
5(8.98939066e-06 7.654576484e-06 6.34808782e-06 5.182725372e-06 4.129821261e-06)
5(8.664489477e-06 7.344548125e-06 6.075410128e-06 4.951275071e-06 3.9491484e-06)
5(8.355501588e-06 7.058514912e-06 5.821518173e-06 4.739291714e-06 3.788192183e-06)
5(8.058810097e-06 6.789882899e-06 5.58158965e-06 4.545148762e-06 3.650417918e-06)
5(7.773502553e-06 6.530877691e-06 5.35330509e-06 4.371062347e-06 3.537344977e-06)
5(7.487332334e-06 6.275253053e-06 5.138093481e-06 4.220576591e-06 3.453349418e-06)
5(7.196683234e-06 6.024474035e-06 4.943025702e-06 4.100166844e-06 3.40234165e-06)
5(6.904587693e-06 5.789829057e-06 4.782447107e-06 4.019004114e-06 3.390520531e-06)
5(6.637079154e-06 5.60149292e-06 4.684536519e-06 3.997432274e-06 3.433737393e-06)
5(6.690837833e-06 5.836780049e-06 5.100424428e-06 4.383191171e-06 3.875980525e-06)
)


60
(
5(3.036447454e-05 3.583759976e-05 5.419136822e-05 6.44633881e-05 7.668401922e-05)
5(3.262341885e-05 4.094917395e-05 5.378157227e-05 6.479801648e-05 7.360722842e-05)
5(3.474858428e-05 4.462364648e-05 5.520219226e-05 6.591468819e-05 7.246010699e-05)
5(3.707457295e-05 4.747216603e-05 5.765721338e-05 6.728804148e-05 7.229181335e-05)
5(3.988674072e-05 5.011616087e-05 6.027591452e-05 6.8396382e-05 7.215482191e-05)
5(4.28103757e-05 5.254300779e-05 6.227570732e-05 6.877933953e-05 7.11938528e-05)
5(4.529370286e-05 5.445278041e-05 6.33172884e-05 6.825850028e-05 6.904627916e-05)
5(4.729353661e-05 5.583866808e-05 6.351705542e-05 6.69633785e-05 6.618451856e-05)
5(4.890818562e-05 5.667274039e-05 6.304004546e-05 6.505813729e-05 6.286254873e-05)
5(5.016754029e-05 5.697473612e-05 6.203298466e-05 6.268770508e-05 5.932389075e-05)
5(5.100427405e-05 5.672843724e-05 6.052710019e-05 5.993418403e-05 5.564944679e-05)
5(5.139824413e-05 5.596972689e-05 5.857145898e-05 5.689839467e-05 5.19380268e-05)
5(5.129368654e-05 5.473122808e-05 5.622358111e-05 5.367481611e-05 4.824691903e-05)
5(5.073463366e-05 5.309316553e-05 5.35861568e-05 5.036829984e-05 4.467657242e-05)
5(4.974449238e-05 5.11203835e-05 5.075842794e-05 4.706453936e-05 4.126344078e-05)
5(4.840613177e-05 4.889846895e-05 4.783625358e-05 4.38322842e-05 3.806508836e-05)
5(4.676768167e-05 4.650509332e-05 4.489123343e-05 4.071568303e-05 3.507357457e-05)
5(4.48878743e-05 4.400568596e-05 4.198033303e-05 3.775315326e-05 3.231725424e-05)
5(4.284748479e-05 4.147348603e-05 3.915422733e-05 3.496708732e-05 2.977863587e-05)
5(4.068471019e-05 3.895816178e-05 3.644791734e-05 3.236728176e-05 2.745867761e-05)
5(3.848188984e-05 3.649951032e-05 3.388530728e-05 2.995720254e-05 2.533655733e-05)
5(3.628548094e-05 3.413440988e-05 3.148230361e-05 2.7735165e-05 2.339877447e-05)
5(3.412152286e-05 3.188499462e-05 2.924522398e-05 2.56920445e-05 2.163967751e-05)
5(3.203012735e-05 2.976654902e-05 2.717460154e-05 2.382175117e-05 2.004198558e-05)
5(3.004339963e-05 2.778787241e-05 2.526794383e-05 2.211434065e-05 1.859250975e-05)
5(2.816276657e-05 2.59522649e-05 2.35180057e-05 2.055708475e-05 1.727371834e-05)
5(2.640628665e-05 2.425359164e-05 2.191547314e-05 1.913986776e-05 1.60790339e-05)
5(2.477172324e-05 2.269392465e-05 2.045446422e-05 1.785280013e-05 1.49974346e-05)
5(2.326726644e-05 2.126577933e-05 1.91240294e-05 1.668502197e-05 1.401762248e-05)
5(2.188143731e-05 1.996303494e-05 1.791655294e-05 1.562753521e-05 1.313316352e-05)
5(2.061539228e-05 1.877784055e-05 1.682401021e-05 1.467299414e-05 1.233498179e-05)
5(1.946283368e-05 1.770523e-05 1.583774425e-05 1.381119779e-05 1.161466198e-05)
5(1.841956923e-05 1.6736964e-05 1.495178357e-05 1.303672966e-05 1.096707863e-05)
5(1.74781288e-05 1.586700375e-05 1.415489682e-05 1.23421677e-05 1.038923591e-05)
5(1.663575547e-05 1.508745381e-05 1.344301796e-05 1.172053594e-05 9.863899407e-06)
5(1.588067598e-05 1.439294046e-05 1.280929248e-05 1.116513277e-05 9.394355403e-06)
5(1.521006129e-05 1.377805189e-05 1.224671087e-05 1.066944195e-05 8.9740402e-06)
5(1.462161306e-05 1.323458462e-05 1.174769909e-05 1.022586153e-05 8.595069952e-06)
5(1.410493863e-05 1.275450835e-05 1.130256078e-05 9.82685812e-06 8.247387509e-06)
5(1.365486879e-05 1.233005861e-05 1.090340117e-05 9.463971118e-06 7.922699373e-06)
5(1.325938309e-05 1.195160837e-05 1.054106506e-05 9.127479899e-06 7.611264387e-06)
5(1.290847147e-05 1.160846499e-05 1.020515369e-05 8.807109725e-06 7.308422879e-06)
5(1.259356844e-05 1.128944163e-05 9.886899472e-06 8.492556038e-06 7.011772746e-06)
5(1.22996679e-05 1.098347255e-05 9.576490967e-06 8.176256186e-06 6.719489235e-06)
5(1.201696601e-05 1.068168382e-05 9.26468522e-06 7.856045737e-06 6.430079769e-06)
5(1.173504292e-05 1.037719753e-05 8.944995294e-06 7.533675291e-06 6.144255303e-06)
5(1.144116682e-05 1.006601731e-05 8.614848651e-06 7.213653265e-06 5.86366888e-06)
5(1.113931618e-05 9.745582769e-06 8.279598023e-06 6.901820864e-06 5.594526718e-06)
5(1.082262189e-05 9.41600425e-06 7.948364298e-06 6.604018682e-06 5.341767949e-06)
5(1.04965592e-05 9.081837011e-06 7.632548336e-06 6.32551391e-06 5.109346948e-06)
5(1.017081583e-05 8.755068128e-06 7.339935169e-06 6.07006876e-06 4.898278514e-06)
5(9.847069895e-06 8.448484348e-06 7.073513944e-06 5.837446354e-06 4.708515211e-06)
5(9.535567201e-06 8.170557701e-06 6.83221465e-06 5.625658473e-06 4.537502841e-06)
5(9.244810366e-06 7.922372845e-06 6.610771769e-06 5.430742835e-06 4.384903633e-06)