/*--------------------------------*- C++ -*----------------------------------*\
| =========                 |                                                 |
| \\      /  F ield         | OpenFOAM: The Open Source CFD Toolbox           |
|  \\    /   O peration     | Version:  2.3.1                                 |
|   \\  /    A nd           | Web:      www.OpenFOAM.org                      |
|    \\/     M anipulation  |                                                 |
\*---------------------------------------------------------------------------*/
FoamFile
{
    version     2.0;
    format      ascii;
    class       dictionary;
    location    "constant";
    object      la_i3;
}
// * * * * * * * * * * * * * * * * * * * * * * * * * * * * * * * * * * * * * //

la_i3_table
60
(

60
(
5(0.2302768867 1.473348459 1.507087814 0.004233690261 -0.05138738885)
5(0.2198319585 1.067175231 1.465656703 0.004108345256 -0.1004832895)
5(0.09325497359 1.330003026 1.438990466 0.003886079386 -0.03184764237)
5(0.1578406228 1.42392934 1.442468338 0.003994355805 -0.1330819259)
5(0.2256687408 1.300522083 1.371011191 0.004150708914 -0.03000269062)
5(0.2232302648 1.189631691 1.230927141 0.004040649197 -0.03241584323)
5(0.1945348828 1.183153617 1.380906279 0.004037700908 -0.05300519098)
5(0.1822370419 1.223365001 1.426488217 0.004081475172 -0.02527995105)
5(0.1921827097 1.229633013 1.407806896 0.004105387535 -0.05488334263)
5(0.1885937832 1.244261968 1.44278246 0.004081487368 -0.05073539085)
5(0.194641895 1.244262949 1.416955065 0.004104566594 -0.04655782497)
5(0.1994946188 1.241633938 1.401447243 0.004122526346 -0.0445201381)
5(0.2029409478 1.248161667 1.415867452 0.004132862171 -0.04662301671)
5(0.205247863 1.248230025 1.417978088 0.004101749132 -0.04668179531)
5(0.2033085082 1.250554188 1.427183027 0.004135171014 -0.04715636289)
5(0.2065107642 1.257721932 1.439891027 0.004137302706 -0.04963514467)
5(0.2078023094 1.262230088 1.443494409 0.004150604378 -0.05111681077)
5(0.2097326519 1.267718334 1.451049522 0.004158688243 -0.05046908143)
5(0.2123709055 1.276434 1.460883582 0.004161120146 -0.05094138522)
5(0.2155148614 1.282251096 1.469043943 0.004165335854 -0.04957469908)
5(0.2161199853 1.281019031 1.475632823 0.004131305413 -0.04907482464)
5(0.218739798 1.289249925 1.485061864 0.004149909812 -0.05176538584)
5(0.2213890035 1.296202055 1.497419395 0.004186120138 -0.05366395226)
5(0.2242716515 1.302307591 1.510173444 0.004195616913 -0.05304035782)
5(0.2275115105 1.303868734 1.525840089 0.004204987796 -0.05341787407)
5(0.2301469529 1.307727077 1.535898937 0.004187752922 -0.05228566957)
5(0.2325266643 1.311296792 1.546081819 0.004167869792 -0.05173950409)
5(0.235794291 1.31721082 1.556442481 0.00413921521 -0.0505386706)
5(0.2387237495 1.315420869 1.560377911 0.004111874559 -0.0491411149)
5(0.2410801761 1.308516982 1.565247158 0.004092964812 -0.04751530763)
5(0.2425177251 1.295151408 1.56092566 0.004020045081 -0.04283323171)
5(0.2422992337 1.276752324 1.554681987 0.003969871054 -0.04180866487)
5(0.2418316538 1.249364511 1.538973584 0.003880088024 -0.03755900457)
5(0.2393227801 1.208592026 1.504311003 0.003772568918 -0.03204380304)
5(0.2336777213 1.158428518 1.47003242 0.003631382717 -0.02714297912)
5(0.2263171684 1.084555723 1.396176692 0.003469282809 -0.02215107035)
5(0.2138307629 1.020956607 1.378265686 0.003354190176 -0.01495052767)
5(0.1993491028 0.9054241349 1.294929188 0.003126738114 -0.01396587166)
5(0.178262796 0.794590832 1.18626058 0.002955248142 0.02120632209)
5(0.150515849 0.6573023581 1.063793722 0.002601666974 0.02843399598)
5(0.1223060291 0.5338277592 1.009290971 0.002590791823 0.02959858114)
5(0.09180581847 0.3790573936 0.884179594 0.003079456284 0.03115301897)
5(0.0536943379 0.2389547734 0.7183110873 0.003004246437 0.01363893366)
5(0.01354799291 0.03522063688 0.4183521962 0.002765088477 0.01912611685)
5(-0.02525953708 -0.0933317729 0.5865603363 0.002430155707 0.03517734701)
5(-0.05413559739 -0.2248078305 0.9363333484 0.002241084915 0.03272423996)
5(-0.08223506064 -0.01062264269 1.099495485 0.002135769439 0.03744875631)
5(-0.1038710351 0.06256812764 0.9929186388 0.002007000668 0.04597845366)
5(-0.1435455283 0.5227137083 0.9315739153 0.001907590257 0.0505877958)
5(0.001132650998 0.7791294206 0.920707541 0.001786063783 0.05494859645)
5(0.1172202082 0.3748124217 0.8703286093 0.001687003169 0.05557446676)
5(0.09170035605 0.2878875882 0.8539292356 0.001606399394 0.05553245326)
5(0.03292393033 0.2578552825 0.8389130633 0.001536312691 0.05411937737)
5(0.01691905737 0.249025299 0.8210559135 0.001427634736 0.06240398618)
5(-0.006570679302 0.20694505 0.7701185629 0.001264432598 0.06069140957)
5(-0.04490120826 0.1806207025 0.7130510586 0.001053212812 0.07054837722)
5(-0.1515334338 0.06462978339 0.5702742528 0.0004433705273 0.09027335253)
5(-0.420435783 -0.5316801788 0.1504868418 0.0002183834637 0.06636740745)
5(-0.9189468394 -1.91746446 -1.130909693 0.001889936014 0.1460537696)
5(8.100646228e-05 -3.71258582e-05 3.50238835e-18 0.0127930975 -5.053758703e-05)
)


60
(
5(-7.950322917e-05 -7.824806251e-06 -1.474383485e-18 -0.003621448671 -3.131374793e-06)
5(-11.67796516 -0.6116508551 32.18483882 33.52648131 -192.7887631)
5(-0.5870539621 -0.08117009406 -22.89090427 -8.026278325 -14.86614443)
5(0.7757626916 0.9229071486 -9.889773301 -11.60551479 -7.295454694)
5(0.8765690349 -2.713705956 -19.93280095 -11.27924615 -4.804610748)
5(-0.4895246281 -3.72172574 -20.09155607 -9.328402918 0.3857968972)
5(-0.0151978473 -2.838303709 2.208317479 -3.831688319 2.39647458)
5(-0.4991027779 -2.122046723 -0.9946789993 -2.194537283 0.0728231791)
5(-0.7203064499 1.269203705 3.987323736 3.260481626 -1.600200539)
5(-0.8874579484 -1.150385222 -0.477146873 -1.618936498 -3.308528023)
5(-1.054401687 -3.120465901 -1.567191584 -2.890359208 -2.546285609)
5(-1.298585506 -1.841989352 -5.214872367 -3.507443998 -1.59903115)
5(-1.334660988 -3.142374074 -4.402505239 -2.380718406 -2.307870569)
5(-1.90279958 -3.782297669 -4.180584673 -5.790905357 -3.697424927)
5(-2.317502571 -3.02685296 -3.356127385 -4.503173312 -4.339387622)
5(-2.886694651 -5.112645182 -5.166721579 -5.085679303 -5.814536197)
5(-3.58778056 -5.156484398 -6.899473763 -7.708858843 -7.006151818)
5(-4.44812503 -7.249062673 -7.832016618 -7.690291645 -8.638347996)
5(-5.20119072 -6.85422333 -9.139333913 -9.429510729 -8.904431169)
5(-5.994187644 -8.547183681 -9.538500819 -11.22881777 -9.571072532)
5(-7.093746939 -9.565393198 -11.87922154 -11.09682336 -10.93540529)
5(-8.492488951 -11.09785984 -12.37130204 -13.24165032 -12.36097487)
5(-9.362886888 -10.63331794 -12.7050638 -13.53795701 -11.65106935)
5(-10.19266465 -13.00777684 -15.13432644 -12.44593391 -11.34507397)
5(-11.04453571 -12.15625239 -12.55136601 -12.96861789 -10.95741077)
5(-11.77731706 -13.45992086 -14.60196283 -12.19641117 -9.139264283)
5(-11.81329254 -11.45916677 -13.21601095 -11.61618255 -9.228693559)
5(-12.5280587 -11.94119709 -11.80721171 -9.632049115 -7.207454947)
5(-12.55295457 -11.48810528 -11.28429197 -7.657388129 -5.390516841)
5(-11.98468559 -9.605882846 -9.058910722 -5.756837987 -2.975980656)
5(-11.22054448 -8.267106031 -8.426619667 -4.004794891 -1.309439644)
5(-10.77292426 -7.507238796 -6.384270841 -2.182823717 0.9141153586)
5(-9.483776524 -6.086252563 -6.329728236 -2.007840834 0.8826352994)
5(-8.791639709 -3.395243882 -3.612860301 -2.232384461 1.636781226)
5(-7.068830959 -4.693867747 -4.962308681 -2.799464018 2.345558974)
5(-6.443936346 -2.342181895 -2.295992874 -1.163814864 0.574955081)
5(-5.670815361 -2.728458843 -0.3974498929 -5.968774759 -1.661324596)
5(-5.003234883 -8.534064865 -10.09947923 -11.8703659 -2.359298341)
5(-3.279407541 -7.900938309 -15.86010768 -12.36033182 0.1014920522)
5(-5.139122481 -13.57906227 -18.20138193 -18.82768348 -2.44191315)
5(-8.151353314 -19.08021256 -19.49365326 -23.56889866 -5.199572524)
5(-11.28593093 -23.50227096 -23.08918148 -40.27507876 -8.729998792)
5(-15.85572775 -35.56156088 -34.89211506 -58.57111141 -9.432247562)
5(-21.22517988 -43.24544708 -48.2428887 -47.52800946 -12.37847087)
5(-29.02539293 -45.39043932 -55.67854833 -28.0444937 -9.641878278)
5(-35.21374861 -40.01398876 -68.02876457 -12.5265102 -5.131129848)
5(-41.38854566 -45.12460259 -69.66942896 -5.383027781 -4.907393526)
5(-41.75854059 -62.36784777 -46.40831344 -2.240218677 -4.31984659)
5(-41.63936361 -74.5357641 -23.42935619 0.7275026537 -2.512202084)
5(-35.3458969 -65.26897224 -8.900528015 7.363474655 -1.156248511)
5(-28.75915696 -31.63799886 -1.650825917 8.724947116 0.9446217049)
5(-21.6815477 -8.0948567 4.416104762 7.843927736 1.555611839)
5(-15.43912223 -0.2680054254 5.484907842 6.118263022 2.666751991)
5(-8.799595895 7.155349619 8.391042861 7.3494124 3.816341131)
5(-2.73343275 7.503005773 6.838025952 6.012055378 5.159508041)
5(3.11735236 8.360662034 6.51159392 5.055066024 5.327361472)
5(10.45293624 9.059627023 6.410526759 4.634817918 6.098360945)
5(21.57915483 7.934915791 4.624672296 8.237846083 -7.717501275)
5(9.888386341 14.18560757 10.3111106 6.781828549 10.20484683)
5(-0.196351099 -0.5437873877 -0.6010254847 -2.405849183 0.3238549891)
)


60
(
5(-0.05645033228 -0.417667427 0.06734586592 0.3042457897 0.4076510892)
5(-3.589374169 -15.64533375 73.57960168 44.85000563 -115.2243272)
5(5.805832546 -0.9497119615 -5.645573358 1.085043046 28.89861844)
5(-1.46941515 5.437120544 -12.08967428 -5.937646271 -2.728076916)
5(-0.3954073122 1.356128015 -17.54499675 -10.3656203 3.186303998)
5(-2.145713512 -5.066470169 -18.65834339 -14.17261266 -5.756320612)
5(-1.407295745 -1.493623759 -5.361377757 -3.556804636 -0.1436526034)
5(-3.015143637 -0.611870925 1.287694901 1.261444347 2.292936205)
5(0.2818528404 0.1269431398 4.958924119 3.6237659 -6.41169167)
5(-0.05754539215 -0.2121111661 1.250023153 0.9261662348 6.611972246)
5(-1.446405792 -1.184303417 -0.9995187224 -0.2291514747 1.183405933)
5(-3.821329244 -2.14866587 -2.470933082 -1.992067523 -0.1600150786)
5(0.05827159363 -1.668186985 -2.664840994 -1.380393821 -0.2491378661)
5(-2.195492596 -1.605286023 -2.094202708 -2.014648197 1.489808863)
5(0.08764640593 -2.202396728 -1.987341043 -1.955465701 -0.55637018)
5(-6.876165094 -3.436506453 -3.79791553 -3.870978389 -2.701758669)
5(-1.737104528 -4.04586147 -4.563069496 -3.538481402 2.047037373)
5(-3.543427153 -5.271926801 -5.788692114 -3.966903575 -4.369174625)
5(-5.312533381 -5.128230709 -5.33269394 -5.805010339 -4.328011471)
5(-3.174356657 -7.044184152 -7.118593145 -5.391484861 -5.317573232)
5(-10.66610941 -6.308820351 -6.524183001 -5.315225411 5.853808162)
5(-4.370792246 -6.501067571 -9.122327776 -8.025289952 -7.788674294)
5(-6.896116179 -6.576058719 -6.587470395 -3.618071911 -0.458141601)
5(-6.620763799 -6.408886223 -5.808680663 -3.433843142 0.7448982705)
5(-9.736251644 -5.670440524 -4.374467127 -0.906148099 8.722615013)
5(-5.260303034 -3.217625831 -2.915608897 -1.520502493 -2.25554372)
5(-1.779488572 -5.573561054 -5.674378578 0.4193993993 10.48743005)
5(-12.80943517 1.202529843 3.361931076 7.491397163 7.921947404)
5(3.905092888 0.02105895722 3.744400785 5.315318459 20.55361017)
5(-6.54296102 2.560418839 4.962481444 11.71611978 -0.368186784)
5(3.739679367 9.897400055 10.98412165 13.91543012 23.70896275)
5(3.541869793 8.251577745 7.547503533 12.14543622 10.97655393)
5(4.92177291 5.000633332 15.47128384 10.75934368 19.78047433)
5(8.179847746 15.2999409 13.34605447 13.4265658 1.883307303)
5(15.88987523 9.935936279 4.554317649 11.87816854 7.380841676)
5(2.826679211 9.339040164 10.08949136 4.471083257 10.07806728)
5(-6.145006833 6.729568686 1.322568053 -4.740290004 -20.23954968)
5(16.87323173 3.558910334 -7.371244195 -13.03352341 -16.75859668)
5(-2.697037929 -6.631115052 -11.41999448 -20.22993172 -22.73392219)
5(-6.646036095 -22.05473603 -30.20537052 -32.88193355 -52.1603552)
5(-11.87176749 -24.26710104 -40.4394504 -50.9704237 -41.8613495)
5(-25.74309318 -41.2378121 -51.6200531 -61.64520227 -61.94154159)
5(-31.6217844 -54.41061819 -62.4668186 -74.23971735 -50.96319021)
5(-46.52868758 -67.88527636 -80.24068928 -83.65643062 -67.73490068)
5(-52.54447304 -74.01780669 -97.98423662 -75.09386053 -45.27497545)
5(-67.16975072 -83.45492151 -102.2049156 -69.72037055 -52.22473511)
5(-69.52628008 -93.03506569 -99.48049757 -66.94802677 -40.39232011)
5(-74.28319167 -99.59048894 -88.13154449 -57.87475739 -31.38590471)
5(-69.18468534 -91.32666522 -77.55840582 -47.54711862 -20.68541635)
5(-65.85194524 -81.33532597 -59.83949282 -36.08185798 -11.68333903)
5(-52.17771488 -59.55421131 -45.48811012 -23.01404843 -9.262095665)
5(-44.1690686 -40.62616654 -32.67838034 -12.15296797 -1.967929558)
5(-25.02653729 -22.34593209 -13.95091439 -7.530348485 5.112894414)
5(-10.03070819 -7.75893679 -4.199109038 0.7128197135 -0.3566284159)
5(9.843637855 5.503185062 5.047171548 5.864285965 7.384657937)
5(20.05031833 13.49446002 12.57170285 7.83822851 6.694189259)
5(25.32404471 19.77295178 13.50997079 12.01215448 9.72206428)
5(27.08440945 24.71405305 18.26374748 12.77787025 8.431686747)
5(16.98935328 15.14382647 11.35459538 14.89137227 14.41282757)
5(3.436469852 2.645082884 2.062498255 1.559157643 2.572640684)
)


60
(
5(-0.3776171098 0.7066220008 1.038488693 0.7600023849 1.670089982)
5(6.025059504 -32.33057412 70.86705623 40.92348783 -9.9415649)
5(-3.26385091 -2.985818408 -0.8585437789 2.206510463 1.448513973)
5(-0.4978109932 10.21793784 -12.44998955 -6.037643111 2.432783894)
5(-1.775758496 4.622835931 -19.51295456 -10.66267331 -0.6347508219)
5(-1.976968658 -6.005110095 -19.67250765 -13.21624349 -1.115884411)
5(-1.793736376 -1.209329751 -5.90080833 -3.71205919 1.38982016)
5(0.005583529716 -0.1534419133 1.689749069 1.760460681 5.280843816)
5(-1.609658309 -0.07370689563 6.682105245 5.44323276 0.03715733101)
5(-2.051238245 0.1723289079 2.458623885 3.611390186 7.068284557)
5(0.9064639434 -0.9743591151 0.470243905 1.379473735 1.094153232)
5(-1.351347593 -1.191691323 -1.731438183 -1.217157662 4.788665992)
5(-4.036124522 -1.739386353 -2.99423632 -0.5845005362 7.410291638)
5(-1.358677614 -1.694069113 -2.10944041 0.6025480828 -4.263381404)
5(-0.5594050488 -3.573124407 -2.198187146 -0.782131926 7.183687804)
5(-1.078329564 -2.337394482 -1.958047697 -2.740455223 0.7486585061)
5(-8.621265126 -3.39609105 -2.56252515 -1.132679395 1.567304137)
5(1.371114112 -6.866040044 -7.190332344 -3.612110315 5.926823976)
5(-10.70071363 -5.350567224 -4.654701006 -4.015112667 -4.295601898)
5(-3.226937142 -5.441548099 -8.684906932 -7.180181393 1.038894012)
5(-1.056248257 -10.51492934 -6.477705714 -1.847090222 11.48482467)
5(-11.2272798 -5.068852563 -5.389555851 -6.503601694 -7.892315221)
5(-16.14848363 -6.206209279 -4.017176799 -1.549727903 9.197613655)
5(1.409408038 -6.395322683 -11.16207171 1.648167189 -2.398898922)
5(-7.30018416 -9.18613442 -1.611976799 2.200501199 22.62433021)
5(-4.94951032 -2.031320409 0.759436743 4.864035252 12.05002742)
5(-4.629753057 0.6268338596 1.037630894 6.260286636 8.056869406)
5(-0.7103677215 2.866076605 5.664344446 11.77008625 27.8488904)
5(-0.1276594919 5.196501462 9.099612399 11.79620999 11.35779926)
5(3.077256396 8.400705763 11.98204458 19.11219234 36.88316918)
5(6.726749567 11.10259595 17.94692258 20.03876075 12.08484313)
5(10.30308267 13.77790845 7.69480664 23.47779854 30.52817066)
5(10.89852866 17.34822611 22.99716563 12.98341609 14.53600253)
5(16.36366712 16.01025981 20.00972812 21.16905021 35.35331867)
5(15.14088496 18.21272629 13.85281587 16.98818865 -15.31623219)
5(19.27945294 12.36664365 13.07523277 5.964581172 14.28141222)
5(18.80049782 13.30472874 -1.765942853 -1.504338258 -7.012749229)
5(10.90361745 5.02111056 -2.467444505 -16.76502492 -44.78002744)
5(13.38753614 -3.572090475 -16.39544949 -33.44289536 -34.50948641)
5(10.54465477 -8.701814359 -36.89163067 -49.70704753 -74.51532555)
5(-7.961828387 -27.62435397 -51.18060749 -68.98064354 -73.43368353)
5(-4.012616186 -43.43588415 -69.34826919 -96.07940784 -107.5658396)
5(-22.03488936 -60.48642288 -90.98724873 -118.110846 -104.3270578)
5(-25.57478808 -74.80562617 -113.2785544 -129.0314627 -112.5547502)
5(-46.52061506 -93.27821178 -134.395491 -137.5149248 -124.6566054)
5(-52.73224115 -106.6058007 -144.9375358 -138.0859114 -125.6071012)
5(-63.62092634 -107.3458581 -157.7904741 -134.0137223 -103.6775023)
5(-64.73869413 -120.3847733 -137.086464 -133.3290775 -110.2296941)
5(-72.9056309 -124.457024 -129.6248279 -119.8792088 -73.15724337)
5(-69.96857321 -110.7131528 -123.8663444 -103.3375135 -65.75840034)
5(-59.36826508 -86.79446071 -97.8135198 -77.21985098 -54.73041371)
5(-49.99876905 -73.49058739 -71.86879764 -59.10490109 -28.06273092)
5(-43.62933008 -47.15530203 -47.00807524 -34.00644887 -21.47198435)
5(-20.54804435 -22.92965288 -22.77092499 -19.59548886 -12.18174093)
5(2.720545389 -1.910401037 -3.770011387 -3.063020723 -0.6462543721)
5(21.04607765 19.90667018 13.31004354 4.883561448 5.14216852)
5(36.10892311 33.17546665 24.94243326 18.93551003 12.53164441)
5(41.68335455 36.92701733 32.15685619 22.26851191 18.19133277)
5(36.82927015 19.4331764 16.85909265 22.7191611 19.331177)
5(9.334902795 7.463767651 6.253040501 6.4119329 3.739249918)
)


60
(
5(2.344654469 0.4665206963 3.091735848 3.897119062 3.019359415)
5(-4.48244671 -50.94598324 65.476206 36.0211281 -13.99897262)
5(-3.589791455 -4.693697881 3.71408892 4.105572734 0.07320336356)
5(-2.152663801 15.54674389 -12.08722373 -5.483361268 2.426326902)
5(-1.759977403 8.610288609 -20.12202782 -9.992191676 2.777197512)
5(-0.3224073645 -5.438829144 -19.35024491 -12.68671223 3.842452322)
5(-2.415368874 -0.7904080848 -5.493405667 -2.407856783 1.610363125)
5(-1.078502451 -0.09156335322 2.10096301 4.762012683 9.355938236)
5(0.07272069935 1.993263517 8.516106166 7.07914238 4.290080894)
5(-2.117718447 -0.1156778295 4.659670906 6.29744592 10.4648774)
5(1.449884033 0.8206000079 2.089585563 2.977188513 4.472238615)
5(-2.719065602 -0.3595646312 -1.115725011 3.113951428 10.25012104)
5(3.857868551 -1.888085113 0.3662656447 1.315663376 3.683119608)
5(-9.95405611 -0.5175994947 -1.200453368 3.007656219 11.47223881)
5(-0.1205614233 -2.980973715 0.7181583289 1.990098755 4.734026051)
5(1.860768526 -1.228403681 -3.762188316 0.7537533028 4.587968675)
5(-5.707666023 -3.535821312 -2.405155575 0.951764962 4.170759845)
5(-3.662078472 -5.208517857 -2.158446531 -4.409753338 7.953768201)
5(-4.252475373 -3.517698091 -4.189760981 0.8679344318 5.359496239)
5(-6.874649479 -7.01754177 -5.370108535 -1.334121961 3.181742687)
5(-6.955682521 -7.010328489 -4.274251698 -3.831295041 12.34743817)
5(-3.474303449 -5.359263335 -6.706463665 0.6302328866 -1.630407096)
5(-7.189593896 -4.341026545 -4.440524804 0.1146785643 21.60470065)
5(-8.215524697 -4.209176391 -1.405508982 3.351992437 -1.955613927)
5(-8.774688291 -1.909900462 1.585241285 6.52065173 26.01128065)
5(-2.152256526 -12.42615199 1.236052798 11.5216456 17.17325696)
5(0.5349493372 6.157057055 3.50703967 11.56725315 19.94085063)
5(0.03364496124 4.699942058 9.173796733 17.59437365 34.93845637)
5(-1.155578239 8.853321156 14.96982486 19.74582834 26.38016144)
5(7.503533344 12.64411288 20.58750694 27.85748083 32.16770446)
5(9.503960927 14.71534724 21.15041819 28.8403029 50.0155882)
5(13.07572227 21.30101973 25.99610871 28.46484324 0.1398627991)
5(20.16670684 25.59066557 27.28469616 26.07373102 50.30985115)
5(26.41853813 28.88587745 23.36633068 26.81414556 22.20941263)
5(25.59166698 27.68194721 27.38487219 22.95435224 14.46758667)
5(26.77624039 22.40098879 24.39332172 16.62475923 9.767624087)
5(25.87249342 24.84347101 13.83585531 7.254546427 -8.352931845)
5(30.79042902 22.35809359 3.503488771 -12.26639166 -28.00733105)
5(27.13721582 10.09018333 -11.61480125 -28.82641889 -58.48503974)
5(25.13509058 2.676942083 -22.96361519 -46.83602661 -62.04317672)
5(22.4002809 -10.78222272 -42.63317883 -77.34310219 -116.6495569)
5(14.61796357 -22.51109769 -67.34992829 -105.6673485 -128.015964)
5(5.772828819 -38.80047972 -87.13817767 -135.4349345 -152.6366778)
5(1.438595716 -59.53700553 -114.5561526 -159.2748792 -180.4470354)
5(-3.143247896 -71.78646802 -136.1744245 -175.4986066 -184.6777477)
5(-23.1172259 -87.88958998 -163.7017055 -192.5903758 -189.3324006)
5(-30.15801178 -104.505359 -174.3750152 -192.2098883 -193.9099102)
5(-45.62792946 -114.0964039 -173.3061569 -190.4175833 -185.2220255)
5(-47.84000888 -123.5926388 -163.7093991 -196.7662227 -165.5508955)
5(-55.69008491 -112.9494599 -155.9500487 -168.1717401 -151.2651505)
5(-59.22354648 -96.03702633 -138.8560287 -146.1484764 -121.1756958)
5(-47.51205372 -91.31534006 -115.2799605 -112.9653561 -79.67980226)
5(-40.34518426 -69.36151187 -81.15546669 -82.56934691 -79.08897476)
5(-24.74393691 -39.94235841 -46.69648309 -49.38437971 -33.6372364)
5(-14.37747271 -13.78859578 -15.62983904 -22.20410982 -19.76733284)
5(18.38076838 15.82127978 12.44344341 3.634263007 -2.794206041)
5(34.96346563 40.01850071 38.73712654 21.72618439 11.69995657)
5(49.58887337 55.75041584 48.30513037 36.28330418 27.46036575)
5(52.66621675 36.80030306 28.10890086 29.77913506 22.4424698)
5(20.54411142 19.26540112 14.08540213 10.5470818 5.51829828)
)


60
(
5(10.54450201 9.898681128 4.143072331 4.732930111 3.076939495)
5(0.618175259 -71.78250354 58.14219144 30.81295225 12.76172398)
5(-2.625053928 -9.056122568 5.956243745 5.948109457 5.74331413)
5(-2.057463736 22.22289894 -11.77340369 -3.482988631 0.6671101246)
5(-2.522472687 14.8570238 -19.05347142 -7.401168927 3.323046438)
5(-2.26763636 -5.049380613 -17.33709212 -12.23724708 11.02515066)
5(0.143890201 -0.4881325611 -5.883241094 -0.8432395765 2.447605015)
5(-1.577892317 1.862776674 4.950865516 7.772208447 13.95038044)
5(-0.1010819774 1.638880446 9.984761964 10.84610586 7.734958229)
5(0.1806798042 3.386808346 8.066903403 9.381893111 16.38907494)
5(-1.911524108 0.3425613752 2.951980456 6.73925714 9.078418172)
5(2.504065809 1.710273175 1.907296457 5.5725792 15.69800946)
5(-3.652050605 -0.4780775604 0.1152338658 5.007280352 7.197439679)
5(3.812440492 0.4923401853 2.550855356 5.77146043 16.52472944)
5(-5.397371159 -1.032368866 1.692848697 3.503404806 4.619579056)
5(-1.847608777 -2.145187532 0.3646102068 4.873272414 16.72704072)
5(-0.107258628 -0.5412986845 -0.2374104437 2.628711435 1.715418544)
5(-8.079708178 -4.76853483 -2.423566399 3.649505482 16.60850488)
5(1.098035144 -3.983705668 -1.086452901 -0.2478606975 2.519607725)
5(-6.870697719 -3.668426579 -3.88470621 0.2083584425 11.58508859)
5(-12.25217097 -7.40071589 -5.294014649 1.62358485 16.15056223)
5(2.670731914 -4.76563436 0.2760781625 1.224324968 5.669319818)
5(-8.91767316 -3.64193386 -3.447113131 5.999706845 18.49268253)
5(-10.11787799 -4.702460815 -1.721174715 7.410718577 22.32950277)
5(-0.9910842586 -0.08886961704 6.002036692 8.387990632 10.92300856)
5(-2.328414284 4.439345697 4.61369904 15.11861563 31.15250067)
5(-4.25396172 1.912286447 8.476261141 19.80243828 29.85184041)
5(2.51969375 5.757679387 14.13864431 22.51343647 36.0731084)
5(9.32271234 13.43848202 21.65120096 27.312495 31.72668453)
5(13.56559343 19.63837959 23.24155161 34.28394966 51.44696665)
5(9.207779785 20.79290243 28.66995234 38.47244596 43.00733298)
5(18.41425709 27.82365689 30.74280061 38.21217334 40.80330865)
5(22.85867727 28.38431757 40.3412317 38.27801963 36.38632331)
5(30.22805901 37.44168332 35.91673015 37.77561359 53.07430402)
5(39.101984 40.09098627 37.12621227 37.55889073 16.28323695)
5(35.55419347 38.41520031 36.78607283 28.65805764 12.7095131)
5(46.70749262 41.41738192 31.05730505 17.94780116 5.686689659)
5(44.44462849 37.97707014 27.58505876 7.443369187 -11.19352029)
5(52.50537842 33.70504646 13.48789012 -9.549558515 -46.04162868)
5(52.04739264 31.79113903 -4.661149195 -32.6577494 -95.09196242)
5(51.36139363 20.72486796 -17.10888653 -64.89625667 -60.21883424)
5(50.33796816 9.621336209 -40.79119124 -93.11085781 -167.4628364)
5(50.47804869 -0.9215589935 -58.40625309 -123.4383656 -150.7215423)
5(43.64088209 -17.30931935 -91.01207345 -154.4698948 -225.1483763)
5(36.79842883 -32.23267562 -113.3285356 -184.6692294 -214.645211)
5(16.93671176 -48.3138435 -142.5580232 -202.8388578 -246.6017935)
5(36.36996956 -66.41337434 -160.4066108 -225.8339667 -276.6079509)
5(-6.236214436 -83.91729421 -153.7651046 -226.9469121 -244.022542)
5(-16.88238413 -97.73226037 -168.1685471 -224.1964632 -249.2770047)
5(-2.58543163 -88.48356023 -161.2940926 -225.5100582 -227.7591932)
5(-35.88015334 -98.19543081 -151.9513803 -199.4035974 -213.4156505)
5(-26.51007463 -61.10944577 -139.1214853 -165.6107944 -157.1800259)
5(-33.16558691 -77.63779798 -98.29337243 -139.3186331 -129.7794322)
5(-19.72212536 -59.02984461 -75.2615563 -83.40840647 -83.78503438)
5(-20.3121998 -23.07277375 -32.88439569 -45.8912318 -47.19784324)
5(7.154500226 -2.497560797 4.083623678 -4.443952211 -21.70753465)
5(23.02259421 38.12083114 47.98154691 30.76837488 17.65675968)
5(42.08415933 57.87138257 71.23846912 60.52888183 37.39357395)
5(62.05053328 53.26122191 49.68544442 46.34394236 38.94012986)
5(30.66355446 32.80441651 33.56219383 29.43148245 27.82935897)
)


60
(
5(32.99013861 21.25988759 24.79962224 18.86231063 18.16095326)
5(-4.925171945 -94.48562572 51.21552824 24.36124433 18.50588831)
5(-1.236559857 -14.97334569 7.53453615 7.004938241 3.600996652)
5(-3.407638519 29.22555656 -9.91621227 -0.05627400237 12.20632209)
5(-3.300040519 21.90234862 -19.59772529 -5.645623064 4.757446997)
5(-1.592259034 -3.672737809 -14.73093104 -8.060202448 10.33581041)
5(1.31197446 1.309189969 -4.598474752 1.223134778 15.69933607)
5(-4.412837102 3.036160532 7.051534733 10.82841921 11.15306624)
5(6.093802297 2.745914497 12.35877315 14.19616264 19.90298919)
5(-4.575799956 4.000242602 11.84144216 13.4108215 13.05947334)
5(4.328956955 1.78482373 5.085708293 10.09715249 17.75468663)
5(-2.766351313 3.500712147 5.340396807 9.575804978 17.46114012)
5(2.794385302 1.058264153 1.73463302 8.606356929 15.10162092)
5(-0.4452484003 3.666256393 5.392474749 9.683357431 19.86948051)
5(-0.88609367 -0.7507868566 3.250065838 6.98357895 14.46496976)
5(-0.03177765522 1.549421778 4.402868603 8.461169668 14.03712716)
5(-6.330939179 -0.8064141968 0.2024263674 5.799631845 14.13383058)
5(5.964503112 -1.149311295 1.152066095 7.061474306 8.712129598)
5(-14.3398399 -3.383515611 -1.265967 2.352568684 20.84374817)
5(2.950515193 -5.171394156 -1.49978431 5.316512534 0.3097229801)
5(-5.636344134 -0.9451907039 1.691299541 2.142570869 29.64406658)
5(-15.205671 -5.147084073 -2.227627218 5.337411436 6.693292034)
5(10.56032627 -3.249266076 0.8420672431 8.585406029 24.71423193)
5(-15.05342163 -0.764343374 3.687826648 10.38389463 22.09856148)
5(-7.549265366 -4.862614477 3.26375748 16.53705711 24.16012871)
5(11.34144404 4.976123105 12.24494096 16.52198852 44.90617502)
5(-2.386733311 8.707125689 16.3970074 18.82368241 21.53024939)
5(-8.249778998 8.562629633 11.83220169 30.9589104 42.6953696)
5(21.68388532 15.23237247 25.56211794 37.50082332 49.8870492)
5(10.21430015 25.55837366 32.5964292 32.68441644 60.88879408)
5(20.82496838 25.63784167 34.39912321 45.59060572 36.73820849)
5(18.00946701 30.93641995 40.12984394 51.81478704 70.67354775)
5(39.71398578 42.68755419 50.13587788 49.91927873 44.96434595)
5(38.68126158 47.1338824 49.4600664 50.05724223 61.12126851)
5(45.0385287 48.78625435 47.94130772 52.97893419 37.78454618)
5(54.17606572 56.82571726 55.11676225 45.85123545 42.6912033)
5(60.64699314 57.96082233 51.7257789 35.77935928 8.349331548)
5(67.09565014 62.41710424 46.19648039 26.33305739 1.201062814)
5(73.85249751 62.40073189 39.74392775 16.76956525 -8.176362802)
5(82.86592125 59.89076744 29.88491907 0.3558973599 -62.38581822)
5(87.45516673 59.04678084 19.04586907 -30.20028382 -92.75126235)
5(89.73544751 54.73865829 4.810216772 -53.92078985 -99.2050982)
5(95.19731059 46.61828148 -15.58419746 -94.49778869 -167.8285142)
5(93.84130872 36.46481106 -40.47893141 -119.2586791 -191.5512541)
5(91.1801002 23.39266134 -67.17224111 -148.7152226 -229.9868997)
5(83.36583937 6.675626333 -91.77771831 -180.3813823 -268.99919)
5(68.59041215 0.4338836138 -110.3427305 -203.5873731 -294.4955726)
5(65.99384506 -26.03302309 -130.018797 -217.6369673 -295.0727836)
5(40.21252903 -46.10075309 -134.9085549 -240.0274501 -282.0062728)
5(42.77292096 -50.83410995 -136.1598812 -226.099122 -301.7058656)
5(30.65096888 -56.46715763 -132.6418979 -218.3647184 -263.8195429)
5(13.70905999 -53.3374352 -127.6843488 -183.4003458 -249.6972657)
5(11.57063839 -62.21790132 -89.67312299 -180.2444218 -181.1366616)
5(14.31383073 -41.79086467 -106.7417539 -112.1228379 -152.3621045)
5(19.10383921 -24.96556706 -47.67007855 -73.11113799 -86.06660348)
5(13.58197277 -9.042259076 -2.238243298 -21.58713938 -31.5859789)
5(28.07459426 13.61884321 31.44361405 32.02970381 8.341273618)
5(40.53109492 40.56498273 77.50126452 76.90893251 56.1590867)
5(48.66113537 61.88251544 67.07110932 68.72243303 49.94583103)
5(58.29482723 47.5033276 46.66038223 40.81359606 24.32354212)
)


60
(
5(69.47321257 76.67861123 52.12575656 23.39361714 2.596940421)
5(-13.40977047 -119.2408814 43.54099703 18.52350091 24.9867482)
5(-4.434958714 -20.74843841 6.543363709 7.177127187 6.033577135)
5(-0.1916969203 37.77899747 -7.653051066 2.584740286 15.82681637)
5(-1.171402009 27.98932915 -15.35916762 -0.3150090722 8.911377959)
5(-3.009010652 -0.010759437 -14.16157536 -5.588454811 16.62257507)
5(-0.4693703811 2.577019416 -1.024458832 5.087516922 19.08191045)
5(1.139896882 4.397033895 7.753722963 14.24983859 19.2122755)
5(-1.404041995 5.497367742 17.19377767 19.09132032 19.26397877)
5(4.911161017 5.858537705 13.4342449 16.55362511 26.70688069)
5(-2.381304864 3.930980953 10.2657543 16.33060013 16.10215302)
5(6.204429032 3.397470823 5.07114123 12.64312389 32.13428789)
5(-4.954647818 4.403982541 7.867390409 13.97952313 11.30160794)
5(9.397621774 2.67272605 4.836258567 12.0562105 29.44240505)
5(-8.661660618 3.336155566 8.664549098 12.93403591 15.24985958)
5(13.15428308 2.358946299 5.400086107 9.645392628 26.05180188)
5(-14.62559549 1.801274607 5.803012829 11.28802683 17.21071973)
5(14.13497273 -1.263372346 0.1881140507 7.272736347 22.38692901)
5(-17.0547025 1.107441024 4.477941595 9.165518946 4.194062231)