/*--------------------------------*- C++ -*----------------------------------*\
| =========                 |                                                 |
| \\      /  F ield         | OpenFOAM: The Open Source CFD Toolbox           |
|  \\    /   O peration     | Version:  2.3.1                                 |
|   \\  /    A nd           | Web:      www.OpenFOAM.org                      |
|    \\/     M anipulation  |                                                 |
\*---------------------------------------------------------------------------*/
FoamFile
{
    version     2.0;
    format      ascii;
    class       dictionary;
    location    "constant";
    object      la_i8;
}
// * * * * * * * * * * * * * * * * * * * * * * * * * * * * * * * * * * * * * //

la_i8_table
60
(

60
(
5(0.06594475205 0.993965838 1.276212464 0.003584436444 -0.168887426)
5(0.1028876744 -0.250259499 -0.01864667026 0.001274738099 -0.1338841356)
5(-0.08954013219 -0.3284874556 -0.1769068863 0.001130928701 0.1239812887)
5(-0.1562216538 -0.3249797568 0.04883845191 -0.0002808462664 0.1362824647)
5(-0.1718420492 -0.2336265077 0.2137347869 7.416425936e-05 0.02028780347)
5(-0.1439688796 -0.1188913752 -0.237636619 0.0003064960979 0.08845376997)
5(-0.1044992925 -0.1416129101 -0.3625091088 -0.0001132560352 0.08998701048)
5(-0.1287330376 -0.2033495746 -0.2724700069 8.207524124e-05 0.08758446037)
5(-0.1220585773 -0.175290991 -0.2722174733 0.0001491300978 0.1081285016)
5(-0.1233588822 -0.1668605159 -0.2008417312 0.0001808415341 0.09848805234)
5(-0.1238044899 -0.1502736789 -0.1519946101 0.000197954408 0.09114278454)
5(-0.1221433154 -0.1387259542 -0.1904445982 0.0001929500762 0.09211998191)
5(-0.1260935312 -0.1323816206 -0.2243326053 0.00029183084 0.0911464645)
5(-0.1185734071 -0.1064456655 -0.2072459393 0.0002450476356 0.09187397867)
5(-0.1212910629 -0.1117988579 -0.2208161659 0.0002685797487 0.09144896991)
5(-0.1212709381 -0.1026660761 -0.2085894451 0.0003421683509 0.09110369719)
5(-0.1202171557 -0.09224837152 -0.198837294 0.0003711005281 0.0887208329)
5(-0.1194286776 -0.08377955864 -0.1942684814 0.0004532598193 0.08449631934)
5(-0.1200051432 -0.07609118257 -0.1847156501 0.0004821999763 0.08205274566)
5(-0.1177833104 -0.04277401269 -0.1560794156 0.0006206891001 0.07755847952)
5(-0.115960554 -0.02795519674 -0.1509894195 0.000723922653 0.07353363421)
5(-0.1147816683 -0.01594226377 -0.1210136975 0.0006882775908 0.07544894688)
5(-0.1098891331 0.01101972053 -0.1025478717 0.0008163142093 0.06924102591)
5(-0.109040609 0.05097563187 -0.06875140746 0.0009869343387 0.06206504561)
5(-0.1041015163 0.09173421528 -0.03194383583 0.001166024454 0.05427662768)
5(-0.09868867877 0.1300026282 0.03259216195 0.001423415573 0.04425853064)
5(-0.09086062102 0.1798023995 0.06969954212 0.001652198344 0.03436432547)
5(-0.08461451769 0.235930056 0.1444141672 0.001936263527 0.02349941242)
5(-0.07217827479 0.3206404594 0.2218985283 0.002203622341 0.01156270041)
5(-0.06026846656 0.4220634084 0.3148901061 0.0024363691 -2.35689859e-05)
5(-0.04312657802 0.5413611132 0.4444872494 0.002880894863 -0.02053372109)
5(-0.02338735661 0.6642044797 0.5671042857 0.003227322005 -0.0280481454)
5(-0.002306928961 0.8083442666 0.7250732943 0.003620646364 -0.0493594255)
5(0.02524274712 0.9877293467 0.932847954 0.004177767226 -0.06887299926)
5(0.06013581788 1.17801419 1.116062252 0.004706056114 -0.08625792951)
5(0.09667400755 1.423671619 1.435141967 0.005430973677 -0.1101628726)
5(0.1465775866 1.651523593 1.559120908 0.005806725329 -0.1403386802)
5(0.1957116349 1.966054755 1.821679758 0.006810237892 -0.1472449812)
5(0.25990753 2.261603537 2.168164462 0.007202635579 -0.2013060725)
5(0.337419583 2.606917262 2.563360957 0.008944567954 -0.2118230368)
5(0.4145318009 2.942564193 2.790278508 0.009342187176 -0.1977201124)
5(0.4880349799 3.310311737 3.206944163 0.008598269675 -0.201202716)
5(0.5794240261 3.662759153 3.774905036 0.007563479356 -0.1845453491)
5(0.6642823096 4.002396869 4.576327648 0.008223506457 -0.2077915423)
5(0.7577551463 4.37221009 4.47638923 0.008740238832 -0.2302357807)
5(0.8182888403 4.772796004 3.86674841 0.009245670771 -0.2517783884)
5(0.9031561464 5.221205044 3.00874146 0.009158559925 -0.2719148098)
5(1.012106233 5.198722776 3.089936578 0.009375221971 -0.2907070587)
5(1.090060276 4.409945143 3.302985152 0.009782682077 -0.3090761754)
5(1.483252314 3.362900164 3.146097359 0.01015877453 -0.3236990143)
5(0.9247816952 4.115118755 3.255408559 0.01060684989 -0.3437562893)
5(0.6168326719 3.943684331 3.373250596 0.01097743836 -0.3607322036)
5(0.6783100003 3.947015399 3.501711306 0.01141208116 -0.3781833729)
5(0.7353019935 4.046173946 3.670736502 0.01188030655 -0.397914092)
5(0.774483369 4.183178915 3.845396341 0.01257892134 -0.4240368884)
5(0.9116685216 4.501479969 4.123696122 0.01327562101 -0.4508701355)
5(1.214719394 5.174479943 4.537019788 0.01445648805 -0.4894095042)
5(1.659960077 6.513913371 5.450623733 0.01539275905 -0.5450642857)
5(1.93176773 7.662842941 8.365810389 0.01388082301 -0.4556758646)
5(-4.271052384e-05 3.275849186e-05 -2.28021637e-18 -0.01068119135 5.692332464e-05)
)


60
(
5(-0.0002277402823 -4.448402045e-06 -1.211078951e-17 -0.04085390582 6.441400342e-05)
5(73.33908626 -0.6806139333 -111.7531645 -18.05733729 640.3766868)
5(9.317331112 6.015521771 -106.2016502 -62.14281287 74.65261955)
5(6.566255897 -5.243754731 -36.49699932 -53.37998468 11.31002524)
5(9.570161398 -10.69892044 -82.34719472 -8.752735188 12.72854309)
5(2.473506941 1.874077912 -12.26292404 19.16563272 -12.17282046)
5(-7.70467796 -3.673179329 40.71997665 7.536260593 -18.83807093)
5(1.197777572 -3.912268405 4.74576915 -6.004683201 -9.627406506)
5(1.743439877 5.967150652 -3.549080016 0.009851871336 1.128357097)
5(2.715492331 -1.286208602 -9.080010523 -13.20655432 8.844196242)
5(1.912821234 -8.816077595 -8.879401766 -10.4772807 1.421933368)
5(2.563397173 -1.77074132 -16.33203685 -6.950060569 -8.541225506)
5(-3.054689653 -6.660271849 -8.829279006 -1.017470544 -9.500879706)
5(1.145800874 -9.160733612 -9.8705267 -19.01432818 -7.643653687)
5(0.1118925049 -5.306397061 -6.562348257 -10.83408679 -12.14060514)
5(-1.548668072 -10.92902506 -11.98823618 -12.96367659 -12.93265098)
5(-1.48200631 -12.52677839 -18.65611723 -23.78785624 -16.49557807)
5(-0.5341747789 -18.23266086 -19.93414198 -21.79869627 -17.77822116)
5(-2.688610967 -12.30789718 -21.39613761 -25.23915764 -26.82732957)
5(-5.580014106 -19.79313083 -25.55753884 -34.41270465 -34.32691747)
5(-6.354385997 -24.81103172 -35.31620926 -36.62511583 -36.13742779)
5(-4.27133297 -29.87741694 -33.1110595 -48.51636316 -38.45366844)
5(-7.179216706 -26.43457247 -38.66049205 -50.37498589 -48.8244231)
5(-9.784719886 -33.81827998 -47.53222321 -40.80941364 -55.05713178)
5(-12.33014851 -39.58033681 -33.76667624 -49.90866594 -58.61466559)
5(-13.8792386 -51.18590965 -63.4221046 -56.97176059 -66.55595463)
5(-19.88989936 -42.02694796 -62.68462973 -65.28486595 -64.32757546)
5(-18.32654727 -50.75941536 -59.20912255 -72.57170399 -70.15074352)
5(-21.10844333 -55.98173044 -72.54144571 -71.36856571 -72.95087216)
5(-26.52460638 -56.39180954 -70.51863489 -78.75430111 -77.13903331)
5(-30.03699844 -61.72019507 -76.07210456 -73.69411908 -77.55290892)
5(-29.52501299 -60.99598708 -62.71440052 -79.43276018 -81.48473807)
5(-33.85830006 -60.75796755 -66.74911667 -69.2448602 -73.43034214)
5(-31.94739276 -62.89878346 -62.53259672 -61.60610862 -71.87919153)
5(-35.35607771 -52.70731924 -53.71714269 -50.53775558 -69.84190273)
5(-33.54370963 -59.9326679 -60.04873249 -63.46877953 -60.66170983)
5(-33.34919752 -47.33524275 -66.47350604 -31.41787753 -50.69038762)
5(-34.8324387 -35.38823146 -25.36347915 -10.09176424 -46.29389894)
5(-39.57606876 -17.44453685 -3.979272642 -18.37671621 -46.77801897)
5(-30.88005447 -23.62758644 -13.72251116 7.251084314 -39.88105306)
5(-20.37267035 23.53788044 10.06519045 10.31727573 -29.05598587)
5(-13.40844275 2.784337979 2.520671632 43.40013603 -14.87396209)
5(-6.845104173 29.66442647 44.76269879 98.67535316 -6.582022116)
5(-2.841130934 78.66690704 62.64310535 60.86643609 1.868831715)
5(12.96383201 58.25210778 75.82383156 20.08392318 -2.925234482)
5(23.78849226 45.94096668 85.28001711 -8.115187736 -7.236371482)
5(37.98134746 44.37676415 117.6650943 -19.57421294 -4.483238658)
5(33.58869697 98.45653959 66.5302889 -23.02322226 -3.004518722)
5(32.66327882 103.3781694 18.39070497 -22.81972611 -4.601578679)
5(23.16343136 115.3885107 -10.9232196 -34.45600835 -6.654258072)
5(19.99602995 38.0067497 -23.58143684 -31.77619557 -10.2095663)
5(13.96709357 -4.918694494 -24.80192862 -26.78685413 -10.56666166)
5(10.83702326 -27.11963947 -31.88364873 -25.19349692 -12.50554905)
5(4.718282247 -24.24627929 -30.05244221 -22.05451541 -14.35433566)
5(-0.4887681902 -29.49615888 -26.11014332 -20.45177534 -17.24535629)
5(-10.37399065 -28.17417234 -20.40605668 -17.07809853 -17.26888963)
5(-24.2103512 -23.52698099 -18.05737868 -12.87572166 -18.21520132)
5(-19.74080985 -15.27921319 -4.692440094 -15.44592293 1.281081514)
5(-8.480853196 -23.87137888 -20.49401059 -20.01436968 -9.757416692)
5(0.3009680515 1.374612245 1.132603049 2.988769207 0.8881172682)
)


60
(
5(-0.9646934244 -4.145903949 -4.185225654 -3.08621508 -1.815850291)
5(6.451798647 -6.083800934 -47.07356163 -29.6874403 322.9342774)
5(-24.39646811 -2.760018915 -37.11234956 -26.68250156 -95.20453587)
5(-0.673684455 -3.066762332 -10.01259181 -13.86572625 -4.400017314)
5(-6.698812621 -3.00312477 -7.496463287 -11.03139241 -24.76847998)
5(1.915200236 -4.578039961 -0.3453572836 7.761350965 7.760639696)
5(-1.521732747 1.511743925 0.3332650495 -7.688202993 -9.609418187)
5(6.355162988 -2.918753136 -3.009241529 -6.990454683 -17.90869576)
5(-10.38454698 -6.162795828 -12.80184471 -12.49667848 13.83727068)
5(-9.384971711 -6.450336302 -1.955375695 -10.3950456 -36.74440676)
5(-2.427876522 -8.946187651 -15.03826147 -18.09555092 -19.54246586)
5(4.778618677 -1.567407567 -11.00233233 -14.4721049 -18.80095389)
5(-15.72557824 -11.78971233 -16.47315756 -20.84526095 -24.49434412)
5(-6.457565316 -15.90130374 -15.13614471 -26.02961534 -34.37010855)
5(-21.9010204 -15.89047655 -27.27759748 -29.24541254 -39.08148354)
5(5.913821626 -20.37561509 -20.19815858 -31.00342258 -38.14615105)
5(-24.86139944 -18.89393422 -35.56672767 -44.48080263 -66.80925092)
5(-20.19161336 -24.62473839 -30.28840077 -54.32395659 -52.63740633)
5(-19.89003714 -33.66915769 -51.63137552 -56.3456726 -66.52209089)
5(-39.02838897 -33.09012485 -49.16208047 -70.54835825 -72.21082081)
5(-9.431570596 -42.28175076 -64.60117076 -80.30972296 -118.3961566)
5(-48.19363856 -52.09898429 -57.83635586 -75.99891781 -81.55392986)
5(-40.71896273 -57.38354857 -79.69035298 -104.906179 -112.4156849)
5(-53.89990229 -64.87251325 -87.77456163 -106.8612638 -122.6626813)
5(-41.78555705 -71.31491534 -99.77455762 -115.926315 -147.5536769)
5(-66.92474547 -84.22431886 -104.9617487 -120.3469195 -114.8529396)
5(-82.92031516 -71.56020164 -93.33473737 -121.1813419 -150.7022014)
5(-40.58592645 -100.0602979 -126.327483 -148.0649629 -137.6357387)
5(-105.4282435 -89.74923243 -118.01612 -126.5664779 -170.9656801)
5(-63.96499605 -90.46904255 -119.9487493 -146.5682864 -99.87695876)
5(-97.12178966 -116.472969 -134.1067938 -143.587636 -166.6521848)
5(-92.76067534 -102.8977111 -111.722808 -128.5716118 -121.3445054)
5(-92.46993785 -78.67355663 -129.4817259 -118.615907 -138.0653585)
5(-94.74712985 -110.1873271 -121.0879724 -121.1620535 -84.67506703)
5(-123.2082088 -85.32738302 -77.77649234 -110.7407746 -96.42821738)
5(-58.50922255 -79.50271967 -97.75062339 -87.15635335 -92.77014229)
5(-23.13230014 -64.35136186 -70.06848758 -59.66618786 -27.9157223)
5(-104.6646225 -55.57917831 -47.34387 -40.59364519 -34.95617574)
5(-31.21725184 -32.44103303 -42.44056017 -29.6839532 -25.62097598)
5(-32.08064585 15.05073971 7.580083012 -3.231879893 38.38639025)
5(-0.339804748 15.34247001 16.45974651 29.9550936 8.62182639)
5(26.76007585 39.37362496 36.67294999 38.26975136 54.09289908)
5(30.923707 65.45037749 55.26735054 58.25670203 28.4155117)
5(73.26431059 75.3852194 79.00534719 84.63694475 67.7755777)
5(72.81487609 105.2760421 121.4538858 68.3933663 26.54426469)
5(104.5522612 121.515003 105.3955022 64.86839349 50.83506359)
5(108.4758116 116.3952767 107.2443387 68.29739701 31.7016477)
5(121.3039946 123.517864 93.91258372 51.78676108 22.9754391)
5(109.3295087 132.5941175 90.89459233 39.02477986 10.86215907)
5(104.3201083 96.11404976 59.06774481 31.13174053 0.4610945381)
5(84.3460465 74.35242267 43.67036394 12.9085345 -1.106375868)
5(70.01123094 47.30421656 28.15256781 0.557321533 -10.8348902)
5(42.74543853 32.14700823 2.766777005 -6.190478716 -19.63171169)
5(16.0846015 -0.4502271434 -8.188460924 -10.55571832 -7.984895481)
5(-9.29887563 -12.81174605 -18.26651548 -20.90769609 -18.91015709)
5(-25.55235832 -22.51951489 -27.70438392 -19.70377601 -16.27689592)
5(-30.94546971 -30.79736539 -26.55008241 -23.85110344 -19.29656375)
5(-32.61360883 -33.68052076 -24.51619489 -14.73259167 -17.70363427)
5(6.441516916 -17.47145657 -15.62725038 -25.47718307 -23.62795513)
5(1.940003058 0.6235207404 1.367873883 1.375633925 0.02130317652)
)


60
(
5(-16.89237095 -14.67591086 -10.9753231 -7.641765484 -6.741441153)
5(-36.43108828 -4.035999706 -45.21485923 -36.89417286 3.713039055)
5(-7.086251993 -3.260387496 -26.50954564 -23.60096178 -45.48389506)
5(-8.813949333 -7.741999849 -12.3003374 -14.03020259 -30.23637763)
5(-3.173406334 -8.575563701 -3.016989477 -10.27420226 -14.08846221)
5(-1.220218635 -1.586126324 -2.806202078 -10.61623204 -9.380793696)
5(-1.612488896 -8.419894709 -8.132093451 -11.70671403 -16.13875445)
5(-10.41306262 -9.335217055 -9.935303077 -10.90617266 -28.22562957)
5(-2.710249809 -4.008536761 -16.72660293 -19.95945679 -10.64128053)
5(-2.001043028 -14.410354 -15.44393235 -27.10450442 -40.00189282)
5(-17.05132297 -10.71118488 -20.11357778 -27.1101929 -21.03420492)
5(-9.050379667 -17.12941171 -21.04099763 -23.25116986 -39.3319132)
5(-0.7641003573 -17.76287928 -23.53337521 -34.4866155 -59.78779016)
5(-13.3703656 -23.30966076 -27.82509127 -47.88424283 -23.81062379)
5(-27.036368 -21.38798235 -35.50892608 -48.62322395 -79.93121064)
5(-28.76613571 -33.20423016 -47.75287732 -53.86588514 -64.8745377)
5(-3.074121807 -40.61344688 -58.01606882 -78.33479941 -87.11990026)
5(-52.96737858 -38.56374461 -54.54065044 -78.13925303 -110.4861335)
5(-14.16144346 -55.98839911 -78.37702814 -95.90474826 -94.02017393)
5(-52.38944126 -63.04023738 -72.97781133 -97.6826508 -129.6738795)
5(-66.48514377 -57.00048352 -99.00747582 -132.8767736 -170.9122549)
5(-41.13614777 -87.66538911 -111.9397015 -126.2194532 -122.5016142)
5(-31.90745909 -93.45961287 -128.3507218 -154.8178362 -184.9280737)
5(-105.9568013 -101.5999256 -113.5445835 -172.3956454 -153.9209882)
5(-80.11560353 -98.72648357 -152.4889213 -178.843922 -236.453759)
5(-91.58729408 -126.3822789 -164.9750459 -190.4954602 -208.0909662)
5(-101.8273534 -136.1379575 -169.3009691 -199.127564 -190.7057826)
5(-112.3212101 -144.71731 -180.1842556 -211.3763266 -250.303379)
5(-116.8839504 -150.3093982 -188.0408517 -200.3245775 -182.4219314)
5(-126.6188171 -155.782283 -193.0105582 -219.2077195 -262.600557)
5(-132.825564 -159.370879 -200.5207547 -212.1085041 -172.1924676)
5(-136.2611206 -157.6797952 -155.0353637 -207.4296061 -220.8920887)
5(-132.9628142 -158.0212388 -195.6817348 -173.2989198 -157.8728504)
5(-137.9825995 -145.6843285 -178.005798 -181.664094 -222.1404678)
5(-125.8956565 -136.1672362 -150.36003 -161.4210096 -58.52532019)
5(-131.3145567 -115.171093 -140.5925766 -129.1611581 -152.8648448)
5(-117.6168486 -106.3299597 -82.43255395 -106.5871609 -92.89709914)
5(-74.19674453 -75.71180721 -88.12953139 -66.8686307 4.588101676)
5(-70.32550142 -52.15751542 -52.84406994 -25.69652216 -43.14341882)
5(-56.09262363 -33.99310932 -2.117768629 7.239100401 54.2110404)
5(-4.751990717 14.60666458 21.62300834 30.419709 42.36078776)
5(1.250986415 51.23908603 54.25399714 82.85016026 93.0016244)
5(45.98294967 82.09317872 102.0519771 112.5477911 94.31410208)
5(53.95251911 103.7945796 134.7663453 132.9540023 104.6193357)
5(99.36590625 131.9042021 150.7901415 142.9314811 122.4959084)
5(95.42569371 161.6845152 182.7281213 154.23662 138.6335794)
5(141.7962325 160.7863676 190.1586736 142.8474989 90.64527851)
5(110.9747743 181.5888693 171.2043775 146.7854527 125.519401)
5(170.8814238 186.4196219 162.2601722 130.633795 61.53963442)
5(130.8234302 163.3401261 154.1697404 109.4764801 63.77499656)
5(122.2453055 130.6257705 118.6618131 81.69195835 45.95550144)
5(113.8991645 119.4214732 87.09138431 52.83637359 20.43725583)
5(96.96050625 73.17945785 48.6355138 26.20651783 8.592102799)
5(57.98369722 36.14296583 16.86802706 7.821054259 4.082802556)
5(27.49818394 11.73582573 -2.615516105 -7.856481077 -8.68201941)
5(-0.9060425945 -17.9374805 -21.93074284 -13.84523231 -16.28676388)
5(-20.37492316 -33.32898221 -37.5733885 -34.43020603 -25.02752238)
5(-25.12026336 -32.33277681 -37.97795528 -27.43006576 -31.40012118)
5(2.471648264 -5.757747432 -10.13911628 -27.88604591 -24.00490082)
5(4.637045037 6.474807024 2.245863562 -0.4275144615 1.052514344)
)


60
(
5(-30.21382502 -20.17028134 -26.23144493 -25.48164619 -13.05160124)
5(-15.17700106 -1.332855916 -49.51583095 -41.7344031 -24.18289691)
5(-4.944292752 -10.16324724 -28.29412644 -31.04459617 -40.10856233)
5(-6.151400859 -10.51356246 -12.88795588 -18.14708248 -34.26195383)
5(-5.886341523 -10.7941403 -6.310698082 -15.4132095 -28.95787204)
5(-10.90919287 -9.742368921 -6.514489881 -16.63518874 -26.5685509)
5(-1.323131866 -9.941455922 -13.69280325 -16.87847032 -16.58039554)
5(-6.353236242 -10.37750581 -15.17498991 -27.06750395 -43.53881139)
5(-12.65532289 -17.11385794 -23.27236068 -26.83693603 -27.51375747)
5(-3.410021002 -9.695604518 -23.0934811 -35.69792896 -47.16446313)
5(-21.56695452 -23.6070391 -29.55807401 -34.71207234 -38.76282824)
5(-7.179813804 -21.60121899 -29.2428205 -47.53586306 -63.28016855)
5(-37.52578916 -21.1158569 -41.55972154 -48.38262271 -51.47311433)
5(14.39976757 -33.8375692 -41.33225162 -63.33492368 -90.09669643)
5(-32.79216833 -34.52307742 -57.17059574 -70.676495 -82.47961884)
5(-45.45132776 -49.67323331 -51.89582751 -86.22042773 -95.2210323)
5(-25.58592501 -50.53628417 -75.09144152 -102.7147637 -116.5772073)
5(-43.26524193 -59.85378159 -92.72356364 -98.59422089 -139.27266)
5(-53.3079333 -76.52017879 -99.11585832 -137.903558 -159.1109051)
5(-53.85987955 -79.93140784 -113.0950851 -149.1794351 -164.732043)
5(-65.85878937 -93.52364044 -134.4019632 -163.3295252 -218.9977008)
5(-87.48232649 -113.8026795 -145.4264649 -190.320436 -181.9483724)
5(-91.46292328 -125.9915175 -162.9243962 -202.5543879 -268.929977)
5(-91.38520893 -139.6830071 -184.9510243 -223.1318307 -206.5473724)
5(-106.658801 -154.6407657 -206.0645124 -242.7116806 -300.867615)
5(-126.8126223 -131.8589659 -211.7921849 -262.9528583 -268.4649904)
5(-150.6674722 -191.7125781 -220.1795721 -266.9384303 -282.4573563)
5(-152.3489134 -192.2480305 -239.2327031 -280.0489329 -321.2841657)
5(-140.2158314 -199.9347548 -254.6234754 -282.3758428 -289.9487037)
5(-173.8818613 -205.5303956 -261.7149236 -290.7179797 -293.7436869)
5(-169.9813694 -203.0011029 -252.1692384 -289.2232333 -339.0738349)
5(-169.7236239 -213.5057979 -255.7207419 -271.7908614 -169.6829062)
5(-186.454377 -218.0470829 -246.4306727 -251.7047945 -310.0352252)
5(-194.3505722 -203.8374506 -219.289042 -233.8384815 -217.1367312)
5(-174.7123981 -187.0610671 -214.1562047 -212.7939409 -186.4166865)
5(-158.477737 -157.1521473 -198.5513484 -188.231898 -169.793511)
5(-133.4055016 -145.864694 -152.9517171 -153.9740672 -130.2037974)
5(-139.9899473 -125.4095021 -112.5035186 -98.60466907 -51.39116832)
5(-100.0902127 -79.9145084 -61.96820664 -50.46292301 -11.00085426)
5(-80.68340742 -53.96303428 -34.65110104 -18.20870224 -15.99047203)
5(-47.85890483 -8.887973305 9.826755051 42.56825539 121.3917388)
5(-21.94991026 25.827748 51.27701359 94.47475607 117.5221159)
5(22.07332769 58.98416102 103.7441666 137.519955 151.2778745)
5(25.39498914 107.3334934 136.3126871 177.7511334 199.9158022)
5(66.3501254 129.3147284 204.0647928 200.2366893 194.9870645)
5(95.06542773 153.175245 211.7861632 234.2372867 207.3314341)
5(115.0210447 191.1110732 225.7164558 219.8967635 214.8605168)
5(119.3053618 197.3435135 236.8340794 238.4412755 206.3157456)
5(137.5049541 213.1789155 239.1806369 234.0180032 172.8194731)
5(154.7832736 197.8523813 213.1179121 199.7774659 168.4896076)
5(156.7889263 168.8734052 188.8055481 167.5576587 123.0857062)
5(136.4275858 172.3002546 160.9435473 120.7896901 81.07856581)
5(129.9171095 134.8430827 110.0848936 98.56137661 73.45266025)
5(102.8905394 89.7295935 61.73148904 46.61249572 26.52012923)
5(83.16110246 50.93337157 25.0507827 15.26129181 13.10080436)
5(39.78638818 14.34517785 -9.725408512 -11.17116097 -9.685947596)
5(14.94500607 -13.49323619 -40.029075 -31.86567891 -22.07586045)
5(-3.251506079 -26.95118032 -38.92491673 -36.87802507 -40.86994373)
5(16.47870019 -0.2921910077 -4.299157269 -21.20066539 -20.38763299)
5(11.59641125 9.080936513 8.321378112 6.542312112 6.291652142)
)


60
(
5(-61.95901637 -65.50062045 -28.82267184 -26.96905899 -16.93214158)
5(-12.97346015 5.515667729 -53.09243365 -51.55995527 -72.73365431)
5(-10.77169257 -9.508336314 -30.76812924 -39.92389272 -59.68450475)
5(-10.18604268 -19.48050796 -16.52071304 -26.41983664 -33.11678733)
5(-5.567182877 -21.00237328 -11.41787079 -25.03731777 -33.3113438)
5(-3.950296362 -11.20066449 -15.039527 -22.04398997 -49.8791446)
5(-15.3143051 -12.08361501 -14.46712071 -27.00231565 -23.70580739)
5(-5.289357729 -19.00982399 -27.00551762 -35.82354415 -58.55816932)
5(-14.24223005 -15.64578775 -27.09415057 -40.02339148 -36.5022794)
5(-13.22714629 -26.425895 -37.20640276 -45.47327045 -70.88833336)
5(-11.0021902 -21.66936066 -33.85331049 -50.53363639 -48.15580442)
5(-28.877582 -32.03206314 -44.5100508 -58.4398986 -85.45719087)
5(-11.55679169 -32.84562437 -47.52431221 -66.94904063 -68.20632195)
5(-43.40054676 -41.86241434 -61.00304902 -81.54138444 -117.1582062)
5(-19.67072322 -48.15640681 -69.6439865 -91.42531263 -97.83136545)
5(-39.89154675 -55.07830178 -80.41766223 -112.7712345 -152.3264107)
5(-55.98996228 -73.37304565 -97.39048281 -125.6484018 -132.2219247)
5(-37.1857169 -76.11896208 -108.5299538 -150.9599566 -195.5939532)
5(-81.60094269 -93.37407014 -132.3890421 -164.054027 -184.1283119)
5(-71.48070689 -108.137961 -144.5077764 -186.8926407 -221.8125457)
5(-65.51712006 -117.3266327 -162.8157319 -214.1581461 -262.0456772)
5(-131.8626589 -141.1093859 -196.2612525 -232.3724739 -255.908607)
5(-99.39639189 -158.9084402 -204.3212655 -264.6399765 -308.9185917)
5(-116.2124064 -169.8637872 -226.2502095 -284.0118631 -333.7332601)
5(-155.6121846 -193.6008289 -258.054165 -297.1145127 -299.9074171)
5(-163.3830023 -214.0023413 -264.3042659 -325.7932027 -376.3195769)
5(-152.5106898 -220.8975878 -285.0070681 -345.0620618 -371.4343581)
5(-190.3577041 -230.663058 -300.1300031 -351.1452917 -377.2259847)
5(-214.8956559 -252.4662558 -320.9434307 -360.1914645 -363.3120486)
5(-226.5481619 -269.1382027 -319.4144805 -371.436444 -410.3244087)
5(-200.3511818 -263.9237543 -318.2739079 -362.1712572 -361.0322216)
5(-219.328134 -264.6392316 -313.4373791 -351.3954879 -346.152732)
5(-212.1670679 -254.9367173 -315.5103696 -331.1374848 -332.7952546)
5(-233.1587397 -265.0811564 -291.2764519 -308.2866535 -314.1736408)
5(-232.5168979 -254.2251317 -267.0173975 -288.6790979 -237.8187117)
5(-189.3686609 -223.009136 -243.2883659 -244.3197581 -205.9465968)
5(-216.8499052 -201.4085964 -211.8746812 -193.4679222 -179.3548294)
5(-161.375903 -159.2315964 -177.9061449 -157.2929059 -138.5439342)
5(-169.7970084 -125.6778477 -125.0259408 -112.5506474 -44.08122124)
5(-121.5813459 -103.9539527 -63.29624138 -37.08163502 60.85990707)
5(-106.1174673 -52.19599554 -22.16737479 36.00039219 -13.46092708)
5(-73.24099076 -14.7421141 37.86210803 78.43954604 197.4688419)
5(-16.96806299 14.41964024 63.83041122 134.4936757 133.6164219)
5(6.19117323 73.53485534 124.9703728 193.3030517 285.2469154)
5(6.473603015 96.68987682 178.2794242 226.8590862 250.6650229)
5(59.93886293 118.7220255 216.2059488 265.49595 283.4474172)
5(28.99001185 148.8683487 224.5253932 292.8937548 336.2097637)
5(108.7457023 182.4250624 262.2795725 291.9107799 287.965527)
5(113.6496584 203.4929112 244.6105366 292.5255493 292.8083821)
5(101.3676915 188.8542341 246.4269384 288.332497 251.8845487)
5(143.3266375 209.6521467 239.463269 257.2518029 263.5419304)
5(130.8953261 156.9588025 216.4855487 201.2633153 163.6725598)
5(135.0845414 179.5581158 159.2099377 169.1561989 134.266211)
5(134.0218173 153.886814 125.8852458 100.7539051 87.53897972)
5(117.9606344 99.74856079 72.47130597 55.28135764 44.33404404)
5(95.20773007 69.90396036 25.86465734 5.715850533 10.68863465)
5(62.35742287 29.26825522 -16.33993165 -28.8195963 -26.18926793)
5(37.03021992 6.437213872 -33.15778747 -50.15664944 -46.30896589)
5(30.2909329 13.74350894 3.421168722 -13.55827382 -22.92697394)
5(20.64051004 21.72199935 13.7403079 6.064675031 1.636417282)
)


60
(
5(-93.75955832 -82.50246345 -106.7696861 -83.62941151 -62.11322711)
5(0.4802865426 13.03580687 -59.64029547 -60.29960064 -93.70963253)
5(-20.5942291 -10.19241196 -37.8952378 -49.45409728 -57.186365)
5(-7.466765718 -27.77350946 -21.50056279 -38.2907082 -69.44297079)
5(-6.363823097 -30.555597 -14.75075127 -31.41447527 -41.60843013)
5(-7.360900989 -15.05108758 -21.99045 -35.44287291 -45.3698531)
5(-22.05659422 -18.69890497 -21.43747548 -35.56440131 -67.80833091)
5(3.056639949 -21.93532052 -34.94694004 -49.13402134 -44.71451573)
5(-36.53742993 -22.77010437 -36.30385916 -50.88687162 -74.43161958)
5(0.2801169298 -29.27276852 -47.84436309 -60.41104779 -64.3107993)
5(-35.61736155 -29.9154882 -43.91700612 -63.00677604 -83.80760171)
5(-11.09063367 -40.43182906 -57.72651578 -76.03632295 -93.626674)
5(-39.48991267 -40.84274242 -59.22964252 -84.77913651 -100.6108584)
5(-29.27917796 -57.03952646 -77.84696251 -101.8946946 -133.211456)
5(-40.7261548 -57.16655272 -84.83776537 -114.3119439 -135.9262379)
5(-55.64364396 -75.63348009 -104.081277 -138.266875 -168.3874365)
5(-39.25542561 -82.64844728 -116.1890268 -154.6626553 -189.6556391)
5(-97.93533979 -99.17629834 -137.7133661 -183.3287789 -204.7365129)
5(-48.97428409 -113.8672035 -157.0014276 -200.531672 -261.0671075)
5(-115.3156992 -126.2145841 -177.1619433 -233.8138952 -238.8447832)
5(-99.18153525 -154.8410273 -210.3728989 -254.1466148 -341.9546145)
5(-93.63555221 -166.4073192 -223.9913716 -285.3320867 -291.852581)
5(-194.7825467 -189.97478 -252.3713981 -315.8203893 -383.1968305)
5(-116.2814029 -210.4601065 -280.5141216 -341.879016 -378.7679168)
5(-162.0198144 -219.6433183 -298.7795026 -373.2491205 -408.9448625)
5(-238.5962679 -255.6309019 -333.9495242 -385.4977968 -464.5113507)
5(-196.2933954 -276.5708195 -351.6306914 -398.6528822 -409.009884)
5(-175.5530625 -280.488394 -345.7414581 -433.4048437 -467.2368953)
5(-272.3343668 -301.3914458 -381.6875405 -443.3726135 -480.3160665)
5(-257.8217623 -327.552698 -395.9407749 -422.764248 -500.8758178)
5(-275.6269205 -316.2093291 -386.7554733 -442.9552222 -413.5493163)
5(-240.1472488 -315.690923 -387.5533412 -445.3756233 -459.1749211)
5(-310.750629 -327.2936746 -395.6422548 -412.0015197 -416.7032083)
5(-282.0372672 -319.131165 -363.4496021 -385.5461669 -407.544689)
5(-271.7282633 -299.4703862 -324.9008565 -368.6800604 -308.5777505)
5(-260.8072567 -288.689117 -313.884734 -321.0560141 -334.9947198)
5(-240.0429955 -259.0851522 -287.452844 -254.6242786 -185.7397553)
5(-237.2537401 -239.9772441 -233.7391488 -211.2589847 -162.6335723)
5(-187.6448668 -201.2990569 -184.1720436 -176.8079165 -174.0714397)
5(-204.8068148 -159.3328306 -131.2858242 -108.1402623 7.593770576)
5(-142.2603525 -112.1771833 -87.12661694 -26.39565467 68.89591394)
5(-128.1017229 -64.79866421 -38.87613788 31.91479402 53.85535717)
5(-146.9533824 -38.18410967 35.82831651 99.03612348 213.1009929)
5(-61.59533416 -2.009198652 77.41156755 153.1738775 213.220925)
5(-37.07879199 37.46007165 120.8381194 197.8917965 303.4149713)
5(-18.01182118 62.83745644 158.1227545 254.0643473 331.7621044)
5(22.42070695 73.32041657 186.2126965 291.8800007 375.4335208)
5(4.09611685 122.1621757 222.2025975 305.9796237 391.7822096)
5(46.30830484 143.8839049 230.5247332 324.4039687 344.5694223)
5(47.81759294 169.563394 236.8801984 319.6479474 373.6200126)
5(59.53969354 166.3680664 235.2469072 307.6753271 324.1353669)
5(113.1477363 165.3582109 232.791315 239.0171847 298.2592495)
5(98.75502999 188.8638379 182.0034065 263.7916094 209.267809)
5(97.30749546 157.4345585 205.902994 145.1105575 163.7179655)
5(96.1553234 140.4929459 127.3237513 108.1271704 87.88949417)
5(94.54473304 112.8800001 77.81291244 48.409371 34.4250704)
5(82.60635736 87.69424487 41.36162719 -0.5652871176 -12.57981028)
5(62.70524819 54.63911709 1.561985304 -28.85858521 -47.9848372)
5(60.22473139 32.13759721 19.98436192 2.254073671 -7.910314099)
5(53.50349325 30.28997611 24.24535919 24.14165849 20.29730693)
)


60
(
5(-148.2761135 -223.0796465 -176.8500596 -86.67758824 -32.64856754)
5(23.60256859 19.57180844 -68.91542676 -69.80237947 -113.2383389)
5(-11.49424719 -15.40630605 -41.57197529 -59.13762842 -67.63484724)
5(-21.60059086 -40.40372833 -32.06532913 -48.65436759 -83.10675904)
5(-17.66521477 -33.54515385 -26.27670286 -48.4267852 -55.03960839)
5(-5.220275453 -24.23109785 -22.15801394 -41.77551439 -68.13317309)
5(-13.631892 -23.93789132 -34.57714441 -50.43052303 -71.43818511)
5(-21.76914753 -27.57939822 -38.36389085 -57.12754626 -74.66107477)
5(-10.53496144 -30.75213215 -53.33651933 -68.45293036 -71.47363429)
5(-33.75167809 -35.46681312 -51.71409458 -70.67661393 -105.2753033)
5(-12.30250036 -39.17202853 -62.45267275 -84.71287991 -75.9107496)
5(-46.82569197 -45.37230981 -62.85844613 -88.79672382 -145.0163666)
5(-14.57541921 -54.45735488 -80.84700163 -106.8396972 -97.50791449)
5(-70.60891959 -62.23559554 -86.65818427 -120.0384096 -179.1622479)
5(-19.29053388 -75.18518995 -109.6661787 -142.8754938 -151.1932331)