/*--------------------------------*- C++ -*----------------------------------*\
| =========                 |                                                 |
| \\      /  F ield         | OpenFOAM: The Open Source CFD Toolbox           |
|  \\    /   O peration     | Version:  2.3.1                                 |
|   \\  /    A nd           | Web:      www.OpenFOAM.org                      |
|    \\/     M anipulation  |                                                 |
\*---------------------------------------------------------------------------*/
FoamFile
{
    version     2.0;
    format      ascii;
    class       dictionary;
    location    "constant";
    object      la_i11;
}
// * * * * * * * * * * * * * * * * * * * * * * * * * * * * * * * * * * * * * //

la_i11_table
60
(

60
(
5(0.001823644215 -0.01014948089 -0.0346710091 -9.545145855e-05 0.005237631091)
5(0.001787774745 0.01593592187 -0.007178089157 -4.018960477e-05 0.006113162892)
5(0.006061722973 0.01450380654 -0.002791678734 -3.592763728e-05 -0.001688284548)
5(0.008057223206 0.01255782312 -0.009911284359 -2.96752979e-06 -8.488794712e-06)
5(0.006859036946 0.008964762683 -0.01594291016 -2.260861066e-05 0.002621599605)
5(0.005036387819 0.00452602387 -0.006019441338 -3.428747093e-05 0.0007451054698)
5(0.003856078007 0.002937535486 -0.006788224358 -2.832508081e-05 0.0009974779024)
5(0.00438203925 0.001997935854 -0.01267611971 -3.84560505e-05 0.0006947953469)
5(0.003206352768 -0.001280570105 -0.01430058211 -4.295474927e-05 0.0005398320262)
5(0.002760967418 -0.00363279296 -0.01771765844 -4.400851868e-05 0.0006225780151)
5(0.00212429086 -0.005707138779 -0.01923747663 -4.247002754e-05 0.0004443087417)
5(0.001698176903 -0.006476373908 -0.01817371794 -3.811893213e-05 5.36569387e-05)
5(0.002214721546 -0.006361329127 -0.01693491941 -3.282371476e-05 -0.0003886538021)
5(0.001932456876 -0.006566610829 -0.0157161559 -2.432330674e-05 -0.0008938010485)
5(0.002006593353 -0.005226030114 -0.01324554375 -1.464655243e-05 -0.001413365781)
5(0.00191451122 -0.004924051129 -0.01128782468 -6.046106388e-06 -0.001883787802)
5(0.001960907276 -0.003452526172 -0.008901338175 4.482482491e-06 -0.002427967029)
5(0.002227218168 -0.001311824421 -0.004896342153 1.684718995e-05 -0.003003705764)
5(0.002580507586 0.001444992403 -0.001075871985 2.796779437e-05 -0.003454935454)
5(0.002885161235 0.004255631447 0.002488765076 3.848105184e-05 -0.003856147627)
5(0.003283993815 0.006996131011 0.005874173914 4.785724457e-05 -0.004242360591)
5(0.003699257547 0.009628055207 0.0090291404 5.510054235e-05 -0.004501221897)
5(0.004113171537 0.01213549464 0.01191789582 6.230550002e-05 -0.004774104561)
5(0.004548155679 0.01450809626 0.01458891423 6.88336192e-05 -0.005005700655)
5(0.004955005673 0.01668240872 0.01693640159 7.439117413e-05 -0.00519727865)
5(0.005344892836 0.01860074351 0.01904860212 7.946603398e-05 -0.005363570694)
5(0.00570750421 0.02040890636 0.02082286143 8.356411871e-05 -0.005491540331)
5(0.006034635774 0.02204509927 0.02242295815 8.711518294e-05 -0.00559867095)
5(0.006327586541 0.02348151466 0.02380355189 9.001103882e-05 -0.005688005935)
5(0.006593762244 0.02474926486 0.0250113451 9.24130163e-05 -0.005760392716)
5(0.006828872251 0.02587600195 0.02610745716 9.485849751e-05 -0.005843321474)
5(0.007038814258 0.0268651593 0.02704499257 9.68063726e-05 -0.005888018322)
5(0.007223887305 0.02774594293 0.02789644257 9.864394166e-05 -0.00594832665)
5(0.007387513092 0.0285383675 0.0286737115 0.0001003474549 -0.006000974631)
5(0.007533033575 0.02924356256 0.02934902551 0.0001018351016 -0.006051174685)
5(0.007663348787 0.02989628764 0.02999317525 0.0001033112905 -0.006107656691)
5(0.007778185276 0.03044559407 0.03048834969 0.0001046036313 -0.006148424982)
5(0.0078846931 0.03099712976 0.03103473704 0.00010578753 -0.00618870434)
5(0.007982877494 0.03150198514 0.03154285288 0.0001071202446 -0.006249827869)
5(0.008078094676 0.03200502262 0.03201740318 0.0001080479684 -0.006287149784)
5(0.008163448383 0.03244757165 0.03244243262 0.000109064301 -0.006319509798)
5(0.008250934251 0.03291349603 0.03284912344 0.0001105973369 -0.006370805507)
5(0.008337515309 0.03338919669 0.03319922039 0.0001125061631 -0.006404532912)
5(0.008438608663 0.03399973625 0.03367016835 0.000113897279 -0.006461749097)
5(0.008534067817 0.03447624174 0.0341986095 0.0001153620356 -0.006517443016)
5(0.008643044711 0.03494357786 0.03507220948 0.0001166995803 -0.006560829292)
5(0.008745852619 0.03502522781 0.03632227088 0.000118323493 -0.006606806301)
5(0.008849586984 0.03561705459 0.0368935149 0.0001195976179 -0.006650274288)
5(0.008929371652 0.03670286641 0.03735871936 0.000120739493 -0.006691270216)
5(0.008732811045 0.03776705525 0.0379876574 0.0001218149522 -0.006728863782)
5(0.009176481235 0.03789013466 0.03843048651 0.0001228175115 -0.006763266819)
5(0.009490478245 0.03849193073 0.03883976608 0.0001237507605 -0.006795438199)
5(0.009565150038 0.03894455517 0.03922429976 0.0001246133096 -0.006823663505)
5(0.009643642797 0.03933234769 0.03958791556 0.0001254111052 -0.006850353615)
5(0.009726475271 0.03969609687 0.03992823615 0.000126139678 -0.006874412714)
5(0.009791595559 0.04000641709 0.04023370382 0.0001268014149 -0.006894585976)
5(0.009850716838 0.04025449364 0.04050056775 0.0001273611719 -0.006917936804)
5(0.009970292912 0.04046311991 0.04068955964 0.0001284331647 -0.006933981718)
5(0.01019790938 0.04080541253 0.04061998898 0.0001279534226 -0.006937858389)
5(-6.003832928e-08 -3.135271059e-09 -1.375624289e-21 -2.699446535e-06 1.517596871e-09)
)


60
(
5(1.134876728e-06 -5.411751065e-07 8.202581693e-20 0.0003712643683 -7.086302631e-07)
5(-0.2169787596 1.454538673 4.94687039 3.467251532 -5.396187555)
5(0.7911448472 1.007832772 4.174293418 3.515852951 -0.2046931989)
5(0.468374094 0.9673836095 2.163225699 2.422673743 0.5350232141)
5(0.2444929337 0.7942489459 2.36421885 0.1855673158 0.09577778084)
5(0.3186768193 0.1810221633 0.1780253632 -0.9169897345 -0.5345509885)
5(0.4106344907 -0.0555150685 -1.373734602 -1.563753006 -1.679425898)
5(0.02474700709 -0.4290564536 -1.167183766 -2.010026027 -2.480300175)
5(-0.2293958191 -0.9001903335 -1.345778659 -2.199793951 -2.571953631)
5(-0.4581761139 -1.106563391 -1.777892676 -2.526312085 -2.37547037)
5(-0.6429449051 -1.317964119 -1.997095299 -2.726349671 -2.267012283)
5(-0.870140621 -1.621348466 -2.247059308 -2.696519147 -2.16232863)
5(-0.9733400084 -1.76102029 -2.363018322 -2.133875938 -1.69853153)
5(-1.154255955 -1.818258804 -2.183379759 -2.030822721 -1.120342539)
5(-1.24122169 -1.737044371 -1.889353283 -1.42063589 -0.6607035589)
5(-1.250645158 -1.653983904 -1.645320037 -0.928672504 -0.1096352644)
5(-1.181834343 -1.335706174 -1.168704257 -0.408683082 0.3490022276)
5(-1.044085493 -1.027291421 -0.6620019354 0.1453519898 0.721691474)
5(-0.8700126979 -0.5850164563 -0.1823812161 0.5736475043 0.9593973822)
5(-0.6302702796 -0.3089520428 0.203282076 0.8935943915 1.160669207)
5(-0.3414593068 0.08905315778 0.5721006643 1.200682433 1.290461243)
5(-0.0368579543 0.4019650259 0.9894732307 1.324109178 1.388140705)
5(0.2098689102 0.6865022059 1.188848245 1.477431512 1.372496825)
5(0.4625947162 0.9852498025 1.366647005 1.585594785 1.35162727)
5(0.6968792431 1.118263759 1.533636518 1.576546763 1.308549952)
5(0.8789401022 1.246597685 1.487375047 1.518439562 1.220517573)
5(0.9892776011 1.375566948 1.513838157 1.457286348 1.15726144)
5(1.102222956 1.376965421 1.510578262 1.363989663 1.070919117)
5(1.157267265 1.352762089 1.43505906 1.286758482 0.9789286267)
5(1.172779601 1.327145156 1.360596899 1.179896807 0.8723624705)
5(1.161785215 1.27884202 1.275971965 1.087205007 0.7866849936)
5(1.133050801 1.19986324 1.190171495 0.9737605166 0.6848116038)
5(1.083000444 1.121668115 1.081683584 0.8856384293 0.6050238685)
5(1.021671026 1.011573583 0.9595684862 0.7751159373 0.5136271118)
5(0.9304685255 0.9023537077 0.8448188292 0.6708259305 0.428587217)
5(0.8284431927 0.7823971343 0.7097851083 0.5541850838 0.3532033012)
5(0.7002902166 0.6456316895 0.5677533425 0.4604629363 0.28561959)
5(0.5578964434 0.5267216711 0.4737415484 0.3686017216 0.2189937264)
5(0.4006024452 0.3898188029 0.3621331613 0.2781581563 0.165573516)
5(0.2442285407 0.2801531221 0.2672179221 0.219022296 0.1378633358)
5(0.1148962924 0.1886284229 0.1913634053 0.1807260042 0.1303118297)
5(0.004856471058 0.1276714262 0.1561082391 0.1642382968 0.1338584328)
5(-0.06847793733 0.117824568 0.1514245333 0.1586503537 0.1365399949)
5(-0.0944237161 0.1393316169 0.1900174982 0.1447797258 0.1380607715)
5(-0.0506707844 0.1814993524 0.2125001927 0.1392825292 0.1281538085)
5(0.03385957927 0.2231635377 0.2362820484 0.1372479073 0.1111280986)
5(0.1344528589 0.2707538698 0.1938195673 0.1244897768 0.0917616461)
5(0.2021005837 0.2582965688 0.1664730597 0.1055594551 0.07271500219)
5(0.2285823346 0.2341306982 0.1349093124 0.08247015847 0.05709453897)
5(0.2119096808 0.1398800689 0.1008482684 0.06930197149 0.04470117841)
5(0.1758258807 0.1002836041 0.07902898328 0.05640033617 0.03629069795)
5(0.1239161538 0.07228505894 0.06256363518 0.04764549026 0.03036581068)
5(0.08319506283 0.06042196181 0.05038424069 0.0372662727 0.02568767239)
5(0.05454619723 0.04566095363 0.0433837058 0.03118775323 0.02172260169)
5(0.03940624233 0.04003287591 0.03260702794 0.02364513869 0.01780152444)
5(0.02849744017 0.03002842616 0.02309686627 0.01728452729 0.01409766261)
5(0.02048481999 0.02029252347 0.01591628325 0.01165639657 0.01042409521)
5(0.02421178533 0.01094683167 0.006791736999 0.006697543697 0.004905579295)
5(0.006828301996 0.004969831534 0.002313380745 0.003000891616 0.003577399171)
5(-5.877746577e-05 2.193019134e-05 0.0002986648915 0.0007792600653 -1.834331042e-05)
)


60
(
5(-0.0006145338214 -0.007625429509 -0.01072379468 -0.04061722682 -0.05800956756)
5(1.995618154 2.806332324 5.620171328 5.001896981 -1.605232533)
5(2.085861395 2.119207885 3.547306521 2.835520236 2.46727734)
5(1.244360101 1.324417252 1.775565099 0.676478256 -0.007555247501)
5(0.9099370704 0.5365174771 0.3108226457 -1.179728149 -2.566662983)
5(0.3644820912 -0.2609625538 -1.159805522 -2.50696235 -3.573177441)
5(-0.07977177691 -1.063282744 -2.180294004 -3.676693315 -4.501446063)
5(-0.6028953934 -1.650385269 -2.937731368 -4.126478984 -4.398668411)
5(-0.9054132025 -2.198846881 -3.45846885 -4.309320261 -3.73564823)
5(-1.338419661 -2.665519999 -3.736202707 -4.020270635 -3.424483153)
5(-1.808255155 -2.894035859 -3.740141485 -3.714783453 -2.454844151)
5(-2.031155282 -2.910179551 -3.520929677 -2.797343037 -1.363303859)
5(-2.175523598 -2.939635681 -3.123098493 -2.104855592 -0.3772339921)
5(-2.378654374 -2.635576005 -2.500690155 -1.16880669 0.264608493)
5(-2.269003047 -2.305026882 -1.770865615 -0.365509362 1.325835793)
5(-1.805897989 -1.65824545 -0.8880129508 0.5339747879 1.784987869)
5(-1.669715525 -1.137667769 -0.200421916 1.143984869 2.126486864)
5(-1.347562643 -0.4273462202 0.5292713367 1.635251055 2.508427985)
5(-0.7881460821 0.06963417773 1.021595059 2.143175351 2.645320134)
5(-0.3386435064 0.7467093089 1.652467364 2.36476979 2.705369259)
5(0.2654617075 1.107088503 1.95503608 2.491227076 2.524353576)
5(0.6711490639 1.511024517 2.340344081 2.684414528 2.559043579)
5(0.9200183107 1.793203747 2.394837689 2.566350458 2.387768515)
5(1.412932984 2.022614415 2.460454762 2.510425801 2.266506512)
5(1.657604459 2.163916231 2.478653661 2.427583886 2.013665437)
5(1.763478297 2.178292297 2.409121101 2.273571817 2.023405123)
5(1.822037127 2.269141077 2.400401671 2.178347023 1.706417949)
5(2.080315029 2.130943443 2.210484824 1.972822909 1.65962795)
5(1.835951331 2.102321544 2.107134594 1.871685645 1.435568059)
5(1.991446542 2.010976841 1.951517363 1.676443646 1.341952462)
5(1.789360267 1.844616813 1.787190351 1.531300312 1.180781191)
5(1.755194103 1.737846666 1.680207264 1.394815416 1.037400191)
5(1.664886857 1.641519782 1.465150914 1.214776129 0.9171661392)
5(1.488557188 1.421925475 1.320361241 1.068481459 0.7932940088)
5(1.337274078 1.28447481 1.168057683 0.9082851498 0.6874528917)
5(1.342436661 1.099095558 0.9599729758 0.7554102964 0.4882349413)
5(1.046637356 0.9168156578 0.7712177392 0.6035343892 0.4646995369)
5(0.8543122482 0.7052263843 0.5821451351 0.4482878036 0.3096174712)
5(0.6096859022 0.4818837624 0.4133628095 0.3077068135 0.2327936936)
5(0.4038338383 0.3003430574 0.254032802 0.1940011795 0.1750987635)
5(0.2591248886 0.1237190842 0.105627224 0.1198419157 0.1179400645)
5(-0.03753128771 -0.02189966677 0.02523785793 0.07807584465 0.1064402898)
5(-0.1242889387 -0.1040225785 -0.007022015085 0.0892282754 0.102135974)
5(-0.2227177431 -0.1102700892 0.02518973928 0.1201651784 0.1481218174)
5(-0.2132957452 -0.04325982545 0.09937799824 0.1578925543 0.1380084516)
5(-0.1540055059 0.03979899168 0.1763472109 0.1928760007 0.1627926921)
5(-0.02729527586 0.1449378568 0.2309650449 0.2109511553 0.1451126136)
5(0.09641961594 0.2342971281 0.2502481011 0.1956563724 0.1250388455)
5(0.1900270069 0.2574461305 0.228001267 0.1585769622 0.09772241297)
5(0.216256686 0.2315485077 0.1760826791 0.120939818 0.07373509699)
5(0.1841621759 0.1662044703 0.1241029355 0.08568840127 0.06333558458)
5(0.1294511073 0.1058320995 0.08330290976 0.06623226715 0.04856437701)
5(0.06886814123 0.05942640611 0.05729095491 0.05060015563 0.04155319969)
5(0.03772663245 0.04459379912 0.04525357117 0.04288719593 0.03648317562)
5(0.02220653351 0.03203542621 0.03650512387 0.03477065212 0.02857575292)
5(0.01984540469 0.02749682857 0.02991544693 0.02645092104 0.02218839553)
5(0.01806045687 0.0219094606 0.0204818201 0.0194938611 0.01617683205)
5(0.01393490384 0.01503626997 0.01199816616 0.01037821722 0.01041788253)
5(-0.01527035466 0.007070584114 0.005193740695 0.005807800728 0.003284563796)
5(-0.002133767445 -5.870961134e-05 0.0007076428572 0.000857738677 0.0004144710097)
)


60
(
5(-0.002739228099 0.0403367138 -0.02728788689 -0.04258255936 -0.05778713324)
5(3.391339582 4.273628412 6.617243798 5.208586131 -2.455882633)
5(2.628498938 2.956524736 3.87468538 2.093121879 -0.5326556804)
5(1.868086962 1.532951241 1.340966213 -0.7812279586 -2.489335147)
5(0.9715492748 0.118358762 -0.9111090482 -3.259514292 -5.210588793)
5(0.1398706242 -1.231777915 -2.890126817 -4.989365775 -5.792725983)
5(-0.6939596071 -2.351080114 -4.287452871 -5.786821714 -5.803355941)
5(-1.359651274 -3.268743298 -5.096035833 -6.000261045 -5.495506021)
5(-2.140043406 -3.956024569 -5.467370227 -5.691044732 -3.892555968)
5(-2.687463635 -4.309244319 -5.308727636 -4.90794919 -2.700114299)
5(-3.050128976 -4.421023341 -5.078864141 -3.767546229 -0.9360011785)
5(-3.331025317 -4.199200055 -4.255954744 -2.315258273 0.07479291718)
5(-3.282155533 -3.769949817 -3.141417786 -1.037583549 1.628325883)
5(-3.353085132 -3.107581264 -2.077634491 0.1506390055 2.777818043)
5(-2.873709125 -2.153699352 -0.8478505741 1.301052901 3.363534316)
5(-2.479871021 -1.5703565 0.06585609056 2.331283726 3.89226668)
5(-1.504173499 -0.5884309438 1.083718199 2.962699134 4.361038443)
5(-1.372474662 0.5349195022 2.174888409 3.593049729 4.182542767)
5(0.07932912339 1.164697207 2.65444706 3.896097375 4.443102638)
5(0.1747973038 1.795227799 3.296035774 4.122034156 4.218206945)
5(0.7569786983 2.578462786 3.51837675 4.031157423 3.893420646)
5(1.900776666 2.733767306 3.693297308 4.079997889 3.828421197)
5(2.353696421 3.071878474 3.711542628 3.876857592 3.493377579)
5(2.110125073 3.257360944 3.887670934 3.674754679 3.369430231)
5(2.693370087 3.393607571 3.627771268 3.463508865 2.832675534)
5(2.774673487 3.257197392 3.48111949 3.259127588 2.763202006)
5(2.887717425 3.191618938 3.313321737 3.031605525 2.576116196)
5(2.799992542 3.080358062 3.125188906 2.803226453 2.174879094)
5(2.785055924 2.92127689 2.922401493 2.583007175 2.20040675)
5(2.71589057 2.76498887 2.70029228 2.349079351 1.774172673)
5(2.589550293 2.626081803 2.479654457 2.136564657 1.745967558)
5(2.416452703 2.415025484 2.340488768 1.923357319 1.45542551)
5(2.302048131 2.243813218 2.033947057 1.731751352 1.308542952)
5(2.12572277 2.049281431 1.832339336 1.510098639 1.100138085)
5(1.908334536 1.80140249 1.611819862 1.293131357 0.9924787927)
5(1.746005802 1.574581642 1.384495486 1.075764557 0.7684559837)
5(1.56418857 1.342712128 1.130807199 0.8630804667 0.5765330183)
5(1.258714212 1.054879132 0.8696806211 0.6503876841 0.5050063374)
5(0.9650254051 0.7887819844 0.6110601528 0.4395590552 0.259030958)
5(0.6951441716 0.5091103544 0.356150453 0.2541803338 0.2382870944)
5(0.3905658217 0.2320318351 0.1469029961 0.1087354969 0.08173264281)
5(0.1373963376 -0.00250122731 -0.01530952896 0.01402924463 0.04230395103)
5(-0.1305935183 -0.1696891889 -0.114819232 -0.0187318906 0.05481858342)
5(-0.2796747208 -0.2544103142 -0.1332569784 2.19718777e-06 0.07723660572)
5(-0.3993774887 -0.2558960902 -0.07501798547 0.06150635389 0.1327179705)
5(-0.3737898535 -0.1753601823 0.02853117477 0.1413761459 0.1639033992)
5(-0.2792673518 -0.03333807126 0.1403188117 0.2050745037 0.1769165662)
5(-0.1514449522 0.08796777832 0.2134208529 0.233682293 0.1901896207)
5(0.03305990413 0.1864197174 0.2430136256 0.2168157623 0.1402587205)
5(0.1104081935 0.215679095 0.2235822948 0.1767475471 0.1164119811)
5(0.1451716522 0.1866350219 0.1601406571 0.1195283178 0.08446771427)
5(0.1307358247 0.1187455284 0.09821179883 0.08376792086 0.0611094987)
5(0.06788331297 0.06048359597 0.05760092438 0.05602545013 0.04814235295)
5(0.01691274353 0.02575395494 0.03679212421 0.0427163572 0.04275325676)
5(-0.01333854011 0.009915201692 0.02734640171 0.03605151077 0.03421156638)
5(-0.01342180772 0.01220985038 0.02384879268 0.02674136559 0.02603728491)
5(-0.007815205272 0.01155109851 0.01984496122 0.0221613101 0.01929835322)
5(-0.00339577032 0.008525159545 0.01241037998 0.01227096354 0.01261548106)
5(-0.01798405277 0.001862642457 0.004776683864 0.009596492154 0.005632197505)
5(-0.006552386178 -0.004568151659 -0.001924454724 -0.0008458729156 -6.429978954e-05)
)


60
(
5(0.03251670679 -0.13481853 -0.00121060847 0.0003027503727 -0.05583506593)
5(3.623399809 5.632978577 7.153416121 4.080010289 -9.381562567)
5(3.275274934 3.592480986 3.940411412 0.5708193789 -3.837318677)
5(2.191326978 1.463794155 0.3848612949 -2.795670491 -5.894344029)
5(1.02400034 -0.6835129564 -2.564108201 -5.637257627 -7.487883758)
5(-0.3104722856 -2.488629515 -5.078802244 -7.305274168 -7.786798751)
5(-1.577388189 -4.011003914 -6.493204867 -7.924918156 -6.302454372)
5(-2.602284431 -4.90331497 -6.933774031 -7.322563552 -5.511721145)
5(-3.41480689 -5.742006165 -7.29939868 -6.311364039 -2.664128212)
5(-4.218602413 -5.996316124 -6.603598765 -4.958568237 -1.710179535)
5(-4.40539233 -5.715243904 -5.688457448 -3.072742704 1.408919106)
5(-4.49726399 -5.195018538 -4.194659736 -1.318953704 2.535407912)
5(-4.557736153 -4.176279168 -2.887603392 0.6464285132 4.355588966)
5(-3.697061676 -3.201143425 -1.030264338 2.095579629 5.091524965)
5(-3.33887967 -1.841454034 0.2866305572 3.384891848 6.002059564)
5(-2.823208529 -0.8499568376 1.800384488 4.456807435 6.3236584)
5(-1.253595142 0.4136583718 2.90953494 5.179267557 6.619475059)
5(-0.697570431 1.635896495 3.780597093 5.774128353 6.319972787)
5(0.4393060841 2.415113154 4.509962343 5.786735981 6.203119164)
5(1.320479365 3.300137849 5.018243866 5.823423372 5.861754252)
5(2.138890738 3.860202739 5.151465622 5.786287748 5.484013971)
5(2.500439931 4.201919273 5.307994651 5.533722003 5.183872792)
5(3.273099744 4.416725565 5.253472691 5.238540262 4.663709084)
5(3.509293986 4.5338463 5.098969923 4.994892503 4.333230437)
5(3.871243634 4.465574928 4.864990294 4.626997286 3.995128828)
5(3.753126474 4.53401099 4.658922822 4.314515744 3.669454077)
5(3.806517091 4.227747542 4.335092388 3.987054463 3.314848142)
5(3.873790721 4.066614743 4.09814634 3.695113737 2.989896873)
5(3.55147119 3.877099946 3.822092083 3.388526187 2.772720909)
5(3.629109206 3.654484311 3.513891854 3.058019124 2.50954823)
5(3.345532417 3.36083269 3.213754177 2.835203389 2.19017179)
5(3.114494492 3.16539547 2.995462003 2.545543899 2.117900244)
5(2.981401945 2.936080603 2.729445227 2.295470325 1.688833867)
5(2.734381875 2.645689273 2.427698837 2.0118081 1.547935869)
5(2.566995772 2.417513385 2.158093454 1.750736676 1.330019067)
5(2.31559245 2.132710765 1.863689055 1.486289605 1.103966423)
5(2.034568315 1.833553113 1.550349596 1.224671671 0.8791126186)
5(1.829898919 1.530134388 1.244316806 0.9448526678 0.6246940691)
5(1.447291499 1.172278388 0.9113295266 0.6588463501 0.474167631)
5(1.112584049 0.8253352366 0.6009137735 0.4026909137 0.2467234613)
5(0.7076612154 0.4698459407 0.2849512849 0.1696602401 0.09494050871)
5(0.3537948492 0.1514708525 0.02922570294 -0.00196169942 0.05278568754)
5(0.01810802618 -0.1177601415 -0.1573299874 -0.1039277886 -0.04415445587)
5(-0.2437306845 -0.3173648617 -0.2543139429 -0.1345434523 -0.01193903426)
5(-0.4149495023 -0.3981702236 -0.253380336 -0.08580008523 0.02888232948)
5(-0.5596210685 -0.3866162231 -0.1722490117 0.006809218701 0.1126640672)
5(-0.5028731155 -0.2845673788 -0.0429268026 0.115551599 0.16913762)
5(-0.41228744 -0.1316988457 0.09739169641 0.1967583678 0.1967115847)
5(-0.2396378928 0.01886083396 0.1785564067 0.2301050627 0.1887875277)
5(-0.07766448101 0.1239011662 0.2165846932 0.2058742829 0.1582953208)
5(0.0392639898 0.1631346516 0.1808445323 0.1588176559 0.112961778)
5(0.09796389132 0.1345430037 0.1133507742 0.1005776709 0.06533250376)
5(0.06291128359 0.06486348648 0.05390060757 0.05260832411 0.05908881361)
5(0.02223834495 0.01054314191 0.01878215993 0.03439807115 0.03437252696)
5(-0.03143858151 -0.01863459818 0.006216561139 0.02411357248 0.03045626975)
5(-0.05395607911 -0.02277788491 0.004366881479 0.01971264057 0.02465121477)
5(-0.05148960008 -0.0158522558 0.008665041717 0.01658871264 0.01793053362)
5(-0.04029976842 -0.009154340328 0.005664039186 0.01042004676 0.01248863958)
5(-0.04505176632 -0.009460540491 0.0008802481517 0.008780357218 0.00544116163)
5(-0.02994772687 -0.01326226081 -0.002014461347 0.002009334515 0.001663152939)
)


60
(
5(-0.06080763313 0.09672411644 -0.1275163395 -0.09063907501 -0.1105726378)
5(4.05721973 6.753297493 7.094731138 1.458877282 -16.47224126)
5(4.41708561 4.154553989 3.228945557 -1.817783505 -9.901170564)
5(2.447908869 1.106289244 -0.8162424968 -5.370112443 -8.257262537)
5(0.6161775025 -1.645689416 -4.715989052 -8.345868214 -9.231239026)
5(-1.111317739 -4.07179572 -7.351693825 -9.19153826 -9.805521085)
5(-2.540848645 -5.85963932 -8.66529138 -9.511994507 -5.33270722)
5(-4.031815409 -6.949718067 -8.959167413 -8.377369922 -5.128880303)
5(-4.866402552 -7.377732677 -8.642141581 -6.404306437 -1.389484824)
5(-5.762848715 -7.430189154 -7.363564146 -4.378896697 1.109586544)
5(-5.550284862 -6.759495172 -5.692314451 -1.804706145 3.919984699)
5(-5.985489854 -5.885524119 -3.898748587 0.4162971667 5.157729469)
5(-5.151512902 -4.288153397 -1.757215718 2.688488402 7.49147783)
5(-4.664883524 -3.030976821 0.1521644883 4.481616599 7.853562958)
5(-3.244533429 -1.276965776 2.127906946 5.943517135 9.249485359)
5(-2.354877128 0.2637975319 3.636139236 6.783843546 8.591829385)
5(-1.224405808 1.600633593 4.825374919 7.609885648 9.290282967)
5(0.3525304182 3.081594607 5.894581282 7.91378559 8.537546808)
5(1.015756159 4.039817236 6.490329997 8.030699815 8.363074013)
5(2.552783902 4.743598683 6.872282188 7.876885334 7.61742524)
5(3.400671151 5.426678979 7.05831234 7.584077187 6.989151761)
5(3.767649835 5.756600776 6.968427487 7.179565941 6.757250229)
5(4.371012603 5.910103733 6.808502168 6.808856871 6.099768309)
5(4.938129628 5.907805673 6.566818919 6.348005935 5.601434876)
5(4.770048028 5.835955291 6.190733011 5.856339027 4.929070731)
5(5.02980422 5.493506455 5.771264308 5.460629299 4.693376844)
5(4.798320837 5.43750605 5.526549224 5.044122432 4.264188332)
5(4.851996443 5.103458507 5.076184365 4.652337479 3.852069625)
5(4.54251482 4.823133056 4.754546327 4.281769391 3.543531033)
5(4.443682583 4.518296568 4.425790576 3.940295271 3.184667038)
5(4.149335172 4.270490115 4.069760197 3.538255816 2.843672606)
5(3.955190883 3.956437622 3.751903771 3.277211079 2.635756987)
5(3.688700297 3.663026438 3.34733064 2.951396734 2.448176898)
5(3.510721815 3.376413301 3.101775878 2.625425589 1.848032205)
5(3.117353353 3.092005709 2.781206354 2.308298724 1.801667857)
5(2.904239055 2.784181231 2.451496007 1.994460504 1.520360561)
5(2.736632765 2.434933239 2.088917198 1.655335365 1.21885099)
5(2.322181406 2.044545563 1.691657599 1.329699166 0.9172650998)
5(2.044604164 1.677989581 1.33258877 0.9754153804 0.688310881)
5(1.576645203 1.279567937 0.9348931033 0.6401214874 0.3922756885)
5(1.167900091 0.8459540146 0.5485663198 0.3261269808 0.2018667205)
5(0.7737636588 0.4364359796 0.1912409397 0.06602617414 0.006865852124)
5(0.2861083184 0.06757940621 -0.09280028909 -0.1200461512 -0.07745872567)
5(-0.0676649172 -0.2469541323 -0.3004133118 -0.2346137482 -0.1301872614)
5(-0.3575450199 -0.4470832169 -0.3824009966 -0.24340091 -0.07139408029)
5(-0.6198702591 -0.5345924106 -0.3669182327 -0.1700922424 -0.01310783163)
5(-0.6010421516 -0.5099119771 -0.2547495137 -0.04499951576 0.09320767451)
5(-0.6577911434 -0.3936073522 -0.1156710749 0.0839174633 0.1634496014)
5(-0.5176947347 -0.2202759306 0.04861394041 0.1725093578 0.1953929718)
5(-0.3093151634 -0.04307142237 0.1435380055 0.2069826323 0.1788321535)
5(-0.1783908722 0.06632345141 0.1637254964 0.1721405655 0.1435900098)
5(-0.01658414537 0.1104000099 0.1284905175 0.1188350993 0.0879625852)
5(0.04997298416 0.08442374077 0.0609618285 0.05745482929 0.05051286577)
5(0.0215110751 0.01867599059 0.003669042784 0.01660183941 0.02672891263)
5(-0.005210538073 -0.03003740635 -0.02409119401 0.003314644336 0.01917506382)
5(-0.06868842293 -0.06171668595 -0.02814519716 0.002301801636 0.01450164667)
5(-0.09269286774 -0.05717274347 -0.01800995616 0.003474143954 0.01201447335)
5(-0.09183861635 -0.04787706979 -0.01171564289 0.003310268736 0.008263466605)
5(-0.08597673432 -0.03566658364 -0.01133682552 0.002529163757 0.00398607908)
5(-0.07122461532 -0.04903238107 -0.01588924073 -0.001558303245 0.003369321243)
)


60
(
5(-0.5895971401 -0.5034692643 0.03428974299 0.1744303971 0.02517525643)
5(4.357738613 7.95046785 6.607295596 -2.842664208 -23.26242282)
5(4.997903177 4.165986845 1.872335886 -5.269085192 -14.69092213)
5(2.588427115 0.5073009425 -2.947033377 -8.49303022 -14.22454117)
5(0.2226811083 -2.960227447 -6.414785047 -10.48751679 -10.23441968)
5(-2.166773094 -5.835460276 -9.706201829 -11.34610739 -10.03324043)
5(-3.829494255 -7.787060674 -10.89280035 -10.811799 -5.741012841)
5(-5.506577914 -8.897961625 -10.64985476 -8.695110699 -3.170889223)
5(-6.573074234 -8.854668345 -9.629978981 -6.081512887 0.3693819536)
5(-7.030156764 -8.69224923 -7.880194844 -3.018929877 4.497857302)
5(-6.957001792 -7.4654466 -5.333414582 -0.2066295611 7.022652821)
5(-7.026400895 -6.289720058 -3.058113011 2.683140443 9.251738158)
5(-6.065753823 -4.373490849 -0.2802705849 5.251583765 9.91110678)
5(-4.669151081 -2.473756856 1.853029549 7.112316309 12.03620018)
5(-3.316005965 -0.1531584215 4.098567489 8.694157948 11.44378578)
5(-1.901936704 1.466376544 5.690920821 9.646097867 12.15524014)
5(-0.2231402304 3.141124062 7.187223395 10.17265787 11.67569103)
5(0.6250527138 4.554327229 8.088356962 10.31140841 11.30757369)
5(3.087706604 5.818853721 8.742533078 10.36677442 10.16631841)
5(3.314868346 6.599321672 8.959916768 10.04198053 10.00065944)
5(4.447017942 6.882000586 8.940509304 9.56695237 8.900063272)
5(5.572918155 7.433436614 8.816967582 9.045027649 8.066314791)
5(5.550527711 7.533167265 8.467549144 8.365319304 7.696684142)
5(5.955136928 7.273786099 8.081819303 7.878681378 6.845798944)
5(6.37268386 7.161873365 7.66902389 7.296722914 6.51135915)
5(5.977357825 6.928395362 7.184723226 6.698891229 5.530773521)
5(6.034387537 6.585094386 6.713724279 6.162913558 5.324154673)
5(5.818694696 6.242885941 6.154604673 5.733601224 4.912095489)
5(5.078824165 5.861206591 5.778956854 5.262389756 4.298994662)
5(5.568469033 5.500633716 5.370129857 4.78547413 4.139210936)
5(5.101079957 5.15101662 4.984808058 4.426883755 3.695843124)
5(4.716434049 4.805544543 4.585676518 4.052247518 3.027378857)
5(4.391981183 4.409127879 4.190139952 3.68542049 3.140233833)
5(4.234182959 4.095087993 3.855423789 3.316932228 2.645508595)
5(3.990476316 3.823837092 3.461393645 2.933070138 2.239804725)
5(3.63337274 3.466115184 3.07491371 2.588626681 1.988676134)
5(3.265699969 3.098724741 2.704447934 2.194552933 1.62740434)
5(3.066767913 2.718727705 2.290517475 1.815582921 1.338038459)
5(2.598963619 2.282967412 1.853002797 1.411895015 0.9759299983)
5(2.295498652 1.830305316 1.392081491 1.007083462 0.6609766258)
5(1.728147588 1.327496492 0.9383447056 0.6119064686 0.3497090232)
5(1.227437721 0.8355095448 0.4977226596 0.2519563629 0.1117280898)
5(0.7740849369 0.3805984613 0.0851630325 -0.04613891377 -0.08425560224)
5(0.2441239812 -0.04204348393 -0.2231379875 -0.2406483785 -0.1995113115)
5(-0.155665303 -0.3739890922 -0.4275273993 -0.3458703932 -0.1946048292)
5(-0.4732639631 -0.583529818 -0.5017632509 -0.3419970577 -0.1617767061)
5(-0.708298705 -0.6251347955 -0.4640838622 -0.2390594237 -0.03564892686)
5(-0.7603659823 -0.6149925761 -0.3416202586 -0.09463798078 0.04598931041)
5(-0.7636432792 -0.4884857014 -0.1700327145 0.04625341434 0.1587462353)
5(-0.5628979695 -0.2879970173 -0.007207934834 0.1344732435 0.1772558615)
5(-0.4111775143 -0.1107624146 0.09150022316 0.1636431315 0.1539630592)
5(-0.2409360773 0.01684513024 0.1224422635 0.1366467672 0.1084792044)
5(-0.08782753144 0.05921310572 0.08143123861 0.05722210764 0.0505417181)
5(0.005119680553 0.04919164573 0.007730267101 0.0132305961 0.01696221399)
5(0.01205328735 -0.00631328766 -0.03654230374 -0.02275168774 7.782150566e-05)
5(-0.007624671869 -0.06469759259 -0.06171754135 -0.02877064385 -0.001811425463)
5(-0.06800262117 -0.0952184298 -0.06119480679 -0.02269067012 -0.00249729762)
5(-0.1090891527 -0.09996091346 -0.04658239523 -0.01656021413 -0.0007509296059)
5(-0.1213067525 -0.08315186186 -0.03846120103 -0.01091747041 0.0002754900725)
5(-0.1423480246 -0.09090951532 -0.06042584398 -0.02540414785 -0.01138851875)
)


60
(