/*--------------------------------*- C++ -*----------------------------------*\
| =========                 |                                                 |
| \\      /  F ield         | OpenFOAM: The Open Source CFD Toolbox           |
|  \\    /   O peration     | Version:  2.3.1                                 |
|   \\  /    A nd           | Web:      www.OpenFOAM.org                      |
|    \\/     M anipulation  |                                                 |
\*---------------------------------------------------------------------------*/
FoamFile
{
    version     2.0;
    format      ascii;
    class       dictionary;
    location    "constant";
    object      la_i20;
}
// * * * * * * * * * * * * * * * * * * * * * * * * * * * * * * * * * * * * * //

la_i20_table
60
(

60
(
5(-0.1588996442 -0.8349445883 -0.8215267732 -0.001590316586 0.05439391159)
5(-0.1887475405 -0.4945461167 -0.6662491252 -0.001368757587 0.07370995876)
5(-0.1381775856 -0.5453766267 -0.6543849869 -0.001519404649 0.001302522743)
5(-0.03917952743 -0.5159833351 -0.7371263156 -0.001026172148 0.02022772578)
5(-0.08573731091 -0.5569880991 -0.7562383634 -0.001171606721 0.03818688613)
5(-0.1245426625 -0.5906950813 -0.5825864842 -0.00123340487 0.01843825518)
5(-0.1317322125 -0.5685489857 -0.5664895354 -0.001077375674 0.02187842675)
5(-0.1152593615 -0.553833597 -0.6022781276 -0.001150124438 0.0166316112)
5(-0.1288223458 -0.5670698039 -0.5978127691 -0.001160501899 0.01533054705)
5(-0.1316991933 -0.5726150029 -0.6236084958 -0.001149427443 0.01763619669)
5(-0.1354676029 -0.5763975664 -0.6289753121 -0.001146996378 0.01866785398)
5(-0.1306453112 -0.5705305554 -0.6099397247 -0.001141075061 0.01748358419)
5(-0.1212986619 -0.5650354705 -0.5971297817 -0.001154733134 0.01743073314)
5(-0.1229791652 -0.5664957492 -0.5999013579 -0.001128873705 0.01690191753)
5(-0.1205565145 -0.5592216774 -0.5910409916 -0.001125771469 0.01639249815)
5(-0.1211245972 -0.560476982 -0.5916765659 -0.001124415024 0.01601088693)
5(-0.1211177905 -0.5576694997 -0.589381246 -0.001109994906 0.01576587373)
5(-0.1202822429 -0.5525508625 -0.5836872443 -0.001104008784 0.0155442576)
5(-0.1189897624 -0.5462135991 -0.578379381 -0.001084092589 0.01506885216)
5(-0.1188225502 -0.5450263657 -0.5757800842 -0.001084578671 0.01447004483)
5(-0.118007831 -0.5380827862 -0.5665001631 -0.001075044594 0.01394081932)
5(-0.1172087182 -0.5299887532 -0.5640315657 -0.001021583511 0.01201451609)
5(-0.1169876055 -0.5239739538 -0.5537590996 -0.001000111711 0.01117118552)
5(-0.1151239873 -0.5194854162 -0.5449990256 -0.0009736159008 0.00999868207)
5(-0.1142104055 -0.5114168191 -0.5346742905 -0.000942769361 0.008733827564)
5(-0.112791218 -0.5005467491 -0.5263722548 -0.000916409254 0.007220434375)
5(-0.1114467436 -0.4878290848 -0.5080166309 -0.0008753957465 0.005320492207)
5(-0.1091739116 -0.4715894224 -0.4930597989 -0.0008273272445 0.003057806597)
5(-0.1074692553 -0.4566142107 -0.4725940904 -0.0007634471445 0.0004956093575)
5(-0.1045314075 -0.4392616096 -0.4492067165 -0.0006798739936 -0.00267433807)
5(-0.1014836184 -0.4175446812 -0.4240809381 -0.0006074426741 -0.005482730614)
5(-0.09754714374 -0.3903508836 -0.3911472805 -0.0005128796018 -0.0102823879)
5(-0.09239081916 -0.358473076 -0.3547812706 -0.0003952959249 -0.01407681901)
5(-0.08653672242 -0.3221153554 -0.315817708 -0.0002846221078 -0.01878046301)
5(-0.07974399879 -0.2785388249 -0.2650034915 -0.0001504229331 -0.02432883599)
5(-0.07101664765 -0.2301744825 -0.2174093298 -1.475716283e-05 -0.02980734259)
5(-0.06178505462 -0.1750956032 -0.1495668386 0.0001569396607 -0.03455856306)
5(-0.0500670317 -0.1148683054 -0.08145548586 0.0002933704397 -0.04125761208)
5(-0.03751697149 -0.04721166527 -0.01346936198 0.0004808385141 -0.04475354638)
5(-0.02382090299 0.02402856259 0.0554674615 0.0005779934343 -0.05128518098)
5(-0.00885214194 0.0957531231 0.1300087707 0.0007481725621 -0.05723163829)
5(0.007410464686 0.1669729613 0.1942232736 0.0009358481109 -0.06122639763)
5(0.02323047998 0.2354615825 0.2492434365 0.001085615775 -0.06407953686)
5(0.03928506927 0.2990996875 0.2991873195 0.001157282007 -0.06558170411)
5(0.0534454427 0.3491066869 0.3477930782 0.001207327786 -0.06647235442)
5(0.06658039233 0.387589981 0.3845011216 0.001237697518 -0.06689037106)
5(0.0764779161 0.4145488152 0.4065337264 0.00125449928 -0.06708024091)
5(0.08375470506 0.4354816944 0.4148931832 0.00126099607 -0.06713547956)
5(0.08867948378 0.4474319725 0.4185458813 0.001263298671 -0.06715139373)
5(0.09115968259 0.4526376615 0.4199701489 0.001263954069 -0.06715434903)
5(0.09319566369 0.4540792036 0.4203627949 0.001264083641 -0.06715475778)
5(0.09378101649 0.4546081604 0.4204451339 0.001264102573 -0.06715479337)
5(0.09389574732 0.4547165802 0.4204576244 0.001264104426 -0.06715479537)
5(0.09392432477 0.4547333068 0.4204589756 0.001264104545 -0.06715479544)
5(0.0939283584 0.4547348054 0.4204590494 0.00126410455 -0.06715479544)
5(0.09392869423 0.4547348911 0.4204590516 0.00126410455 -0.06715479544)
5(0.0939287052 0.4547348927 0.4204590517 0.00126410455 -0.06715479544)
5(0.09392870536 0.4547348927 0.4204590517 0.00126410455 -0.06715479544)
5(0.09392870536 0.4547348927 0.4204590517 0.00126410455 -0.06715479544)
5(-7.419854509e-16 -1.498894421e-16 2.569572375e-29 1.168087484e-20 -2.798523135e-23)
)


60
(
5(3.528459928e-05 -7.26416867e-06 1.330761944e-18 0.0038717331 -2.875857982e-06)
5(-3.613121494 -0.7850076734 12.07393365 -13.57253119 -40.06272323)
5(-1.344551023 -2.593146847 24.46553942 9.68916622 -8.108758249)
5(-2.062108194 -0.9605818733 4.771335215 10.2502672 -0.4182156829)
5(-1.72962635 2.785664075 23.23137707 4.363207528 -1.177142226)
5(-0.4398759681 1.61742192 10.71754086 1.52172913 0.5414341878)
5(0.2200690151 1.181206069 -6.744468561 -0.1424481394 0.8452086764)
5(-0.4742111435 0.53711999 -0.7430048916 0.4674399775 0.0836725012)
5(-0.4390836895 -2.186007692 -2.621717711 -2.530058863 -0.8647923881)
5(-0.4840462236 -0.1541242532 0.03151836289 1.141324497 -1.489000334)
5(-0.4166875733 1.553269416 0.7101055535 0.8476759508 -0.9852796211)
5(-0.54516002 -0.09163846343 3.02413803 0.4920377267 -0.3663895673)
5(-0.2727044989 0.7635578536 1.068090311 -0.9738438808 -0.4304988059)
5(-0.5612923034 1.132500016 0.9409201126 2.067492595 -0.792801535)
5(-0.5523033523 -0.07699196123 -0.2462978827 -0.1985121266 -0.7129511443)
5(-0.486806093 1.072191179 0.4436824422 -0.3639205438 -0.8472701309)
5(-0.5694576403 0.8291895097 1.343777376 1.27578818 -0.8469388747)
5(-0.7327468371 1.941347242 1.054212896 0.1055999191 -1.131259607)
5(-0.7543835254 0.3790983496 0.9584815867 0.2089518911 -1.067161299)
5(-0.755183046 1.209107817 0.5267230108 0.9320248937 -0.9103411871)
5(-0.8549957904 1.455127055 1.650137945 0.375787966 -1.383903236)
5(-1.206553384 1.608190357 0.746790746 0.976088735 -1.838870664)
5(-1.526053188 -0.09856734334 0.1619908552 -0.03124889753 -2.114504822)
5(-1.838568377 1.113237989 1.443396606 -1.726409694 -2.706358062)
5(-2.199066632 -0.04164182935 -2.39761658 -2.020243665 -3.457858278)
5(-2.740367329 1.31523716 0.3601060185 -2.642569196 -3.707655406)
5(-3.442447012 -1.324217178 -1.253401647 -2.713213409 -4.857289852)
5(-4.4144066 -1.1890254 -2.997425099 -3.492138131 -5.701520044)
5(-5.55308569 -2.212776874 -2.769625199 -4.447214368 -6.565182132)
5(-6.732738291 -4.154125103 -5.254282456 -5.685101509 -6.751638186)
5(-8.009950889 -4.540108107 -4.391757034 -5.997304902 -7.400884802)
5(-9.219225701 -4.47259608 -6.85233754 -6.255931508 -6.782309448)
5(-10.4919177 -5.990234043 -6.206918861 -6.586471552 -6.078997705)
5(-11.67671495 -6.820520132 -7.282814107 -4.95954963 -4.048580914)
5(-11.80356876 -4.812073699 -4.964549683 -3.258378525 -1.283621985)
5(-10.90001954 -2.702351072 -0.8190258327 0.7734748874 2.575073703)
5(-8.473153261 -0.1809594748 3.135750381 4.288851978 7.113450215)
5(-4.119169285 7.618466964 9.225555703 11.82900404 12.71147189)
5(2.33413167 11.42376238 15.75970281 17.15673873 17.61254294)
5(12.72300862 24.04005784 26.26649693 23.83366096 20.60969259)
5(23.86746297 31.75394467 31.78394253 28.35794995 21.05702559)
5(35.70305057 40.99604444 39.8761718 30.46434462 19.42940673)
5(47.78464373 47.2793229 41.324501 29.47538302 15.94040501)
5(57.4666731 48.9230582 40.67968009 24.46405391 11.54676746)
5(61.97614965 48.1021668 35.17936048 18.39160821 7.22055009)
5(59.47062728 40.4778241 26.00343224 11.36058024 3.839644996)
5(51.64872802 31.7693786 17.32494132 5.796429859 1.74509582)
5(39.47244342 20.89280377 9.533500465 2.432649943 0.669267726)
5(26.568132 11.62869548 4.231865421 0.7757423513 0.2156000929)
5(15.09184119 5.372652163 1.368415717 0.1862090492 0.05832195637)
5(7.321571854 1.866550595 0.3592806274 0.0274521926 0.01224754449)
5(2.811210555 0.4712736667 0.05676847255 0.002857984167 0.001499268144)
5(0.9338788848 0.07904133979 0.005918505382 0.0001982935544 -0.0001260407863)
5(0.2494592663 0.008628523068 0.0004276287235 1.557675734e-05 -8.716090943e-05)
5(0.06088843807 0.0003990115643 1.279567516e-05 1.282083591e-06 -1.826034217e-05)
5(0.01004379318 9.173698301e-06 3.523655678e-07 7.654521721e-08 -1.800571375e-06)
5(0.0009501439498 -1.143605942e-07 1.484708134e-08 2.439124817e-09 -7.763043433e-08)
5(0.0002986743681 1.71321477e-09 3.92419606e-10 3.994982537e-11 -1.829758371e-06)
5(6.357677521e-09 1.848177613e-11 -3.895282252e-11 -2.490994286e-12 4.237139564e-16)
5(1.755531294e-08 2.259222159e-13 9.05342016e-16 2.118032678e-17 -2.535181685e-08)
)


60
(
5(-0.006894754838 -0.3299575985 -0.3153849533 -0.6664330093 -0.622760824)
5(-0.5149166564 7.612176502 -30.06429239 -18.02094286 -13.80347035)
5(-0.883175498 -0.8242961545 5.566581263 1.190403313 1.862136908)
5(0.3365359341 -3.66557632 4.479807993 1.975832268 -0.01331486293)
5(0.153458446 -1.597228553 6.793287653 3.808685344 0.6649684103)
5(-0.2303329957 1.831803112 6.249980923 2.996458329 -0.9091009135)
5(-0.1591033587 -0.6886317892 0.6492051428 0.8516074071 -0.442156151)
5(0.01623629479 -0.5487037635 -1.609334652 -1.366772852 -0.1528987376)
5(-0.03267347151 -0.7522679074 -2.033636155 -1.67448528 -1.811163793)
5(-0.08361934539 -0.8296061601 -2.106121212 -1.322180635 0.4342366346)
5(-0.2180691827 -0.2262243466 0.1284739914 -0.3317304604 -0.7567167372)
5(-0.02843563213 -0.937580329 -0.473077522 -0.7566623844 -1.064215375)
5(-0.1702449262 -0.5123356952 -0.1698799494 -0.9246981204 -1.024652785)
5(-0.331164633 -0.7828143113 -1.421203861 -0.9344595939 -1.511658686)
5(-0.416550356 -1.265153126 -0.7508810709 -1.567233187 -0.9780687261)
5(-0.2871441772 -0.8185581683 -2.000501408 -1.845533967 -2.013495929)
5(-0.3315265534 -1.724642122 -0.7857238389 -1.664412524 -0.9309231507)
5(-0.8199472736 -1.52176232 -2.525330764 -1.935820361 -2.592514266)
5(-0.7694123451 -1.746423572 -1.547690921 -2.614234587 -2.28848818)
5(-0.9588076506 -2.282342943 -2.995699429 -2.957517921 -3.360005429)
5(-1.597819712 -3.200731596 -2.930572566 -3.624076536 -3.634746679)
5(-1.469001814 -3.692822901 -4.293418358 -4.910368733 -4.075557724)
5(-2.747281423 -4.465389573 -4.848411266 -5.247381851 -5.818880187)
5(-2.876506682 -5.402061584 -6.356101922 -6.883142393 -6.734795538)
5(-4.264559677 -7.086715939 -7.82986505 -9.604906051 -8.038541185)
5(-5.320110295 -8.380493318 -9.356622873 -8.764393242 -10.8487949)
5(-6.889392561 -10.45818426 -10.68930306 -12.72979007 -10.10249492)
5(-7.986462686 -12.57704377 -13.93224724 -13.64881711 -15.66398677)
5(-11.07187933 -14.58147129 -16.81685986 -17.08979958 -15.58254787)
5(-12.14599024 -17.76646107 -17.73244993 -18.0864021 -15.15743548)
5(-15.43489246 -20.57898529 -20.74107151 -20.82835851 -19.76729186)
5(-18.17447595 -21.80755323 -22.6056832 -21.84477372 -16.76068666)
5(-20.31382406 -23.67774867 -24.78562499 -19.52941054 -20.41986514)
5(-21.98030754 -25.93333075 -23.67435247 -20.49940275 -13.25077676)
5(-24.98267223 -24.70624748 -20.95275656 -17.4840431 -13.32190304)
5(-26.16148602 -21.99747089 -17.89363272 -10.57106338 -5.557025253)
5(-16.36799766 -18.2094232 -9.265889323 -1.524301134 4.84601897)
5(-22.10863564 -10.60859531 2.391286109 10.38356501 15.22387258)
5(-7.053207644 3.952509842 12.83545448 23.75569324 23.63556458)
5(3.363105055 21.66311404 32.3244724 38.81777138 38.89002914)
5(15.16083861 35.31871028 51.1448673 53.43534545 42.96249934)
5(39.28390674 57.24126627 66.08309039 63.27717918 50.19560487)
5(55.71742253 74.1653171 77.7902246 65.96470666 46.66929734)
5(74.4737922 86.60279561 84.34572101 65.98256462 40.00924205)
5(86.47676605 91.17841316 82.56145839 55.90082265 30.44649544)
5(95.93323744 88.49718019 69.39369361 41.61893737 20.57420845)
5(90.05337207 76.48741 54.15428204 28.17081717 11.06443924)
5(78.92529142 59.44550529 35.24361661 15.85713826 5.304808924)
5(60.61221829 39.08820938 20.20186598 7.052977139 1.913639503)
5(40.95733725 22.26386032 9.176143242 2.837781589 0.5507005385)
5(23.03574711 10.35739065 3.392642186 0.7729528635 0.1195828835)
5(11.02537755 3.794884228 0.9682616665 0.1740244496 0.01666346466)
5(3.854108818 1.012302307 0.1853955673 0.02540274079 0.002021517901)
5(0.962495607 0.184821786 0.02524381901 0.002706579609 0.000166058182)
5(0.1402783632 0.0214128908 0.0019085814 0.0001650294904 9.802636526e-06)
5(0.01317558714 0.00145198719 9.631857219e-05 8.610755154e-06 4.137015843e-07)
5(0.0006700137559 5.878457229e-05 2.706042983e-06 2.871442672e-07 1.04560075e-08)
5(2.080973927e-05 1.479772754e-06 4.553645592e-08 5.69357999e-09 6.861955622e-11)
5(-3.280144249e-07 -9.118088015e-07 -1.268459565e-06 -5.084436685e-09 -3.274426453e-09)
5(3.277583431e-08 1.19891206e-06 2.247156979e-06 1.562483772e-07 -1.022867118e-09)
)


60
(
5(-1.060598205 0.06957760985 -0.9671841225 -1.104496854 -0.9284217122)
5(0.5704340376 14.36181705 -28.06284017 -15.54730784 -0.5216648976)
5(1.119644309 -0.5019144954 1.462092199 -0.4120890282 2.827871076)
5(0.01979905952 -5.530669807 4.103425336 1.398643392 0.6478562295)
5(0.06561860265 -2.596063972 6.14519531 2.869030602 -0.6328970932)
5(-0.1884551461 1.559504165 6.280989224 3.98735642 -1.011156905)
5(-0.1803482472 -0.1697552293 1.23633639 0.4893992396 -1.098924783)
5(-0.3033647641 -0.5346025857 -1.556905343 -1.710902013 -1.063881896)
5(-0.2095177828 -1.144323101 -3.018008359 -2.461807903 -1.935810846)
5(-0.2080518249 -0.5890065491 -1.808275235 -1.541085814 -1.176868847)
5(-0.6361713351 -0.9461629433 -1.073913024 -1.375482171 -2.331603703)
5(-0.5283171777 -0.6557370688 -0.7784581215 -1.613197658 -2.482902856)
5(-0.4088063397 -1.06020198 -0.7747525131 -1.679615542 -1.742209007)
5(-0.9790561236 -1.254299581 -1.645964161 -2.006313058 -3.910821785)
5(-1.039817583 -1.485514762 -2.066107544 -2.786809982 -2.526333323)
5(-1.320716948 -1.979859788 -2.501677927 -3.226475265 -3.985367383)
5(-0.9279540325 -2.134043619 -2.898315545 -3.168990839 -3.851219835)
5(-2.467664882 -2.222773117 -2.878666287 -4.274570069 -4.565180918)
5(-1.274403203 -2.990609235 -3.604253463 -4.149234647 -5.592283673)
5(-3.02079194 -3.928502796 -4.481262071 -5.279950584 -5.810025027)
5(-4.130080699 -3.885049148 -4.981364415 -6.436350901 -7.924545472)
5(-3.378822905 -5.769645285 -7.261791068 -7.94908977 -7.435445836)
5(-3.395277022 -7.155744438 -8.132207116 -9.431579345 -11.18952381)
5(-7.753672206 -8.218013553 -8.986600026 -11.95725675 -13.27628289)
5(-7.391617925 -9.332780241 -12.30447255 -13.9411049 -14.32573564)
5(-9.990775842 -12.69836392 -15.27932159 -17.04407761 -17.52666229)
5(-11.57617489 -16.0731793 -17.12316407 -18.97952009 -20.92120572)
5(-14.97651127 -18.8658859 -21.41112186 -23.16750305 -21.26292455)
5(-17.44434884 -21.86058084 -25.20581825 -26.50672643 -29.89238618)
5(-21.22587124 -25.69981993 -28.51733541 -30.17433008 -28.49946238)
5(-25.62253567 -30.22624289 -33.07359553 -33.27861542 -32.62050235)
5(-29.59016103 -33.62564903 -34.4520606 -37.3300027 -32.9041654)
5(-33.17431948 -38.50024508 -39.4552632 -34.16270853 -32.76506512)
5(-38.35875193 -40.23853295 -41.05256701 -38.49541778 -33.87064397)
5(-39.05648982 -42.13957898 -38.60350443 -35.35936056 -23.0433147)
5(-43.06886257 -38.80186674 -37.07044685 -26.24351543 -21.41525722)
5(-44.65088023 -38.52600846 -24.94487132 -17.27826999 -5.628547718)
5(-36.85082893 -27.14188511 -17.00003379 -1.280435988 10.07629395)
5(-30.87921922 -14.82118343 0.5851282516 19.49601417 28.86099056)
5(-20.54883573 0.03629222413 27.15317476 41.61181308 46.47756605)
5(2.631332987 27.57247048 50.70612477 64.02901166 63.17188632)
5(19.08024348 54.00136051 76.73492658 86.89904032 83.39745993)
5(49.37667548 81.57470378 102.9894432 102.3217633 81.39405119)
5(72.32132686 103.8698106 120.2682007 107.6693525 79.38579047)
5(101.7646768 122.2776501 123.936457 103.9459287 70.15452917)
5(116.878285 130.6240895 118.6850124 88.35168791 55.20215807)
5(123.8435077 117.7820781 103.7609001 65.80496485 35.92046163)
5(118.2600593 105.0673283 74.76435994 45.64347432 21.2327247)
5(104.067321 81.33540518 49.91939979 25.64918604 9.753203261)
5(80.67798631 53.37763536 29.7611041 12.74909603 3.908647437)
5(54.49578676 29.97208122 13.05055832 4.573601865 1.211291101)
5(31.42338682 14.55905209 4.779791057 1.466601842 0.2880031778)
5(15.71308539 5.063660909 1.33531425 0.3083819099 0.04354873972)
5(5.710710316 1.361351096 0.264847271 0.04816525532 0.005448463353)
5(1.454656915 0.2486509257 0.03330527526 0.00517466113 0.0004574575882)
5(0.2687122186 0.02933044333 0.002443692006 0.0003318541095 2.414659775e-05)
5(0.03372988036 0.002122858721 0.0001211012898 1.340138856e-05 6.562684774e-07)
5(0.002575731132 0.000115094939 3.325092914e-06 3.537063704e-07 1.168445584e-08)
5(0.0001071531515 5.07933025e-06 6.646969439e-06 -5.500849759e-07 1.924024753e-08)
5(9.515816531e-06 -8.197720013e-06 -1.971573491e-05 2.912522237e-08 2.657378593e-09)
)


60
(
5(-1.603844078 -4.718057833 -1.198230635 -0.8807113095 -1.307327285)
5(1.957553611 20.65664622 -24.89973344 -13.54774539 3.205845414)
5(0.529756251 -0.03401892757 -0.9398530898 -1.175898186 1.073963665)
5(0.1303914087 -7.592402652 3.198118049 0.8104068681 -0.3336731863)
5(-0.1049702266 -4.070892565 5.813611509 2.271391683 -0.9249769691)
5(-0.4731168838 1.546831276 5.532503565 3.471059714 -1.731416909)
5(-0.1585751655 -0.6183010336 0.9027597009 -0.4569480397 -2.221930325)
5(-0.432783741 -0.9525046627 -1.740426343 -1.996183462 -2.127811107)
5(-0.6102342803 -1.424778276 -3.697333389 -3.41524446 -2.717251776)
5(-0.4478476314 -1.298519279 -2.717739386 -2.842246637 -3.508489587)
5(-1.032210522 -1.357826704 -1.890767465 -2.739845009 -3.310719653)
5(-0.7644280552 -1.538509719 -1.723502774 -2.664260247 -4.019766695)
5(-1.981750302 -1.636251722 -2.147838841 -3.260805992 -4.473924204)
5(-0.08459685335 -2.228555985 -2.95236682 -4.001475112 -4.949313014)
5(-2.030329867 -2.366121565 -3.433521531 -4.824734005 -5.378017695)
5(-2.954267835 -3.259635371 -3.802404215 -4.902823831 -6.625646611)
5(-2.006160077 -3.66747754 -4.521460251 -5.683233499 -6.148684084)
5(-3.129385862 -3.941135712 -5.457779891 -6.643172443 -8.479456105)
5(-3.665288107 -5.279148315 -6.399686068 -7.646616139 -8.209299302)
5(-3.995749715 -5.46719767 -7.280420877 -8.935465959 -10.33131659)
5(-5.328230644 -6.861900286 -8.513381542 -9.376631912 -10.97362795)
5(-6.439058382 -8.56943931 -9.43924959 -12.41414435 -12.88799292)
5(-7.820265962 -10.70431403 -12.18458177 -13.84736202 -18.03907785)
5(-8.895508781 -12.61474219 -15.08198399 -17.44151242 -15.47511931)
5(-10.73469836 -14.94542278 -17.95061254 -20.09317172 -23.372838)
5(-14.45339709 -14.37277363 -20.71498035 -24.62364245 -26.65632901)
5(-17.46021855 -22.85326963 -23.70108709 -27.19207142 -28.03499744)
5(-20.99564992 -25.41531944 -29.48933329 -33.38411733 -34.87239602)
5(-22.44998585 -30.59302944 -35.11281749 -36.8324248 -37.47655411)
5(-30.45147712 -35.7591858 -40.69569184 -42.77264358 -43.48241162)
5(-34.25054274 -39.25188429 -44.1423623 -48.4103321 -49.23493782)
5(-39.26613899 -47.36073754 -51.84911683 -51.27804014 -46.08823257)
5(-46.72694166 -53.71943893 -56.38850283 -53.65016353 -53.4847231)
5(-53.18633736 -57.97240028 -56.26952644 -55.44311473 -49.83275637)
5(-57.96371442 -61.68948728 -61.25977085 -54.02571842 -45.78533748)
5(-60.95376689 -59.71070667 -59.82906638 -49.01209102 -39.92080265)
5(-61.72828749 -60.20024864 -50.57584717 -40.92672099 -25.68540031)
5(-65.07611005 -56.28109133 -39.15899104 -21.23751107 -5.095201869)
5(-56.77331151 -39.66603721 -18.08769886 2.427879407 19.45638173)
5(-47.39384339 -23.8407834 2.689501452 27.97649162 42.77720329)
5(-29.62054737 3.059730897 35.91421762 62.51962429 77.75637729)
5(-6.192761172 31.6545824 71.03685889 94.26174587 98.69557012)
5(24.13574474 65.8580467 106.2217059 122.3241449 117.7748086)
5(53.86906366 103.9128947 136.3291268 144.232375 126.5789999)
5(85.3046459 129.7961917 155.8508323 148.0532865 117.3495976)
5(116.2535952 152.0226861 162.7822407 144.1830667 100.344488)
5(136.5250746 158.894852 152.3534719 114.6520412 78.35968222)
5(149.7607719 149.6887778 129.0890141 91.83673485 53.13908262)
5(140.6151651 129.3747998 96.31436535 61.81974061 31.11809699)
5(125.5775581 98.38575627 63.18151194 34.31739267 15.32011931)
5(101.5129185 65.55177084 35.37812766 16.85371277 5.933188849)
5(70.54939034 40.46934564 16.41702687 6.355464086 1.767342451)
5(41.55357835 18.34917757 5.864346076 1.979857381 0.4764582878)
5(21.6928787 6.846300427 1.624746523 0.4199710225 0.06753178515)
5(9.285724208 2.047734153 0.3042302186 0.0631292866 0.009008367901)
5(2.579075935 0.402250242 0.0383782099 0.005796983314 0.0006556525208)
5(0.6657187827 0.05809963921 0.002962768517 0.0003460962763 2.380547693e-05)
5(0.1057093834 0.006290122489 0.0001705899125 1.26524978e-05 4.692276543e-07)
5(0.0128137251 0.0001954610592 7.663116513e-06 1.486179399e-07 2.781252456e-09)
5(0.006516433585 0.001127591633 2.385430172e-05 7.919103402e-07 4.746829907e-08)
)


60
(
5(-6.357394271 -1.807965656 -4.270457109 -3.038491328 -2.727188235)
5(-0.8176696699 26.89303183 -21.30801976 -11.10888999 -1.344460541)
5(-0.006807171198 0.6863221519 -2.135831932 -2.005594065 -0.4032797271)
5(-0.06268000026 -9.563060205 2.762549345 0.01786877143 -0.9206141378)
5(-0.1504754172 -5.917577539 4.853511772 1.311183566 -1.808055025)
5(-0.252182771 1.272597007 4.554094255 2.840079137 -2.799548365)
5(-0.6877233095 -0.8854000321 0.4147238578 -0.9928928436 -2.853872694)
5(-0.5077178463 -1.470417315 -2.418740322 -3.390237042 -3.647144298)
5(-0.8697942439 -1.858535236 -4.550051204 -4.602857062 -4.686435008)
5(-1.036356726 -2.277529744 -3.644894714 -4.424005833 -4.963924657)
5(-1.032659795 -1.868474065 -3.012523595 -4.250907085 -6.293374606)
5(-1.97212174 -2.591519095 -2.881345789 -4.402019388 -5.76400011)
5(-1.374521017 -2.576232376 -3.283866132 -5.181543997 -7.111976352)
5(-3.035417211 -3.463722548 -4.691475713 -6.076003446 -7.17876982)
5(-1.794568356 -3.595884077 -5.407224718 -6.461387285 -8.103422641)
5(-3.227918956 -4.279559778 -5.934614304 -7.572310282 -8.996073288)
5(-4.408986191 -5.700720292 -6.576574985 -8.668725732 -9.108901369)
5(-3.337738905 -5.661775578 -7.661073871 -9.885248733 -12.42348516)
5(-6.141447035 -7.040534734 -9.208586286 -10.3329214 -10.62409154)
5(-6.083973283 -8.522957021 -9.973475282 -12.17944452 -15.28350506)
5(-5.498886959 -8.871367033 -11.27549363 -14.24428987 -16.11899529)
5(-11.09604926 -11.58459327 -14.98957464 -16.24501468 -17.67484745)
5(-9.486047275 -14.01533667 -15.96082107 -20.16012102 -22.12935251)
5(-11.74434435 -15.62907303 -19.07474103 -22.77396003 -26.49846675)
5(-15.73687376 -20.17482835 -24.37923278 -25.77429514 -25.70142073)
5(-18.66771313 -23.44480721 -26.39589232 -31.77745729 -34.82728582)
5(-20.39970234 -26.76158672 -32.38116502 -36.83921682 -38.89689719)
5(-26.49702595 -31.29392378 -37.31661956 -42.51617849 -45.83007238)
5(-31.87364586 -38.63537024 -45.35649547 -48.67164331 -49.00018398)
5(-38.45226461 -45.30116803 -51.07397267 -56.55759963 -58.60780082)
5(-41.80340375 -51.22726148 -58.58293528 -62.11406956 -61.71966327)
5(-50.27434521 -59.39878926 -65.11423455 -69.66100154 -67.6876296)
5(-57.18983734 -64.73819792 -72.50599912 -74.1236787 -73.38817697)
5(-67.14188595 -75.12939465 -77.64729257 -77.37110689 -71.48996175)
5(-73.56990049 -81.88808713 -82.17149524 -79.85393509 -66.9934406)
5(-77.92018367 -84.23500884 -84.90076842 -76.14174294 -62.24049656)
5(-88.3743708 -86.81683008 -80.15692569 -65.53715368 -51.77060182)
5(-86.45020337 -79.71817161 -71.19649416 -54.43616524 -32.50059591)
5(-89.2916893 -71.57337349 -54.81993244 -30.16154709 -2.769202619)
5(-78.10987337 -60.06131133 -26.37900524 2.709991635 39.9977816)
5(-65.45422911 -32.31700649 3.01902479 43.94884169 52.33522174)
5(-45.66668884 -1.921258618 47.69201074 81.14939435 117.1957071)
5(-14.71606405 32.29769812 84.7986452 120.1645181 130.0606439)
5(17.77234305 78.44812346 131.7028521 160.4446468 166.1761958)
5(55.32275625 116.3499104 163.0496387 181.7087535 160.3774686)
5(102.0655251 149.9887864 187.9289837 187.8060965 156.2634317)
5(111.4530376 174.5510249 192.719625 177.4336959 137.9548292)
5(156.4725474 184.6397365 181.0564615 144.845129 98.11789605)
5(170.9849837 176.1717619 148.5794795 109.6141297 67.93677455)
5(150.6201484 147.6545819 114.467176 75.858456 39.94906386)
5(150.3277806 120.9877938 75.15281096 42.12615636 19.43677476)
5(120.8572693 77.54563246 42.85306052 19.89725143 7.300135534)
5(93.10501947 50.89134109 19.35378858 7.803758482 2.348073397)
5(55.06240373 25.03705638 7.524863224 2.150011528 0.5086728791)
5(34.31473722 10.47840201 2.082457838 0.4785786835 0.08616682398)
5(13.90496206 3.461500156 0.4252063036 0.06779479337 0.00862481053)
5(5.53390698 0.8221293682 0.05666037235 0.006133280525 0.0005596066142)
5(1.653839257 0.1524960051 0.005889931405 0.0003875002468 1.580261086e-05)
5(0.4890206183 0.009319170853 -0.0001964733866 8.166013902e-06 3.920254746e-09)
5(0.4098890409 0.07827071669 0.00207244024 1.026190624e-05 -2.66216038e-07)
)


60
(
5(-22.57147036 -16.17655859 -3.983027251 -0.4652218988 -1.341048717)
5(0.3284744081 32.84815984 -18.20257583 -8.409323617 -2.254379892)
5(-0.4683716722 1.988847138 -2.714308168 -2.499194277 -1.144669582)
5(-0.07947738422 -11.51930635 1.783696061 -1.018931613 -2.48043874)
5(-0.02788009066 -7.865444246 4.633925805 0.3524633114 -2.619820937)
5(-0.5130676571 0.6153287158 3.204332245 1.422717502 -4.618539134)
5(-1.132642919 -1.494739505 -0.1772990186 -1.981149737 -4.023618239)
5(-0.05685672736 -1.996023052 -3.300853001 -4.341762278 -5.779374696)
5(-2.543036112 -2.228947448 -5.344341796 -6.091361231 -6.770275288)
5(-0.4119009859 -2.81819033 -5.223027309 -6.048934024 -6.388416017)
5(-2.528357018 -2.749339668 -4.104348412 -5.98836845 -8.061034944)
5(-1.343023578 -3.659577949 -4.688517534 -6.47047153 -8.839001601)
5(-3.284942864 -3.580731763 -4.658134774 -7.359619185 -9.068379081)
5(-3.161347047 -5.259079692 -6.474725596 -8.468390463 -11.38188405)
5(-3.535104877 -4.85920619 -7.053070548 -8.933330003 -10.98160743)
5(-4.656150568 -6.524261661 -8.525745855 -10.60901275 -11.91712914)
5(-3.897676502 -6.976041224 -8.612182417 -11.35450768 -13.25623429)
5(-8.01965669 -8.218572539 -10.57289828 -13.04964689 -13.69133764)
5(-4.412804607 -9.118694669 -11.38085683 -13.60770039 -17.60738994)
5(-9.952227069 -10.21482969 -13.30383032 -16.56670943 -15.61297714)
5(-9.064205669 -12.97556461 -16.20319988 -17.58309892 -23.21757243)
5(-8.877853231 -14.13275276 -17.38117438 -21.2617462 -21.98517895)
5(-17.52854358 -17.30332091 -20.8948738 -24.29304266 -27.95619396)
5(-12.58095518 -20.16530384 -24.69386483 -28.86691701 -31.19612624)
5(-18.10156055 -21.71144083 -27.95691572 -34.37239251 -37.74875137)
5(-25.67779691 -28.96771331 -34.9679125 -37.57633699 -42.61925135)
5(-25.93709633 -33.90515454 -41.01789739 -42.49665801 -44.60088581)
5(-28.44142786 -38.32386182 -42.24356809 -53.19608626 -57.00117065)
5(-38.37370674 -45.36494691 -54.26012503 -61.40878109 -60.68118448)
5(-44.95373981 -55.2247437 -62.83064141 -63.17179722 -77.12670456)
5(-52.88003685 -61.26312269 -70.38872776 -77.29656094 -74.23759911)
5(-58.38165423 -69.58674583 -79.28711403 -86.40938344 -84.86371823)
5(-71.33222291 -79.99682623 -90.61856531 -92.92873416 -93.89654961)
5(-80.41507419 -89.2679065 -98.90393688 -98.85447237 -100.1101024)
5(-90.87250206 -98.3600493 -100.6040568 -104.1201281 -90.99383264)
5(-99.67586419 -107.9233378 -108.57271 -104.9260593 -95.65851558)
5(-105.4822225 -110.0556105 -109.5618113 -94.54672328 -75.04816635)
5(-115.445456 -114.7582071 -102.353216 -83.76507535 -61.90237746)
5(-113.9308358 -107.6139167 -89.9923114 -67.603181 -40.09739044)
5(-117.7897819 -95.96113921 -66.97403084 -38.38623132 5.439337573)
5(-103.29822 -74.34212725 -37.66390198 6.170228715 48.74223372)
5(-87.11273354 -43.07789988 1.287581175 49.15458052 84.21942738)
5(-65.99880392 -9.872725585 56.74801283 102.8912411 144.0405362)
5(-28.80311639 35.45963438 103.9915686 147.5000521 170.1768391)
5(10.19811598 83.28910364 152.0899988 188.9726555 202.9402108)
5(53.43899545 131.7297505 189.2211203 218.0236889 204.040942)
5(100.0510699 157.5403754 211.8308485 220.7037174 197.7552366)
5(128.4700051 193.0808371 222.1586895 200.9021391 155.8477862)
5(167.7016467 208.9914487 205.7446241 176.3009073 121.5797218)
5(173.4354871 190.1669649 170.9020136 129.3005805 83.45314928)
5(173.2444666 172.9077692 129.8940637 86.66647795 46.36858063)
5(157.3337013 137.1015333 88.45197757 48.70671693 23.47737752)
5(139.90061 100.7320061 49.33221756 24.17621149 8.142940417)
5(106.8122403 62.67800603 26.16637716 9.040304698 2.713044422)
5(72.035834 34.36355611 10.43125364 2.723391564 0.5470336121)
5(49.89951337 16.3654995 3.04134653 0.6017825102 0.08563127816)
5(25.28197689 6.315016238 0.7304639048 0.09082716068 0.008485692612)
5(11.67228904 2.005861701 0.127634493 0.009773968485 0.0004400881205)
5(6.283310079 0.4500001251 0.009429090933 0.0001785571498 -0.0001844188264)
5(5.612278893 1.130410041 0.02517838843 0.0009971143317 3.42692078e-06)
)


60
(
5(-81.24420004 -28.83590913 -14.44130004 -11.81662627 -7.801173855)
5(2.366659018 38.93884868 -14.89606468 -6.136346321 -3.720001779)
5(-0.06057099334 2.905612094 -2.63552609 -2.589786136 -2.081655012)