/*--------------------------------*- C++ -*----------------------------------*\
| =========                 |                                                 |
| \\      /  F ield         | OpenFOAM: The Open Source CFD Toolbox           |
|  \\    /   O peration     | Version:  2.3.1                                 |
|   \\  /    A nd           | Web:      www.OpenFOAM.org                      |
|    \\/     M anipulation  |                                                 |
\*---------------------------------------------------------------------------*/
FoamFile
{
    version     2.0;
    format      ascii;
    class       dictionary;
    location    "constant";
    object      la_i21;
}
// * * * * * * * * * * * * * * * * * * * * * * * * * * * * * * * * * * * * * //

la_i21_table
60
(

60
(
5(-0.4418500531 -3.001615827 -2.485433872 -0.009153957629 0.03730781798)
5(-0.4418500479 -3.001615821 -2.485433858 -0.009153957624 0.03730781788)
5(-0.4418500438 -3.001615821 -2.485433856 -0.009153957623 0.03730781767)
5(-0.441850043 -3.001615821 -2.485433857 -0.009153957621 0.0373078177)
5(-0.4418500434 -3.001615822 -2.485433857 -0.009153957621 0.03730781775)
5(-0.4418500442 -3.001615822 -2.485433856 -0.009153957622 0.0373078177)
5(-0.4418500446 -3.001615822 -2.485433856 -0.009153957621 0.0373078177)
5(-0.4418500442 -3.001615821 -2.485433856 -0.009153957621 0.03730781768)
5(-0.4418500443 -3.001615821 -2.485433856 -0.00915395762 0.03730781766)
5(-0.4418500442 -3.001615821 -2.485433855 -0.00915395762 0.03730781766)
5(-0.4418500442 -3.001615821 -2.485433855 -0.00915395762 0.03730781765)
5(-0.4418500441 -3.001615821 -2.485433855 -0.009153957619 0.03730781764)
5(-0.4418500439 -3.00161582 -2.485433855 -0.009153957619 0.03730781763)
5(-0.4418500439 -3.00161582 -2.485433854 -0.009153957618 0.03730781762)
5(-0.4418500438 -3.00161582 -2.485433854 -0.009153957618 0.03730781761)
5(-0.4418500437 -3.001615819 -2.485433854 -0.009153957618 0.0373078176)
5(-0.4418500436 -3.001615819 -2.485433854 -0.009153957617 0.0373078176)
5(-0.4418500435 -3.001615819 -2.485433853 -0.009153957617 0.03730781759)
5(-0.4418500433 -3.001615818 -2.485433853 -0.009153957617 0.03730781759)
5(-0.4418500432 -3.001615818 -2.485433853 -0.009153957617 0.03730781758)
5(-0.4418500431 -3.001615818 -2.485433853 -0.009153957616 0.03730781758)
5(-0.441850043 -3.001615818 -2.485433853 -0.009153957616 0.03730781758)
5(-0.4418500429 -3.001615817 -2.485433853 -0.009153957616 0.03730781757)
5(-0.4418500428 -3.001615817 -2.485433853 -0.009153957616 0.03730781757)
5(-0.4418500427 -3.001615817 -2.485433853 -0.009153957616 0.03730781757)
5(-0.4418500427 -3.001615817 -2.485433852 -0.009153957616 0.03730781757)
5(-0.4418500426 -3.001615817 -2.485433852 -0.009153957616 0.03730781757)
5(-0.4418500425 -3.001615817 -2.485433852 -0.009153957616 0.03730781757)
5(-0.4418500425 -3.001615817 -2.485433852 -0.009153957616 0.03730781757)
5(-0.4418500425 -3.001615817 -2.485433852 -0.009153957616 0.03730781757)
5(-0.4418500424 -3.001615817 -2.485433852 -0.009153957616 0.03730781757)
5(-0.4418500424 -3.001615817 -2.485433852 -0.009153957616 0.03730781757)
5(-0.4418500424 -3.001615817 -2.485433852 -0.009153957616 0.03730781758)
5(-0.4418500424 -3.001615817 -2.485433852 -0.009153957616 0.03730781758)
5(-0.4418500424 -3.001615817 -2.485433852 -0.009153957616 0.03730781758)
5(-0.4418500424 -3.001615817 -2.485433852 -0.009153957616 0.03730781758)
5(-0.4418500424 -3.001615817 -2.485433853 -0.009153957616 0.03730781759)
5(-0.4418500424 -3.001615817 -2.485433853 -0.009153957616 0.03730781759)
5(-0.4418500424 -3.001615817 -2.485433853 -0.009153957616 0.03730781759)
5(-0.4418500424 -3.001615817 -2.485433853 -0.009153957616 0.03730781758)
5(-0.4418500424 -3.001615817 -2.485433853 -0.009153957616 0.03730781758)
5(-0.4418500424 -3.001615817 -2.485433853 -0.009153957616 0.03730781758)
5(-0.4418500424 -3.001615817 -2.485433853 -0.009153957616 0.03730781757)
5(-0.4418500424 -3.001615817 -2.485433852 -0.009153957616 0.03730781757)
5(-0.4418500424 -3.001615817 -2.485433852 -0.009153957616 0.03730781757)
5(-0.4418500424 -3.001615817 -2.485433852 -0.009153957616 0.03730781757)
5(-0.4418500424 -3.001615817 -2.485433852 -0.009153957616 0.03730781757)
5(-0.4418500424 -3.001615817 -2.485433852 -0.009153957616 0.03730781757)
5(-0.4418500424 -3.001615817 -2.485433852 -0.009153957616 0.03730781757)
5(-0.4418500424 -3.001615817 -2.485433852 -0.009153957616 0.03730781757)
5(-0.4418500424 -3.001615817 -2.485433852 -0.009153957616 0.03730781757)
5(-0.4418500424 -3.001615817 -2.485433852 -0.009153957616 0.03730781757)
5(-0.4418500424 -3.001615817 -2.485433852 -0.009153957616 0.03730781757)
5(-0.4418500424 -3.001615817 -2.485433852 -0.009153957616 0.03730781757)
5(-0.4418500424 -3.001615817 -2.485433852 -0.009153957616 0.03730781757)
5(-0.4418500424 -3.001615817 -2.485433852 -0.009153957616 0.03730781757)
5(-0.4418500424 -3.001615817 -2.485433852 -0.009153957616 0.03730781757)
5(-0.4418500424 -3.001615817 -2.485433852 -0.009153957616 0.03730781757)
5(-0.4418500424 -3.001615816 -2.485433852 -0.009153957616 0.03730781757)
5(-2.973952803e-29 -5.669455945e-30 9.103023777e-43 2.066906854e-31 -4.910032085e-34)
)


60
(
5(1.791816593e-12 -1.019282071e-14 2.449939841e-26 1.520020722e-11 -2.454081283e-16)
5(-5.125893614e-07 -7.777710919e-08 3.378087689e-07 -1.676295161e-07 -1.485468336e-07)
5(1.731052653e-06 -7.164434148e-08 2.389618975e-07 1.354634517e-08 -4.46249499e-10)
5(1.587856289e-06 -4.711181534e-08 -2.33565593e-08 1.798988187e-08 2.307851803e-08)
5(8.105947208e-07 -4.710600969e-08 2.42840822e-07 1.794965855e-08 -8.734813498e-09)
5(2.238725896e-07 -1.28548492e-07 2.20240567e-07 -1.074678243e-07 -1.801399447e-08)
5(4.108913626e-08 9.741653886e-08 -2.956823469e-07 -9.190480983e-09 -2.278752513e-08)
5(-7.759578673e-09 1.438933175e-07 4.164844843e-08 3.294210369e-08 -1.334257882e-08)
5(4.299314515e-07 -2.1011932e-07 -3.900498693e-08 -3.473250626e-08 -2.40185619e-09)
5(6.341147077e-07 -4.670758023e-08 3.306776363e-08 2.096295257e-08 6.188198966e-09)
5(6.709239738e-07 2.14102923e-07 6.56579722e-09 3.333616361e-08 1.479912993e-08)
5(6.27708215e-07 4.784610339e-08 1.267679333e-07 3.595306594e-08 2.366908036e-08)
5(8.434794843e-07 2.181737546e-07 1.092824992e-07 3.469036519e-08 3.065279096e-08)
5(7.015437221e-07 2.252770573e-07 1.294443148e-07 8.640935061e-08 3.6356689e-08)
5(8.513036792e-07 1.41734771e-07 1.004405623e-07 7.242999851e-08 4.107820979e-08)
5(1.059932896e-06 2.654051842e-07 1.381861457e-07 7.272107717e-08 4.292047968e-08)
5(1.195809308e-06 2.760217018e-07 1.86159872e-07 9.266715843e-08 4.349177277e-08)
5(1.248438127e-06 3.794158825e-07 1.846014828e-07 8.389592861e-08 4.157467988e-08)
5(1.216617625e-06 3.012213038e-07 1.89869664e-07 8.335854706e-08 3.891536226e-08)
5(1.400725432e-06 3.366363912e-07 1.7193044e-07 8.147971481e-08 3.653886648e-08)
5(1.472276989e-06 3.529561513e-07 1.830226528e-07 7.188508476e-08 3.174460051e-08)
5(1.507120226e-06 3.789214773e-07 1.727379872e-07 7.071621573e-08 2.715061357e-08)
5(1.448070533e-06 3.167429858e-07 1.518437951e-07 6.145069335e-08 2.258148213e-08)
5(1.326792626e-06 3.510158347e-07 1.535234336e-07 4.962881705e-08 1.846599871e-08)
5(1.362072546e-06 2.944166056e-07 1.173928243e-07 4.261566804e-08 1.464590272e-08)
5(1.324014078e-06 2.862046136e-07 1.149151225e-07 3.550716701e-08 1.183269542e-08)
5(1.22859429e-06 2.371628757e-07 9.309032604e-08 2.994472346e-08 9.852122426e-09)
5(9.751017604e-07 2.133747969e-07 7.363706229e-08 2.413633135e-08 8.7338029e-09)
5(7.792996191e-07 1.819270726e-07 6.194946225e-08 2.062570163e-08 8.496255672e-09)
5(5.64906044e-07 1.46213015e-07 4.940977871e-08 1.907090708e-08 8.964712779e-09)
5(3.348645304e-07 1.202174094e-07 4.263567226e-08 1.821772974e-08 9.648440185e-09)
5(1.66048474e-07 9.692052279e-08 3.562220278e-08 1.831786593e-08 9.564274969e-09)
5(-4.863867677e-08 7.855515243e-08 3.190276121e-08 1.702482815e-08 7.537444539e-09)
5(-2.069064324e-07 6.322334946e-08 2.665067075e-08 1.22230711e-08 2.770953363e-09)
5(-3.125933691e-07 4.675928932e-08 1.696433222e-08 2.981035875e-09 -5.641648811e-09)
5(-3.923011166e-07 2.744459907e-08 8.205463342e-10 -1.047356694e-08 -1.713031392e-08)
5(-3.83560467e-07 2.592706909e-11 -2.1756383e-08 -3.220506811e-08 -2.90002359e-08)
5(-3.767000517e-07 -3.44743089e-08 -5.229944582e-08 -5.194154142e-08 -3.665330336e-08)
5(-3.994639001e-07 -7.197713983e-08 -7.930915682e-08 -6.285777687e-08 -3.59014778e-08)
5(-3.720487643e-07 -1.018679522e-07 -9.312793578e-08 -6.17346279e-08 -2.593549655e-08)
5(-3.406889338e-07 -1.156156317e-07 -8.662602858e-08 -4.230291902e-08 -1.093341003e-08)
5(-2.760146724e-07 -9.633778451e-08 -5.416332233e-08 -1.331647993e-08 2.801541858e-09)
5(-1.939676504e-07 -5.550066255e-08 -1.236065836e-08 1.448792113e-08 1.066752792e-08)
5(-1.072624599e-07 -4.425991771e-10 2.831422005e-08 2.822769969e-08 1.145401525e-08)
5(-1.761517704e-08 4.441168519e-08 4.761283618e-08 2.672460862e-08 7.9790592e-09)
5(4.559399173e-08 6.231997764e-08 4.377314116e-08 1.638270537e-08 4.110863253e-09)
5(7.170170101e-08 5.565418478e-08 2.840198211e-08 6.922203553e-09 1.688186089e-09)
5(6.476445636e-08 3.473039827e-08 1.288955803e-08 2.075500451e-09 5.693844645e-10)
5(4.201416632e-08 1.559890756e-08 4.03846708e-09 4.102812645e-10 1.595182459e-10)
5(2.004399581e-08 4.98098955e-09 8.139467945e-10 5.083606313e-11 3.563047788e-11)
5(7.283394571e-09 1.021817169e-09 1.12503073e-10 3.236803243e-12 5.340823759e-12)
5(1.881885305e-09 1.30061676e-10 8.083661452e-12 1.189022764e-13 3.193920069e-13)
5(4.075934749e-10 9.337912222e-12 3.305482654e-13 5.159829062e-15 -4.46086352e-14)
5(6.928031107e-11 3.564576547e-13 1.036125987e-14 1.360175094e-15 -9.40137623e-15)
5(9.793977894e-12 -5.306819161e-13 2.92036242e-16 2.37478844e-13 -8.83488281e-16)
5(7.686992829e-13 -5.532360348e-11 1.996072666e-14 5.586819293e-11 -1.506498753e-15)
5(-1.708564251e-13 -4.108191089e-09 -1.356745667e-12 1.169783074e-08 -4.015797909e-13)
5(0.06397675301 1.539618766e-07 3.46456709e-12 1.961465544e-06 0.01515847634)
5(1.560864178e-10 -6.753730057e-07 -1.66871205e-08 -5.593679824e-07 -2.436127685e-11)
5(0.0001154702807 1.907017465e-11 5.654597526e-14 1.819594716e-11 -0.0003380477706)
)


60
(
5(0.0001154685716 -1.416242317e-08 -1.136808804e-08 -8.168229258e-09 -0.0003380497195)
5(4.775584748e-07 4.881254703e-07 -8.027548537e-07 -3.792793021e-07 -3.502442936e-07)
5(1.046896534e-06 -1.058825374e-07 1.099195684e-07 -1.012231458e-07 -5.843703044e-08)
5(-2.791940321e-06 -4.269949316e-07 -3.62273572e-07 -1.145268326e-07 -1.322380328e-07)
5(-4.331166107e-07 -2.730066287e-07 1.964119976e-07 6.207157528e-09 -3.244391414e-08)
5(4.572811316e-07 3.019152921e-07 2.703163247e-07 -1.270563149e-07 -3.853378542e-08)
5(1.171084928e-06 -3.945995573e-07 -6.616633281e-09 -4.451868517e-09 -2.013185829e-08)
5(-2.174860928e-06 -7.614325608e-09 -1.561266751e-07 -4.589954188e-08 -1.363242205e-08)
5(1.680530265e-06 3.18020308e-07 1.817717697e-07 1.299381937e-08 -7.673734272e-08)
5(1.889859133e-06 3.651160872e-07 -1.741425483e-07 5.069476754e-08 4.65391161e-08)
5(-3.889590477e-08 9.465336548e-07 4.812771702e-07 1.548416872e-07 3.681286628e-08)
5(-7.452531149e-07 3.27067924e-07 4.343787947e-07 1.953041396e-07 6.482953335e-08)
5(4.635053275e-06 1.29984148e-06 6.627216699e-07 2.637303096e-07 9.587917826e-08)
5(2.093691746e-06 1.74768077e-06 6.418687786e-07 3.530895997e-07 1.085515605e-07)
5(6.300674014e-06 1.691390805e-06 1.038661666e-06 3.586883601e-07 1.518959366e-07)
5(1.8193868e-07 2.30076261e-06 8.992227767e-07 3.987726152e-07 1.388669744e-07)
5(7.346152738e-06 2.016915287e-06 1.227341251e-06 4.657059491e-07 1.749521154e-07)
5(6.014388212e-06 2.522038016e-06 1.032089397e-06 4.664965024e-07 1.462108481e-07)
5(6.126191238e-06 2.733290831e-06 1.289048216e-06 4.5631326e-07 1.546621197e-07)
5(1.044830577e-05 2.846373957e-06 1.219673383e-06 4.483029798e-07 1.458470724e-07)
5(3.536436778e-06 2.849886667e-06 1.239217008e-06 4.096385844e-07 1.425231549e-07)
5(1.230414183e-05 3.01766266e-06 1.135319524e-06 3.885168683e-07 1.235395971e-07)
5(8.690339967e-06 2.885953814e-06 1.114585472e-06 3.703737116e-07 1.078876962e-07)
5(1.279331946e-05 2.832417218e-06 1.023528693e-06 3.16606079e-07 9.714900325e-08)
5(9.155043367e-06 2.656511394e-06 9.368014684e-07 2.63012059e-07 8.081262901e-08)
5(1.203300354e-05 2.502702067e-06 7.899197845e-07 2.359570143e-07 6.472983124e-08)
5(1.242772985e-05 2.16206948e-06 6.856852675e-07 1.849854803e-07 5.716388027e-08)
5(9.357829987e-06 2.062250037e-06 5.6108144e-07 1.554453216e-07 4.376719049e-08)
5(1.292449858e-05 1.723147996e-06 4.443797406e-07 1.194514528e-07 4.192816609e-08)
5(1.045012938e-05 1.430580856e-06 3.623624174e-07 9.912773294e-08 3.497478534e-08)
5(1.058164756e-05 1.279660302e-06 2.813780997e-07 8.17243791e-08 3.67569748e-08)
5(9.636155611e-06 1.045053397e-06 2.152587936e-07 6.983694179e-08 3.395926075e-08)
5(8.92699259e-06 8.137379458e-07 1.679204966e-07 5.884588143e-08 3.322982797e-08)
5(7.916928492e-06 6.917095178e-07 1.344150613e-07 4.895267071e-08 2.188966692e-08)
5(7.358082236e-06 5.420953997e-07 9.20599908e-08 2.948638678e-08 6.173987562e-09)
5(4.877192753e-06 4.157136341e-07 5.292341169e-08 -3.117893661e-09 -1.933693709e-08)
5(4.819552074e-06 2.797172112e-07 -2.446820149e-09 -4.9040629e-08 -6.115219215e-08)
5(3.492666293e-06 1.567813825e-07 -6.925947128e-08 -1.020606907e-07 -9.50986082e-08)
5(2.499142671e-06 3.169713115e-08 -1.359788861e-07 -1.498556297e-07 -1.186119102e-07)
5(1.723355731e-06 -9.186344295e-08 -1.989725794e-07 -1.746935688e-07 -1.160500133e-07)
5(8.678497154e-07 -1.771148563e-07 -2.179194298e-07 -1.590503428e-07 -8.571806539e-08)
5(4.303071018e-07 -2.094116868e-07 -1.89150711e-07 -1.016418914e-07 -2.980616559e-08)
5(9.633586151e-08 -1.759363387e-07 -1.062153942e-07 -2.52975869e-08 1.611430378e-08)
5(-2.40477484e-08 -8.947418913e-08 -7.79860641e-09 4.408918749e-08 4.457654821e-08)
5(-2.867698281e-08 1.526078861e-08 7.590508473e-08 7.711262667e-08 4.548496111e-08)
5(4.334220737e-08 9.787192724e-08 1.093854836e-07 7.155752128e-08 3.209869173e-08)
5(1.046392006e-07 1.244453795e-07 9.824122277e-08 4.792187115e-08 1.502538375e-08)
5(1.251047117e-07 1.054963914e-07 6.0922897e-08 2.26363656e-08 5.459420218e-09)
5(1.012176094e-07 6.344844187e-08 2.809075417e-08 7.541638944e-09 1.288744539e-09)
5(5.927192762e-08 2.784514154e-08 8.928932992e-09 1.902901113e-09 2.182694767e-10)
5(2.500664315e-08 8.623114816e-09 2.012418719e-09 2.959475855e-10 2.529607722e-11)
5(7.533896427e-09 1.789786608e-09 2.966291063e-10 3.292428903e-11 1.802157455e-12)
5(1.377421004e-09 2.24018814e-10 2.529149501e-11 2.244143303e-12 1.302488698e-13)
5(1.415057828e-10 1.604579925e-11 1.323437334e-12 3.144891927e-14 6.487284378e-15)
5(5.959428287e-12 -2.240331198e-11 8.616350379e-14 -1.357718563e-11 7.755571227e-16)
5(-1.388547077e-13 -3.893330718e-09 1.174569965e-11 -2.432473702e-09 1.017715778e-13)
5(-5.28383912e-11 -7.438947711e-07 2.349450655e-09 -4.647288553e-07 2.360555451e-11)
5(-1.261296535e-08 -0.0001672585848 4.217722193e-07 -9.868529347e-05 6.182412527e-09)
5(-0.04427219361 -0.04894226912 6.601852058e-07 -0.02406694665 -0.01520058578)
5(0.001724304174 0.03899505424 0.0005754655149 0.02650917559 -0.004747691483)
)


60
(
5(0.001724018851 0.08810568218 0.0005754009049 0.04923467305 -0.00474769943)
5(-1.546683184e-06 1.844797653e-06 -2.029836313e-06 -7.044012448e-07 -7.72253151e-07)
5(-2.157102178e-06 -5.96990773e-07 -3.141290411e-07 -3.281012959e-07 -1.611658195e-07)
5(-2.601261626e-06 -1.237855477e-06 -2.956488417e-07 -3.251080642e-07 -1.527685278e-07)
5(-2.781663437e-06 -3.764914521e-07 -1.30023371e-07 -1.973999766e-07 -1.468854579e-07)
5(3.666165455e-08 -1.033017285e-06 8.428659257e-08 -5.767761321e-08 -9.973914855e-08)
5(-5.638101792e-08 6.226895874e-07 1.445678105e-08 -9.095592109e-08 -7.224768868e-08)
5(6.402178918e-06 8.96388709e-07 -1.367970409e-07 -2.051977488e-07 -5.435630784e-08)
5(-2.079606571e-06 -1.282294523e-06 2.443163203e-07 1.85809099e-08 -1.103938739e-07)
5(-2.436246383e-06 2.657810236e-06 5.403290124e-07 2.733912874e-07 6.796761327e-08)
5(1.251092057e-05 1.697807185e-06 9.129341721e-07 3.853183638e-07 2.887157059e-08)
5(6.964643741e-06 3.765799614e-06 1.298790312e-06 4.215914894e-07 1.20760463e-07)
5(-2.097625609e-07 4.286273936e-06 1.892211466e-06 7.459329943e-07 3.024631303e-07)
5(9.228134695e-06 5.950342027e-06 2.220193411e-06 1.067263189e-06 1.642874001e-07)
5(2.839070296e-05 5.92591971e-06 2.912284784e-06 1.054221504e-06 4.244772388e-07)
5(2.566229426e-05 7.031412467e-06 3.373874416e-06 1.141919972e-06 3.627694806e-07)
5(8.459384863e-06 8.672282201e-06 3.811085548e-06 1.423605072e-06 4.590344265e-07)
5(4.427120543e-05 9.233321982e-06 3.818707275e-06 1.36542332e-06 4.492310669e-07)
5(2.221757329e-05 1.092280451e-05 4.174846662e-06 1.478969443e-06 4.266394504e-07)
5(4.254793012e-05 1.054726775e-05 3.921586743e-06 1.389847525e-06 4.619928262e-07)
5(4.942767986e-05 1.069699056e-05 4.338927433e-06 1.392211654e-06 4.279111051e-07)
5(4.602878408e-05 1.225236672e-05 3.957774689e-06 1.265422376e-06 3.97655316e-07)
5(4.039457249e-05 1.191194788e-05 3.829000827e-06 1.230277184e-06 3.58354735e-07)
5(7.023017508e-05 1.170729954e-05 3.587031028e-06 1.107105351e-06 3.125365752e-07)
5(7.066987464e-05 1.118924134e-05 3.341443537e-06 9.595981919e-07 2.986120295e-07)
5(6.945503616e-05 1.167145511e-05 2.987529092e-06 8.219234421e-07 2.426368765e-07)
5(8.122353732e-05 1.082044267e-05 2.648031871e-06 7.132034511e-07 1.945631649e-07)
5(7.081823599e-05 1.007099472e-05 2.232863267e-06 5.823279611e-07 1.812598622e-07)
5(8.039125911e-05 9.695886016e-06 1.899324749e-06 4.58094083e-07 1.257232829e-07)
5(8.427000332e-05 9.118552179e-06 1.590792366e-06 3.765412365e-07 1.271604147e-07)
5(8.460207892e-05 8.422125543e-06 1.298383842e-06 2.968944822e-07 9.863436604e-08)
5(8.213591904e-05 7.514769321e-06 1.020496883e-06 2.337012527e-07 9.74953066e-08)
5(8.064296405e-05 6.697596354e-06 8.578276694e-07 1.921477676e-07 7.968250751e-08)
5(6.752715526e-05 6.074236306e-06 6.911786264e-07 1.522367673e-07 7.528066063e-08)
5(6.628733402e-05 5.150563575e-06 5.402546839e-07 1.109232397e-07 3.236834374e-08)
5(5.884341217e-05 4.452729195e-06 4.052440798e-07 5.572379518e-08 -9.171399775e-10)
5(4.833972277e-05 3.499534806e-06 2.514330478e-07 -1.750018795e-08 -6.696082288e-08)
5(4.065273893e-05 2.793016974e-06 1.123901987e-07 -1.131182208e-07 -1.497783371e-07)
5(2.940498545e-05 2.027730376e-06 -4.942493593e-08 -2.117181055e-07 -2.102635694e-07)
5(2.065007935e-05 1.231743472e-06 -1.946870911e-07 -2.878666104e-07 -2.506045093e-07)
5(1.456127928e-05 6.506008632e-07 -2.991309382e-07 -3.167942532e-07 -2.152303494e-07)
5(8.14926149e-06 2.142617101e-07 -3.274181264e-07 -2.622598803e-07 -1.472401505e-07)
5(4.499549335e-06 -3.213942011e-08 -2.610076949e-07 -1.495933918e-07 -3.832318353e-08)
5(2.096794119e-06 -9.873802379e-08 -1.228321815e-07 -1.033896073e-08 4.868930237e-08)
5(8.71804535e-07 -3.708112893e-08 3.198819539e-08 9.891148273e-08 9.802543219e-08)
5(3.102202811e-07 7.84851764e-08 1.419758517e-07 1.44478784e-07 9.910722138e-08)
5(1.794832963e-07 1.6000479e-07 1.807127491e-07 1.258992619e-07 6.449670258e-08)
5(1.743477666e-07 1.805906875e-07 1.421790449e-07 8.224759946e-08 3.264817335e-08)
5(1.728737803e-07 1.430176843e-07 8.550033936e-08 3.81382713e-08 1.124775505e-08)
5(1.308339286e-07 8.148829352e-08 3.820311732e-08 1.325119005e-08 2.946118869e-09)
5(7.457450232e-08 3.422662366e-08 1.12994269e-08 3.028234318e-09 5.358208436e-10)
5(3.181013606e-08 1.029122187e-08 2.352891674e-09 5.109834285e-10 6.529044924e-11)
5(9.773216931e-09 1.920902789e-09 3.206567201e-10 5.087827614e-11 4.514941577e-12)
5(1.837557837e-09 2.308939924e-10 2.54935175e-11 4.724424209e-12 2.816708892e-13)
5(2.071353877e-10 1.639821385e-10 -1.03424753e-12 1.59363239e-10 2.333576092e-15)
5(1.514543458e-11 2.046779085e-08 -2.758343003e-10 2.110385328e-08 -1.420245494e-12)
5(2.343883028e-10 3.39277802e-06 -4.236379644e-08 3.340510819e-06 -2.620181673e-10)
5(3.654063156e-08 0.000728492099 -8.199117697e-06 0.0006762643598 -6.552819632e-08)
5(0.3418078664 0.1530615046 -0.002200869015 0.183459236 0.08833062873)
5(-0.05068451353 -0.4231530064 0.007996741282 -0.2546322909 0.01296965045)
)


60
(
5(-0.01207321707 -0.4617520025 -0.001650383648 -0.2015337592 8.563868532e-05)
5(-1.092637936e-05 4.99077866e-06 -3.580261557e-06 -1.41253388e-06 -9.171664451e-07)
5(-5.749800292e-06 9.006230251e-07 -1.181796759e-06 -6.566497576e-07 -3.305285415e-07)
5(-1.022324451e-05 -4.328433849e-06 -1.226733397e-06 -7.15533106e-07 -3.166706575e-07)
5(-9.635050566e-06 -4.053516012e-06 -5.013150845e-07 -5.402858397e-07 -2.424322538e-07)
5(1.352374816e-05 6.48844015e-07 -4.037235831e-07 -2.218459049e-07 -1.966083517e-07)
5(-3.592940813e-06 -4.892270508e-07 -1.41602591e-07 -5.372459048e-07 -2.631797239e-07)
5(-4.538388469e-07 5.873644002e-07 -2.407523185e-07 -6.094390926e-08 -9.775997862e-08)
5(1.465375797e-05 4.229749086e-06 2.924999893e-07 -1.242815014e-07 -1.571831167e-07)
5(-1.124383987e-05 -2.448047981e-06 7.84937076e-07 4.044121056e-07 -7.716963694e-08)
5(3.912791534e-05 9.601001359e-06 2.274869274e-06 5.100611214e-07 7.814695639e-08)
5(8.877241501e-06 7.233381682e-06 3.135673959e-06 1.253169372e-06 2.681497304e-07)
5(9.301372176e-05 8.551816849e-06 4.689697163e-06 1.538326211e-06 3.329882528e-07)
5(-5.815006639e-05 1.568144163e-05 5.618721482e-06 2.135950674e-06 6.38755298e-07)
5(8.122517977e-05 1.712117699e-05 7.293200138e-06 2.309398751e-06 6.950968541e-07)
5(0.0001078602199 2.293805636e-05 6.541954602e-06 2.929329308e-06 7.340126974e-07)
5(6.641344334e-05 2.128199196e-05 9.151459452e-06 3.267171211e-06 1.086775131e-06)
5(0.0001052674645 2.643465526e-05 1.027337042e-05 3.014277281e-06 9.617058838e-07)
5(0.0001379255462 3.056571839e-05 9.777839015e-06 3.570295237e-06 1.123560125e-06)
5(0.0001406383417 3.179879658e-05 1.042616953e-05 3.387318934e-06 1.006291561e-06)
5(0.0001601411284 3.307958338e-05 1.079992414e-05 3.524329482e-06 1.178582962e-06)
5(0.0002293529862 3.824704854e-05 1.087570834e-05 3.314188823e-06 9.846664498e-07)
5(0.000223286162 3.710836732e-05 1.011384363e-05 3.103674294e-06 9.225442308e-07)
5(0.0002285484987 4.049803028e-05 9.870558423e-06 2.881021526e-06 9.293470536e-07)
5(0.0003334221 4.403182337e-05 9.698436222e-06 2.662207677e-06 8.109276683e-07)
5(0.0002626420107 3.893506859e-05 9.144767304e-06 2.379277007e-06 6.65622309e-07)
5(0.0003953303779 4.637056397e-05 8.368181751e-06 2.074964961e-06 6.260959799e-07)
5(0.0004004494675 4.653520867e-05 7.653235931e-06 1.72741345e-06 5.073722645e-07)
5(0.0004519332596 4.502360157e-05 7.068333041e-06 1.490609209e-06 4.342678596e-07)
5(0.0003915528401 4.445313224e-05 6.354450457e-06 1.198585267e-06 3.456653745e-07)
5(0.0004312005853 4.559091395e-05 5.644740775e-06 9.96020638e-07 2.995996772e-07)
5(0.0004657625415 4.415376546e-05 5.025769309e-06 7.910542913e-07 2.310292335e-07)
5(0.0004658253646 4.454877511e-05 4.478919163e-06 6.565743229e-07 2.156487274e-07)
5(0.0004394241197 3.939847533e-05 4.022678564e-06 5.177012461e-07 1.71052101e-07)
5(0.0003871653061 3.6164986e-05 3.41309539e-06 4.067949018e-07 1.265275516e-07)
5(0.0003453576128 3.337757358e-05 2.957251337e-06 2.955196537e-07 6.235957675e-08)
5(0.0003140237895 2.802141469e-05 2.407698273e-06 1.639988004e-07 -3.401318766e-08)
5(0.000259352209 2.309807986e-05 1.811336445e-06 1.007021886e-08 -1.486999531e-07)
5(0.0002089326563 1.890909104e-05 1.25246508e-06 -1.611412295e-07 -2.857163878e-07)
5(0.0001565742783 1.356317388e-05 6.994230148e-07 -3.224457582e-07 -3.745881595e-07)
5(0.0001072365753 9.314521521e-06 2.326397686e-07 -4.352280138e-07 -3.841907788e-07)
5(6.930877684e-05 5.706345357e-06 -9.700362527e-08 -4.487395065e-07 -3.456263947e-07)
5(4.079233566e-05 3.105245467e-06 -2.375872874e-07 -3.434696694e-07 -1.831260583e-07)
5(2.130069067e-05 1.521973737e-06 -2.217020121e-07 -1.674231003e-07 -1.85484016e-08)
5(1.015702053e-05 6.287707343e-07 -5.458864075e-08 3.646310975e-08 1.147058847e-07)
5(4.043732582e-06 2.918088303e-07 1.055543867e-07 1.799856652e-07 1.699636099e-07)
5(1.532727087e-06 2.396973194e-07 2.225455921e-07 2.142352578e-07 1.571547918e-07)
5(6.120594606e-07 2.523965465e-07 2.43399564e-07 1.832372319e-07 1.030840102e-07)
5(3.00133434e-07 2.374884049e-07 1.825519726e-07 1.11820882e-07 5.019562789e-08)
5(2.253194049e-07 1.74284502e-07 1.025977172e-07 4.927193144e-08 1.78457689e-08)
5(1.663073634e-07 9.785739665e-08 4.213337004e-08 1.647357353e-08 4.362494215e-09)
5(9.657630508e-08 4.236590593e-08 1.230184375e-08 3.710584051e-09 7.341925479e-10)
5(4.186162869e-08 1.216507606e-08 2.382118744e-09 5.826654992e-10 1.026628295e-10)
5(1.426970642e-08 2.462066918e-09 2.985793709e-10 5.689808406e-11 5.821452614e-12)
5(3.374601047e-09 4.996870322e-10 2.072496244e-11 1.98682102e-10 3.279407553e-13)
5(4.709547427e-10 2.07816602e-08 -1.151632673e-10 2.072127101e-08 -2.042927994e-12)
5(1.931271197e-10 3.114297025e-06 -1.481614022e-08 2.571308026e-06 -2.763619534e-10)
5(1.120250934e-08 0.0005755519036 -1.993572776e-06 0.0003907880378 -5.397724706e-08)
5(0.01307469548 0.1592113003 1.027226159e-08 0.08103617088 0.002888207191)
5(0.001164382544 0.7036013856 -0.00310607605 0.2529109077 0.003158648863)
)


60
(
5(0.001158296773 0.4397106071 -0.003106757254 0.1731921918 0.003658869899)
5(-3.090450683e-05 1.08339654e-05 -6.126969582e-06 -2.241810849e-06 -1.154780751e-06)
5(-9.078790554e-06 -8.583036446e-07 -3.373496263e-06 -1.326187512e-06 -5.65285172e-07)
5(-1.343036345e-05 -8.19315282e-06 -2.411947788e-06 -1.413376583e-06 -5.626412845e-07)
5(-1.987730264e-05 -4.332677606e-06 -1.90501402e-06 -1.065250775e-06 -5.09154835e-07)
5(-1.639305613e-05 -3.424322764e-06 -1.567497598e-07 -6.527413112e-07 -3.111154831e-07)
5(4.205998909e-05 -4.641330611e-06 -2.111130875e-06 -8.984560436e-07 -4.653721546e-07)
5(-1.044135228e-05 4.978538417e-06 4.177277503e-07 -4.879591504e-07 -2.451023518e-07)
5(2.568060325e-05 -1.179804466e-06 -1.426729912e-06 -2.114527573e-07 -5.465632252e-07)
5(1.399581825e-05 1.357980178e-05 3.041338736e-06 2.00580931e-07 4.838718994e-08)
5(2.254893436e-05 6.380109764e-06 2.879011237e-06 1.047969707e-06 -2.50840481e-07)
5(0.0001278849745 2.093222727e-05 6.638303426e-06 1.712928539e-06 4.800390706e-07)
5(1.769397331e-05 2.512779433e-05 8.075567002e-06 2.679122062e-06 3.441928628e-07)
5(0.0002323785406 3.14230342e-05 1.127334091e-05 3.853317872e-06 1.142286416e-06)
5(0.0001122070736 4.074800904e-05 1.417449935e-05 4.679435963e-06 1.134746918e-06)
5(0.0001983143905 4.227164238e-05 1.584747456e-05 5.438906399e-06 1.734279334e-06)
5(0.0003755186647 6.46372317e-05 1.879684151e-05 5.981762771e-06 1.873646578e-06)
5(0.0001639237966 6.458907432e-05 1.957555419e-05 6.884342598e-06 1.961809396e-06)
5(0.0005289273981 7.915359909e-05 2.298105953e-05 7.218441782e-06 2.494916002e-06)
5(0.0004386316475 8.50483795e-05 2.307005423e-05 7.327727622e-06 2.075258895e-06)
5(0.0004833061695 9.279363786e-05 2.438548011e-05 7.511556756e-06 2.366386189e-06)
5(0.0009406161055 0.0001088190841 2.598265868e-05 7.107779197e-06 2.349369175e-06)
5(0.0006600101309 0.0001223226279 2.539331135e-05 7.102814454e-06 2.263727405e-06)
5(0.0007821425394 0.0001262803062 2.601907957e-05 6.958283093e-06 2.08962578e-06)
5(0.001258694361 0.0001367294113 2.702514945e-05 6.342226115e-06 1.966332284e-06)
5(0.001275370766 0.0001587371156 2.599433502e-05 5.899745673e-06 1.775142036e-06)
5(0.001222771064 0.0001685079492 2.542131817e-05 5.48794121e-06 1.596811668e-06)
5(0.001351826133 0.0001749570779 2.555524589e-05 4.742896521e-06 1.292416786e-06)
5(0.001811434081 0.0001840670064 2.609193087e-05 4.21416182e-06 1.183896454e-06)
5(0.001634631826 0.0002061319544 2.513751336e-05 3.849794622e-06 9.914389155e-07)
5(0.001983060586 0.0002084246059 2.415940489e-05 3.234420099e-06 7.939070438e-07)
5(0.001967478302 0.0001989357047 2.47739453e-05 2.871596464e-06 6.80537269e-07)
5(0.001828693091 0.0002158420348 2.302195737e-05 2.50247419e-06 5.895740258e-07)
5(0.001991551444 0.0002087803398 2.214904119e-05 2.186233429e-06 4.27400396e-07)
5(0.001785023553 0.0002004432474 2.016032699e-05 1.88439635e-06 3.798681859e-07)
5(0.001751880155 0.0001869484899 1.794746268e-05 1.543740436e-06 2.483122432e-07)
5(0.001460687756 0.0001629284426 1.619047229e-05 1.212814099e-06 1.119966097e-07)
5(0.001329832838 0.0001416789261 1.346131457e-05 8.768054994e-07 -5.123753376e-08)
5(0.001037735454 0.0001174736231 1.063499296e-05 5.122909597e-07 -2.657878029e-07)
5(0.0008248531417 8.811340475e-05 7.996258048e-06 1.261162572e-07 -4.544084511e-07)
5(0.0005974102998 6.487694882e-05 5.312123691e-06 -2.026782665e-07 -5.180049048e-07)
5(0.0003903656155 4.362731325e-05 3.303866277e-06 -4.15355431e-07 -5.659739297e-07)
5(0.0002415584746 2.67522752e-05 1.674829277e-06 -4.641472318e-07 -4.172912106e-07)
5(0.0001408511428 1.532481289e-05 7.339644227e-07 -3.553481223e-07 -1.922205493e-07)
5(7.156081159e-05 7.698741162e-06 2.968183626e-07 -1.247416515e-07 3.593571011e-08)
5(3.221111553e-05 3.451001791e-06 1.942608019e-07 1.184697179e-07 2.050001939e-07)
5(1.210864079e-05 1.467875932e-06 2.571888077e-07 2.719240719e-07 2.700093268e-07)
5(4.607112323e-06 6.911804416e-07 3.23356805e-07 2.920081767e-07 2.109459124e-07)
5(1.455135163e-06 4.23226113e-07 3.000522761e-07 2.265408801e-07 1.352988328e-07)
5(5.042532421e-07 3.07677246e-07 2.170829417e-07 1.336744204e-07 6.306525979e-08)
5(3.163642939e-07 2.170939242e-07 1.170336827e-07 5.61095873e-08 2.110566468e-08)
5(2.097738959e-07 1.17923072e-07 4.722830424e-08 1.740154602e-08 4.934519647e-09)
5(1.312659477e-07 5.411881596e-08 1.340091899e-08 3.746947697e-09 8.174961582e-10)
5(5.984588475e-08 1.709882111e-08 2.736599452e-09 5.119172487e-10 8.074850827e-11)
5(2.455849554e-08 4.147350307e-09 3.467001945e-10 1.057590026e-10 5.615479625e-12)
5(6.125315476e-09 1.017137617e-08 1.188657446e-12 5.071527058e-09 -3.991707757e-13)
5(1.360789374e-09 1.087698273e-06 -2.042229531e-09 4.695456907e-07 -6.887360269e-11)