/*--------------------------------*- C++ -*----------------------------------*\
| =========                 |                                                 |
| \\      /  F ield         | OpenFOAM: The Open Source CFD Toolbox           |
|  \\    /   O peration     | Version:  2.3.1                                 |
|   \\  /    A nd           | Web:      www.OpenFOAM.org                      |
|    \\/     M anipulation  |                                                 |
\*---------------------------------------------------------------------------*/
FoamFile
{
    version     2.0;
    format      ascii;
    class       dictionary;
    location    "constant";
    object      la_i14;
}
// * * * * * * * * * * * * * * * * * * * * * * * * * * * * * * * * * * * * * //

la_i14_table
60
(

60
(
5(0.1207386592 0.4939942686 0.5313281736 0.001588198997 -0.07748879102)
5(0.1210138946 0.4949069032 0.5337765659 0.001590551881 -0.07771239634)
5(0.1213445775 0.4948712294 0.5341555788 0.001590921896 -0.07789447277)
5(0.1214458218 0.4948416288 0.5340649396 0.00159177097 -0.07787286482)
5(0.1213995773 0.4947732835 0.5339364493 0.001591452041 -0.07783496711)
5(0.1213534266 0.4947002711 0.5341873663 0.001591222151 -0.07786383099)
5(0.121276519 0.4946819782 0.5341883745 0.001591460468 -0.07785349122)
5(0.1212991625 0.4947032218 0.5340949376 0.001591309527 -0.07786090725)
5(0.1213186761 0.4946834372 0.5341044963 0.001591255861 -0.07786542646)
5(0.1213479598 0.4946723436 0.5340386915 0.001591241945 -0.07785960079)
5(0.1213545117 0.4946544104 0.5339979864 0.001591205137 -0.0778557601)
5(0.1213095047 0.4945912367 0.5340136095 0.001591167346 -0.077856487)
5(0.1212724227 0.4945440667 0.5340149607 0.001591073302 -0.07785402105)
5(0.1212501315 0.494504369 0.5339792784 0.001591084173 -0.07785375964)
5(0.1212501011 0.494489581 0.5339724028 0.001591035296 -0.07785280884)
5(0.1212466609 0.4944737813 0.5339496524 0.001590980764 -0.07785177238)
5(0.1212391386 0.4944540725 0.5339324833 0.001590954489 -0.07784996253)
5(0.1212304032 0.4944331795 0.5339129736 0.001590890618 -0.07784751143)
5(0.12122454 0.4944091447 0.5338926771 0.001590858993 -0.07784588047)
5(0.1212158621 0.4943689069 0.5338619942 0.001590771206 -0.07784414323)
5(0.12121015 0.4943528043 0.5338529731 0.001590700147 -0.07784149563)
5(0.1212040717 0.4943411184 0.5338235399 0.001590736451 -0.07784239204)
5(0.1211950856 0.4943175683 0.5338084786 0.001590672996 -0.07783928676)
5(0.1211954083 0.4942874739 0.5337857375 0.001590588615 -0.07783564137)
5(0.1211895409 0.4942665353 0.5337594071 0.001590493106 -0.07783088177)
5(0.1211860614 0.4942613107 0.5337261023 0.001590350072 -0.07782459265)
5(0.121181961 0.4942423861 0.5337002568 0.001590199284 -0.07781703669)
5(0.121181347 0.4942115759 0.5336459658 0.00159000222 -0.07780732054)
5(0.1211764041 0.4941754575 0.5335899327 0.001589772207 -0.07779545868)
5(0.1211747653 0.4941308823 0.5335164287 0.001589500523 -0.0777805675)
5(0.1211711748 0.4940790322 0.5334176797 0.001589110887 -0.07776054796)
5(0.1211682731 0.4940190185 0.5332988912 0.001588650536 -0.07774049147)
5(0.1211657358 0.4939466648 0.5331542234 0.001588129942 -0.07771383308)
5(0.1211624761 0.4938595971 0.5329817754 0.001587477479 -0.07768471931)
5(0.1211585939 0.4937555536 0.5327821851 0.001586782185 -0.0776541829)
5(0.1211544435 0.4936485216 0.5325837641 0.001586025146 -0.07762065046)
5(0.1211505834 0.4935146997 0.5323118361 0.001585174472 -0.07758485679)
5(0.1211436453 0.4933936047 0.5320468319 0.001584291831 -0.07756165565)
5(0.1211388931 0.4932432518 0.5318004683 0.001583600565 -0.07751073348)
5(0.1211353268 0.4931034183 0.5315910922 0.001582244883 -0.0775199566)
5(0.1211283844 0.4929445669 0.531288304 0.001581700077 -0.07756086415)
5(0.1211092685 0.4928194027 0.5310370755 0.001582600218 -0.07760898606)
5(0.12109922 0.4927247594 0.5308060584 0.001584609963 -0.07767911468)
5(0.1210812728 0.4927833993 0.531101269 0.001586093827 -0.07774145252)
5(0.1210759989 0.4929185083 0.5314045699 0.001587723615 -0.07780842339)
5(0.1210686271 0.4932134244 0.5322554275 0.001589452426 -0.07786735892)
5(0.1211062391 0.4933397163 0.5335101199 0.001591276082 -0.07791384715)
5(0.121209881 0.4940389259 0.5341569138 0.001592536828 -0.07794414327)
5(0.1212511491 0.4948023965 0.5346501412 0.001593351002 -0.07796064998)
5(0.121290356 0.4953693217 0.5350071032 0.001593812906 -0.077968108)
5(0.1214442489 0.4956089085 0.5351882294 0.001594025082 -0.0779709804)
5(0.1215281174 0.4957673274 0.5352700541 0.001594106731 -0.07797190416)
5(0.1215554268 0.4958323226 0.5353001352 0.001594132806 -0.07797215731)
5(0.1215669488 0.4958556943 0.5353093195 0.001594139657 -0.07797221503)
5(0.1215702103 0.4958615962 0.5353113787 0.001594141104 -0.07797222647)
5(0.1215709064 0.4958627913 0.5353117278 0.001594141342 -0.07797222826)
5(0.1215709951 0.4958629255 0.5353117718 0.00159414137 -0.07797222849)
5(0.1215710022 0.4958629375 0.5353117746 0.001594141372 -0.0779722285)
5(0.1215710025 0.495862938 0.5353117746 0.001594141372 -0.0779722285)
5(-6.683698332e-14 -2.387736385e-13 -1.170926747e-25 -9.998769108e-11 -2.56883339e-14)
)


60
(
5(1.123531169e-07 -1.381891465e-08 4.654519009e-21 1.085399386e-05 -2.543187214e-08)
5(-0.2781724755 -0.002497808543 0.1707862199 0.008742666132 -0.5511121888)
5(0.02322429877 -0.0006495833924 0.08016670281 0.03280130968 0.04624553988)
5(0.02433959626 0.007722253455 0.01822978091 0.03039627623 0.08351530445)
5(-0.01719325545 0.002167560704 0.05409491789 0.01826799495 0.01268218364)
5(-0.007712543756 -0.02167475179 0.03451714127 -0.06651007787 0.007245317522)
5(0.02541095068 0.01387052409 -0.07459928862 -0.0004688218239 -0.0004788236481)
5(-0.007719469372 0.02064782464 0.006950324261 0.02845771318 0.006118256136)
5(0.001285456475 -0.03158446451 -0.0009040796993 -0.01714299952 0.004064176531)
5(-0.0001512713826 -0.0128139524 0.01001997456 0.009981976207 -0.004633293884)
5(0.001946309815 0.02270173054 -0.008616990638 0.01049179812 0.002838617608)
5(-0.002213562537 -0.009368331459 0.02214546077 0.002369489527 0.01320811766)
5(0.02666183734 0.01389225221 0.01190717912 -0.02227519842 0.0107803527)
5(0.0009864989982 0.01323948848 0.008204227357 0.02679734613 0.007206243896)
5(0.009020137665 -0.0163713503 -0.01610325371 0.0001994912708 0.01436667969)
5(0.02123544775 0.007364487621 -0.001838784236 -0.004542040881 0.0132635004)
5(0.02187798755 0.009264215589 0.0216242081 0.02485377189 0.0169289332)
5(0.01840243358 0.036131545 0.02022653371 0.01176599189 0.01633754486)
5(0.02451351406 0.002648114046 0.02247238532 0.01782996848 0.03139105247)
5(0.04634301228 0.02252974177 0.0209105442 0.03366266694 0.04716773042)
5(0.05884327864 0.03226539031 0.04769722648 0.02171675861 0.05041267316)
5(0.05387614611 0.06113769497 0.04269400212 0.06339071737 0.05878720478)
5(0.07128212144 0.04524237809 0.05306292543 0.0804419603 0.07943609918)
5(0.09441775105 0.08627160034 0.09870002396 0.06114497054 0.09754710092)
5(0.133087769 0.09394108103 0.05857041259 0.0942513859 0.1174890281)
5(0.1648359686 0.1430480766 0.1606948871 0.1283207223 0.1477972422)
5(0.2242675803 0.1315623815 0.1772683851 0.1708346308 0.170903689)
5(0.2537645046 0.1964893192 0.1910104693 0.2039615592 0.2004285683)
5(0.31094625 0.262961088 0.2556806243 0.2292088441 0.2278258845)
5(0.3886170553 0.2938097721 0.2919050793 0.2741194588 0.2557820443)
5(0.457960959 0.3465706831 0.3501451145 0.295464833 0.2649834993)
5(0.5278296991 0.3961980554 0.3532977451 0.3144919162 0.2636566413)
5(0.5966658518 0.4357174198 0.3930636758 0.2987773117 0.2219639736)
5(0.6310940844 0.4443443366 0.3668275303 0.2462425211 0.1515893547)
5(0.6660911401 0.4291592778 0.3125895028 0.151350319 0.0338346072)
5(0.6521637935 0.3572829085 0.1899849127 0.01359671044 -0.1346369915)
5(0.5853357351 0.2082861068 0.002691303534 -0.2252440214 -0.3455464687)
5(0.444371214 0.01563350952 -0.2558602217 -0.4712663787 -0.5690199423)
5(0.2023391221 -0.2970079454 -0.5568415254 -0.7214428585 -0.7606225497)
5(-0.1067129032 -0.6001178747 -0.8657007471 -0.9430383669 -0.8610113515)
5(-0.4745186263 -0.9460227648 -1.124726845 -1.039372331 -0.8306119419)
5(-0.812525864 -1.150716464 -1.21782231 -1.00136241 -0.6596698612)
5(-1.072269088 -1.232189797 -1.138462712 -0.8029060206 -0.3791385157)
5(-1.171313769 -1.100485185 -0.8362169864 -0.453380743 -0.07556290046)
5(-1.054003376 -0.7676194787 -0.4141050161 -0.05951859636 0.1586582733)
5(-0.7326368249 -0.3040800769 0.04273165348 0.2769843166 0.2768635714)
5(-0.287165354 0.1603212388 0.381740048 0.4215110141 0.2747507593)
5(0.1600594492 0.4923674748 0.5505390095 0.406351456 0.2027531473)
5(0.4766484016 0.6122046455 0.5307612946 0.2906384346 0.11812848)
5(0.579515714 0.5398196054 0.3615541117 0.1637167599 0.05577031101)
5(0.5061499068 0.3676193313 0.2023590017 0.06756092678 0.02193823768)
5(0.3349941408 0.1900274332 0.08136780047 0.02258475356 0.00732049983)
5(0.1722501835 0.07186683814 0.02451187621 0.006083996951 0.001924586169)
5(0.06595006 0.02086557789 0.006095909194 0.001323597934 0.0003878648458)
5(0.02019243561 0.003799692876 0.001023231114 0.0002276765626 4.694828189e-05)
5(0.004081168143 0.0005475236226 0.0001213399286 2.89504582e-05 7.184178259e-07)
5(0.0005173558059 3.534584804e-05 9.813175816e-06 2.41129858e-06 -6.184560333e-07)
5(0.0001387248946 1.551872103e-06 3.219138298e-07 1.552171526e-07 1.109421648e-06)
5(4.884377047e-08 3.923572925e-08 4.773770505e-07 -5.725864543e-08 1.441804664e-09)
5(4.309168417e-08 4.222854886e-08 5.034846982e-09 4.895721781e-08 1.326746831e-08)
)


60
(
5(-6.607003266e-05 -0.001157186242 -0.001640838945 -0.002921232465 -0.003602332082)
5(0.009689769243 0.01516948415 0.179482528 0.04593853814 -0.8677953898)
5(0.129503666 0.01286282885 0.06058195856 0.01720458156 0.1482143073)
5(-0.07855529644 0.00691484225 -0.05154828255 -0.005175143472 -0.1496264825)
5(0.01857987807 0.003001009859 0.0129574665 0.0249763097 0.07453762622)
5(0.006316112212 0.01732306347 0.01376391219 -0.07329983721 -0.002891875464)
5(0.0279694336 -0.03831013347 -0.005682472683 0.02256899492 0.05203335956)
5(-0.1079434609 -0.01042850753 -0.01458982205 -0.002450904937 0.04674889112)
5(0.06806461259 0.01137592164 0.03850007645 0.01006847776 -0.1893539555)
5(0.05953392377 0.0092136248 -0.06669841613 -0.012603456 0.1041009094)
5(-0.03130336577 0.02738646792 0.03638550764 0.0240826706 0.009433434114)
5(-0.1239149583 -0.06860141724 -0.002915396383 -0.01113472415 -0.00631850102)
5(0.1227595735 0.02057407383 0.02453990937 0.01021986005 0.002227108835)
5(-0.02240517395 0.05155042383 -0.01038122939 0.02803400356 0.0171775054)
5(0.1730345607 0.02969961567 0.07132462478 0.008473566868 0.04121875132)
5(-0.2247074251 0.06125823444 -0.01823415301 -0.01184337829 -0.0312239066)
5(0.1668990202 0.001996434951 0.08466750137 0.06318991971 0.1429029881)
5(0.06622970567 0.04278341627 -0.00631707711 0.09134927491 -0.01479251523)
5(0.03854957788 0.1027841874 0.1477013722 0.07451888916 0.04610946173)
5(0.3013134895 0.08814850659 0.101243501 0.1254830082 0.04280515336)
5(-0.2251758241 0.1365407009 0.1843623006 0.1472864472 0.2388108307)
5(0.4160403194 0.2278087453 0.1191805301 0.1209429312 0.09255713288)
5(0.1477942371 0.2743248387 0.264034094 0.2913585418 0.1975543649)
5(0.467004733 0.3534580328 0.3445963351 0.309227432 0.2713746268)
5(0.2018075748 0.4215350685 0.4564240905 0.3385721345 0.4044924397)
5(0.5928540469 0.5675314599 0.5279693813 0.4871538773 0.2740891436)
5(0.8065143384 0.5504473564 0.5699782885 0.5086863978 0.5775443291)
5(0.4404513095 0.8713677989 0.7842687118 0.7176232969 0.4573962457)
5(1.209394494 0.9277937456 0.8350068054 0.7116426224 0.7292867905)
5(1.049151889 1.032684904 1.045366011 0.8970543848 0.6310028081)
5(1.432615763 1.365520164 1.205226331 0.9558878496 0.7890859196)
5(1.552685624 1.48416562 1.23504037 0.9815750169 0.7728555259)
5(1.833509733 1.496885719 1.351587791 1.012608313 0.6945331127)
5(2.013373275 1.721556581 1.416020105 0.9519986191 0.5899057244)
5(2.347598236 1.721907441 1.256067643 0.7880501392 0.3675836957)
5(1.879927398 1.660796931 1.129649093 0.5254832792 0.1049313114)
5(2.307043592 1.421452669 0.8233197684 0.150663477 -0.3247945893)
5(1.978101977 1.112725167 0.3870968125 -0.3115788537 -0.7340669717)
5(1.704054364 0.6905251272 -0.1527263092 -0.8320122153 -1.184294385)
5(1.302955419 0.09155206775 -0.7737647837 -1.347910241 -1.531438832)
5(0.4948936202 -0.541453271 -1.297714213 -1.731763922 -1.718294872)
5(0.06021538244 -1.08165305 -1.73278224 -1.874528984 -1.587781579)
5(-0.6778819083 -1.473127968 -1.836014337 -1.723133072 -1.272097414)
5(-1.018286806 -1.60173697 -1.661504204 -1.270501159 -0.6656678434)
5(-1.239628851 -1.415201067 -1.14376787 -0.6045343917 -0.1017056947)
5(-1.070278134 -0.8516744224 -0.4288300095 0.06557784206 0.4383358247)
5(-0.6296687953 -0.2227625298 0.3078023694 0.6293204855 0.6744767415)
5(-0.06988865217 0.4364000496 0.8022153604 0.8695162866 0.6956939197)
5(0.4505534616 0.8565143718 1.008072736 0.8038666679 0.5264094476)
5(0.7834172814 0.9469236086 0.8683658256 0.6053479019 0.313976095)
5(0.7943566657 0.7829631576 0.5904488729 0.3325905413 0.1527230515)
5(0.6342086071 0.5052835721 0.3148605839 0.155114536 0.05478473607)
5(0.3650436375 0.2386516704 0.1231873893 0.05246407937 0.01669964878)
5(0.1569592114 0.08484762315 0.03721015081 0.01427459796 0.004059872748)
5(0.04190216455 0.02024558174 0.007354989361 0.002625543742 0.0007216284057)
5(0.007536440225 0.00309801736 0.001034545681 0.000366688381 0.0001032860923)
5(0.00067544206 0.0002910070783 7.950055885e-05 3.255943517e-05 9.204992931e-06)
5(2.9578292e-05 8.080976112e-06 3.253444324e-06 -8.700632203e-07 3.868254533e-07)
5(-7.325149517e-06 -8.13618316e-06 1.190327866e-06 2.909351851e-07 4.940145145e-09)
5(3.147628381e-07 1.015007185e-05 -7.857631318e-07 1.865664465e-07 -2.328318156e-08)
)


60
(
5(-0.008553311169 0.0006568382228 -0.00788629739 -0.007333187722 -0.00766986081)
5(0.1634417397 0.003394737781 0.2031199237 0.08583849963 -1.098458805)
5(-0.007630844441 0.01116699501 0.05849891848 0.01115527086 0.04051565768)
5(0.01400654228 0.0410671768 -0.0151306785 -0.02998312623 -0.001140062303)
5(-0.01621492113 0.04236325711 -0.0492533863 -0.01217953842 -0.02149448629)
5(-0.006408181246 -0.06780181303 -0.02982119633 0.01943109272 0.007197492356)
5(-0.02536398276 0.03433684982 0.01507906082 0.0001048618718 0.02978030824)
5(0.1221615591 0.03454968444 -0.007195160035 -0.07084581979 0.09178465362)
5(-0.06959434796 -0.1038584988 0.04670159391 0.007239571541 -0.2010658299)
5(-0.1165390101 0.0731761909 0.001326740528 0.07941205477 0.1605841704)
5(0.1929790954 -0.02541907087 0.02790032144 0.02848551293 -0.1359794072)
5(0.01243396606 0.05727149578 0.004150053513 -0.09211126524 0.005826943425)
5(-0.2228713029 0.03035852171 -0.02798700377 0.001781505993 0.2820628631)
5(-0.02214612191 0.07625041363 -0.0328018892 0.1275490645 -0.4046116509)
5(0.2912246777 -0.032300389 0.02546010972 0.01718303653 0.291862647)
5(0.2455479132 0.08688279569 0.1389264793 -0.04217195513 -0.05578908625)
5(-0.3802057652 0.1554370375 0.2063809174 0.2091175505 0.1192982862)
5(0.628367825 0.07308206023 0.06764600112 0.102939344 0.278418749)
5(-0.2059928069 0.3031391265 0.2894982243 0.2396005131 -0.08313464894)
5(0.4146314658 0.2851062439 0.1183133046 0.1528901892 0.2842539797)
5(0.6014407809 0.180292096 0.4779290337 0.4411921169 0.5325089319)
5(0.2610852654 0.645808569 0.5143801426 0.303892607 0.1665653893)
5(0.07667752357 0.6930940953 0.7033002305 0.6265971208 0.5607224978)
5(1.155742457 0.79738986 0.5506196968 0.8149230483 0.2355433265)
5(1.137355033 0.8778219073 1.043038303 0.9184889177 1.221754681)
5(1.188113702 1.399685757 1.304258911 1.074511247 0.9707318663)
5(1.76909729 1.609240209 1.584183756 1.39119191 0.8308783992)
5(1.684467267 1.933661239 1.804166265 1.638803067 1.838852562)
5(2.387276462 2.370719794 2.164153881 1.762112031 0.9166010069)
5(2.957469498 2.772605222 2.599357332 2.191580731 2.154824681)
5(3.36508725 3.214474128 2.942126203 2.374944783 1.531803737)
5(3.862801073 3.592864828 2.985082901 2.470212307 2.154083057)
5(4.622498496 3.922864485 3.4569959 2.640705002 1.75936724)
5(4.653888464 4.312490351 3.594783557 2.534923237 1.938596716)
5(5.468454206 4.377233101 3.586460484 2.350479197 1.255594011)
5(5.713888651 4.536668057 3.362561889 2.064939517 1.05404493)
5(5.589417243 4.223417398 2.880531173 1.510703267 0.4248682239)
5(5.676066539 3.824587601 2.290845575 0.7743041341 -0.4237134766)
5(4.959971428 3.179068531 1.447421973 -0.07174885339 -1.085429653)
5(4.226962999 2.188580428 0.5156288911 -0.9692655948 -1.94462307)
5(3.561193358 1.21200233 -0.5086821556 -1.80322863 -2.284461097)
5(2.093870061 0.1720202545 -1.397473191 -2.312689304 -2.590298564)
5(1.073192727 -0.7508674741 -1.961643956 -2.470991346 -2.245470105)
5(-0.00239181916 -1.393756275 -2.113882398 -2.140006067 -1.635946117)
5(-0.6871475244 -1.592415721 -1.766529864 -1.429335635 -0.7652873977)
5(-1.045085319 -1.299898095 -1.04807196 -0.43439676 0.2402466002)
5(-0.8906030723 -0.6554488621 -0.04624802522 0.4594720661 0.8614374876)
5(-0.4403699242 0.1155197664 0.7436637668 1.13820095 1.244738056)
5(0.1701509798 0.8216664524 1.278627943 1.358014753 1.139567773)
5(0.7404787012 1.186956434 1.424946444 1.237672985 0.8548139295)
5(0.9670293292 1.182407375 1.114098947 0.8152757943 0.5010137572)
5(0.9298991078 0.928126531 0.6827654432 0.4637566155 0.2369911508)
5(0.7026824296 0.52418096 0.3313068869 0.1892327966 0.08313473901)
5(0.3884518033 0.2269186295 0.1197288026 0.06065135268 0.0234547432)
5(0.142348436 0.06796769458 0.02948280929 0.01411110264 0.00499687574)
5(0.03853464133 0.01329806801 0.004450849627 0.002146050375 0.000719709382)
5(0.006136156222 0.001399240936 0.0004271042845 0.00019614526 7.080480275e-05)
5(0.0004926046584 9.631047161e-05 1.603100338e-05 2.326586684e-05 3.059049613e-06)
5(8.564035749e-05 1.828014236e-05 -3.194824509e-06 -3.170046601e-06 -2.936260717e-07)
5(-4.001277709e-06 -7.88399159e-05 1.241249667e-05 -6.208220901e-07 4.144491522e-08)
)


60
(
5(-0.0183530194 -0.0417069877 -0.01366500489 -0.007774259234 -0.01439681259)
5(0.04661894885 0.02009682829 0.261167727 0.05329802566 -0.922053833)
5(-0.03753030685 0.1509783388 0.091224423 0.0545484232 -0.01581950853)
5(-0.04851445729 0.02847289304 -0.05414433243 -0.06409243623 -0.03415797022)
5(-0.03095196144 -0.004171490482 -0.0749939219 -0.04327663496 0.05153668654)
5(0.1932859321 0.02460541663 -0.05616348223 0.01258176393 0.08621936038)
5(-0.1038897504 0.002939737595 0.03575159081 -0.07495890622 -0.1941880881)
5(-0.04058442937 -0.01224165533 -0.03243917165 0.05950969339 0.2291129949)
5(0.1241064122 0.1062818809 0.04223463883 -0.05536816894 -0.1946979421)
5(-0.2473268277 -0.2058694249 -0.03252908969 0.05011239233 0.06456910375)
5(0.3357375215 0.1781966775 0.05882504967 -0.0706643826 -0.1471953899)
5(-0.2043861751 0.007756931271 -0.03454645119 0.09814486152 0.1927916884)
5(0.7869009922 -0.1247750994 0.1600261913 -0.0238479172 -0.2363312965)
5(-1.206353138 0.149466707 0.001788513243 0.1134753282 0.3635142374)
5(0.3876573578 0.06115686126 0.2088512312 0.03861993998 -0.02617168081)
5(0.6272869602 0.3100798341 -0.2282170675 0.2037915461 -0.2080654101)
5(-0.06055128358 0.09208865148 0.23745294 0.2896647774 0.3397499057)
5(0.250836241 0.2526792486 0.5034828586 -0.1359368493 0.1368057994)
5(0.5248030816 0.5537425119 0.3260481773 0.5264801533 0.4705670136)
5(0.3904629891 0.5182977755 0.4754363427 0.5003271842 0.06747094944)
5(0.458980657 0.6244980971 0.8634740931 0.6996196116 1.233932276)
5(1.40608805 1.094083431 1.022498922 0.958131452 0.202690733)
5(1.070813792 1.195560055 1.106969833 1.1039509 1.078853917)
5(1.038694684 1.641946831 1.504285524 1.324689838 1.134514673)
5(2.362354609 2.199367806 2.114788564 1.841467983 1.90119266)
5(1.861086365 2.080004618 2.537130745 2.291786095 1.436912691)
5(3.665853311 3.370847043 3.065125249 2.766493996 2.527502413)
5(3.733849855 3.990543249 3.638081418 3.145878856 2.897238295)
5(5.232685189 4.454718025 4.451250962 3.872077341 3.278025992)
5(4.949683624 5.289371462 5.190562611 4.377618589 3.438738209)
5(6.415548151 6.442402798 5.839784143 4.914522261 4.227546206)
5(7.933449623 7.225432748 6.375765599 5.282097315 3.477017402)
5(8.924030541 8.230811377 7.003211875 5.720015207 4.617727121)
5(9.98320334 8.493786896 7.626018093 5.737663358 4.155318387)
5(10.35553821 9.131606782 7.690579011 5.628349831 3.857960598)
5(10.89397843 9.664572202 7.655960378 5.266343761 3.240094634)
5(11.73690462 9.265453517 7.212200144 4.489446815 2.472457402)
5(11.45021317 8.774400646 6.371999704 3.58020024 1.208328657)
5(11.11745177 8.175782381 5.232330056 2.329062725 0.09331749313)
5(10.12134174 6.750122542 3.706865441 0.8987224286 -1.27091256)
5(8.479393475 5.172604274 2.065273195 -0.5255546903 -2.088516786)
5(6.750162238 3.352043994 0.4700344799 -1.744786183 -3.134012136)
5(4.786033717 1.557356391 -0.8492677889 -2.483189507 -3.0638617)
5(2.673929451 0.14856769 -1.798044865 -2.708286689 -2.687762826)
5(1.066251791 -0.8666092374 -1.830492385 -2.195986032 -1.697618792)
5(-0.07558522729 -1.2700897 -1.586021366 -1.207793531 -0.4800635893)
5(-0.6897004283 -0.9804583168 -0.6798423751 -0.03721017971 0.7116278284)
5(-0.7131861342 -0.3605042027 0.434899134 1.038350241 1.524993951)
5(-0.257925904 0.4633191914 1.297072016 1.765978282 1.814150406)
5(0.3462419834 1.125913387 1.743593185 1.814990192 1.643308226)
5(0.8808368476 1.432723443 1.666478471 1.519931518 1.149913379)
5(1.132108812 1.410585207 1.243083707 0.9574753699 0.6003605169)
5(1.034568418 0.9768234155 0.7041901067 0.4978091931 0.2963825331)
5(0.7674664276 0.5280681862 0.3078667768 0.1873572939 0.08646273651)
5(0.4437122061 0.224570732 0.09258899479 0.05211967234 0.02318318962)
5(0.1634975191 0.06111659733 0.01886262799 0.009105588053 0.004019864388)
5(0.05099562639 0.01114569818 0.002184577782 0.0009754773505 0.0003392620295)
5(0.009763045858 0.001271175179 0.0001263319097 6.301141284e-05 1.816491545e-05)
5(0.001375431274 7.017982003e-05 -9.743928711e-06 -7.628702265e-07 -1.684937935e-07)
5(0.0006887089427 0.0002045609654 1.284873904e-05 2.348373352e-06 5.178789856e-07)
)


60
(
5(-0.09840579808 -0.02118165515 -0.06854977392 -0.04218772056 -0.04222747922)
5(0.02722877478 0.01830787323 0.2483842344 0.07238630267 -0.4391675081)
5(0.05191235843 0.1487905483 0.05044971556 0.08884048011 0.1548134872)
5(0.04304051979 0.1343722618 -0.08425267696 -0.09081437508 -0.2293721752)
5(-0.0804086324 0.1722778641 -0.09327759743 -0.02842083868 -0.1513687136)
5(-0.142767156 -0.05507675495 0.05435929869 -0.03982642551 0.3982577094)
5(0.3014122289 -0.104690214 -0.1486190446 -0.09025218174 -0.4047059495)
5(-0.2022074895 0.1104007846 0.098203278 0.01390992388 0.3882736137)
5(0.09311400299 -0.1243293848 -0.1252713962 -0.03230688237 -0.5880318475)
5(-0.05769166047 0.2140646223 0.1643951 -0.03128613478 0.5228382207)
5(-0.1886972546 -0.1363049399 -0.1202680374 -0.03883491719 -0.6693719408)
5(0.4677374586 0.1367750984 0.09682927818 -0.001567784393 0.617102689)
5(-0.5285818203 0.01120224562 -0.0546656694 -0.02616473661 -0.7191821449)
5(0.8683522708 0.07815988486 0.123287479 0.1257263837 0.7767753204)
5(-0.3795104755 0.14588085 0.1574174002 0.08094452692 -0.6783530851)
5(0.1928958645 0.07670062405 0.1757864128 0.2843001536 0.9183611381)
5(0.8147482784 0.5636999362 0.4166509249 0.1604258673 -0.3337152038)
5(-0.4890615134 0.3752310005 0.2993496856 0.5540804929 0.5002971722)
5(1.499646583 0.7402504655 0.8089341538 0.5955290774 0.7548310487)
5(0.4537082854 0.9119960813 0.8456943667 0.8161894318 0.1409098963)
5(0.60583736 1.132128981 1.173469872 1.230554334 1.485273591)
5(2.804711298 1.740008449 1.85054249 1.347563327 0.9536054437)
5(1.290478363 2.252213884 2.035120736 1.956382108 1.894065503)
5(1.885326127 2.660850628 2.693242714 2.639888519 2.124508234)
5(4.271283458 3.358195547 3.662634342 3.108319945 2.858768574)
5(4.447679408 4.562161113 4.329688241 3.930490264 3.475900682)
5(4.439538816 5.470822896 5.111594669 4.983888376 4.487956185)
5(5.599011904 6.471549533 6.447104661 5.6152631 4.304812095)
5(9.122290241 7.840480147 7.895548515 6.630579625 6.024953855)
5(9.007202431 9.763703493 9.045022518 7.986347543 7.050937699)
5(11.82088605 11.02152877 10.2028883 8.805527546 7.126305893)
5(13.07096087 12.04880925 11.92547032 9.796865426 7.970156746)
5(14.48904178 14.36654637 12.73860802 10.58358293 8.886804392)
5(17.81434957 15.58803279 13.89709484 11.16280146 7.665143452)
5(17.95471786 16.69324235 14.31846201 11.31960978 8.667123363)
5(20.7074906 17.47188462 14.49401223 10.92075853 7.535364153)
5(19.90577877 17.35405659 14.38658384 10.11121421 6.512824614)
5(21.37812184 17.18294046 13.16038819 8.926039069 5.066081175)
5(19.96535402 16.32162918 11.76771639 7.201326156 3.178598621)
5(19.00713403 14.28933207 9.928590231 5.130523424 1.450114239)
5(16.89080264 12.14396911 7.341203299 2.990394664 -0.7768169345)
5(14.28272199 9.40246536 4.848016309 0.776840528 -2.101284722)
5(10.94690352 6.399327277 2.197587858 -1.019919263 -3.182315133)
5(7.969065747 3.807976282 0.2531483956 -2.152137939 -3.213589627)
5(4.846382612 1.508545664 -0.9389999549 -2.450102028 -2.642397584)
5(2.287131052 -0.06937543689 -1.432499706 -1.881246424 -1.426993449)
5(0.5698241375 -0.7629203767 -1.130130592 -0.729590229 0.1494893613)
5(-0.3305691073 -0.6719293228 -0.1526327722 0.5778132359 1.400307264)
5(-0.5479295899 -0.0630671416 0.9259854107 1.691045897 2.268326127)
5(-0.1239247917 0.7256825246 1.764459058 2.32224906 2.444658033)
5(0.404656514 1.406559476 2.077212111 2.201541389 1.985313993)
5(0.9430336359 1.560864306 1.88681206 1.678971367 1.288251831)
5(1.307475174 1.540682781 1.267308124 1.030866971 0.6817879275)
5(1.123206027 1.069829197 0.7081363718 0.4451627084 0.2569044256)
5(0.967317882 0.5965237331 0.2773921753 0.1544015291 0.07915343945)
5(0.5031792698 0.2547315528 0.08018618193 0.03482969605 0.01479444885)
5(0.2492791303 0.07275218727 0.01266513533 0.004661576932 0.001787709889)
5(0.08875991845 0.01590671516 0.001509738856 0.000333190379 8.671149494e-05)
5(0.02990353188 0.001404513517 7.844703968e-05 6.057369727e-06 5.788550849e-07)
5(0.0230008566 0.004691595942 -0.0001863483045 -1.003452648e-06 -2.248691617e-06)
)


60
(
5(-0.4340480801 -0.2610630736 -0.08206904262 0.0009823829852 -0.02130768758)
5(-0.6086665985 0.05862535594 0.2364757174 0.06123340937 -0.2136206575)
5(0.5056848726 0.2206107768 0.08609327606 0.07350134217 -0.2960364434)
5(-0.1554144851 0.2255526371 -0.181994733 -0.08681124485 0.4255120543)
5(-0.2061781672 0.3563913537 -0.1615528794 -0.1704824716 -0.2787915163)
5(-0.2459684296 -0.1085996576 0.1098591216 0.07961970641 -0.5218520661)
5(0.6932800915 -0.06936554716 -0.2330791339 -0.2317214239 1.015140093)
5(-1.005103108 -0.009388273677 0.1029920233 0.1165530279 -0.9860968132)
5(1.277680221 -0.08750092769 -0.1900771873 -0.1653281216 0.2957250698)
5(-1.131669958 0.0690148504 0.2128284596 0.05419791034 -0.3259892128)
5(1.036180324 -0.09390333413 -0.2099343374 -0.2086393907 -0.001838708979)
5(-0.9850676796 0.1814658207 0.1917275626 0.02666265843 -0.06916089257)
5(0.7455323603 -0.1966753026 -0.1338700751 -0.08727907512 -0.1958034439)
5(-0.2139086626 0.4341786339 0.274885321 0.1566973845 0.07330631884)
5(0.2210951521 0.1062420143 0.08573296463 0.07278122462 -0.1530080722)
5(0.9345398274 0.6112803726 0.341892573 0.3264612607 0.2178910726)
5(-0.9582577445 0.2648474567 0.4181412329 0.2167172131 0.4881507771)
5(2.539978921 0.6081121623 0.5836932105 0.8156831412 0.4946142774)
5(-0.5840209278 1.172095406 1.114869487 0.8764278957 0.7386193079)
5(2.238947145 1.207792858 1.138955563 1.382132986 0.6442740736)
5(1.001662153 2.286817523 2.172083664 1.761792382 2.843205493)
5(1.406195005 2.159257136 2.387173353 2.252961897 0.5012730038)
5(5.370899525 3.019189834 3.294291252 3.147463437 3.749620557)
5(3.454081361 4.433431752 4.276254112 3.643119894 3.429369308)
5(3.244072043 5.713510573 5.307920939 5.02048619 2.980394433)
5(8.648830972 6.598573448 6.855869401 6.574060458 7.077325613)
5(6.745196526 8.638275465 8.320960409 7.95215786 6.927612231)
5(11.4306807 10.13788756 10.67336329 9.402458517 7.129157593)
5(11.94799234 12.74539577 12.34040897 10.97177297 11.70361162)
5(16.58826124 15.25827733 14.46100352 13.2498442 8.898282584)
5(13.14355362 17.43813225 16.56044672 14.56357629 13.93342422)
5(22.89409624 20.39945654 19.14906091 16.44219754 12.74457454)
5(23.86658789 22.53424012 21.29330421 17.85340179 15.80222336)
5(25.8389456 24.79072378 22.86300327 19.12048115 13.86694442)
5(29.63154601 27.25165696 24.6584286 19.8055159 15.88282817)
5(31.58111097 28.20400496 24.94124954 20.01741317 15.26967165)
5(32.17869936 29.53642201 25.20682844 19.39271939 13.78445345)
5(33.6083533 28.98334123 24.25948107 18.06642933 11.86336431)
5(33.68564859 28.04380763 22.493937 15.64748386 9.347952869)
5(31.12008159 26.18808153 19.86433736 12.70689888 6.956271378)
5(29.48965962 22.95844914 16.34112797 9.751496627 3.929278193)
5(25.81269062 19.1878265 12.47168021 6.186644156 0.508111429)
5(20.18496369 14.79967516 8.578859804 2.974337867 -1.322767901)
5(16.21812498 10.33072864 4.880830094 0.4077246669 -2.644360023)
5(11.36396539 6.397412745 1.911379195 -1.311709506 -3.04727182)
5(7.092702261 3.088843155 0.003525633638 -1.806005209 -2.09995497)
5(3.609730887 0.878181849 -0.7832138415 -1.254670787 -0.7749972421)
5(1.291217911 -0.2223133799 -0.5381769609 -0.09386066048 0.94589809)
5(-0.02294041035 -0.4131659747 0.3151885049 1.282546126 2.203178005)
5(-0.397984265 0.1766302181 1.354725196 2.316991879 3.030029725)
5(-0.08282828458 0.9183175864 2.092246262 2.764066282 2.864484657)
5(0.4389644695 1.546068803 2.366151082 2.440725186 2.293685387)
5(0.9340505246 1.812593266 1.935847998 1.795738988 1.298403413)
5(1.268389599 1.641407102 1.408776916 0.9876541622 0.6553590755)
5(1.244015683 1.183026027 0.7512261306 0.4214689338 0.2154815324)
5(1.135422445 0.7185605057 0.2798531898 0.1268511946 0.0523227703)
5(0.7072322855 0.3365305301 0.08351432932 0.02455015438 0.007932152938)