/*--------------------------------*- C++ -*----------------------------------*\
| =========                 |                                                 |
| \\      /  F ield         | OpenFOAM: The Open Source CFD Toolbox           |
|  \\    /   O peration     | Version:  2.3.1                                 |
|   \\  /    A nd           | Web:      www.OpenFOAM.org                      |
|    \\/     M anipulation  |                                                 |
\*---------------------------------------------------------------------------*/
FoamFile
{
    version     2.0;
    format      ascii;
    class       dictionary;
    location    "constant";
    object      la_i6;
}
// * * * * * * * * * * * * * * * * * * * * * * * * * * * * * * * * * * * * * //

la_i6_table
60
(

60
(
5(0.3316762647 1.436869871 2.270825998 0.005501781344 -0.2418166116)
5(0.3273121484 0.9154010418 1.556681266 0.004425516458 -0.1633454483)
5(0.2257052291 0.7454975473 1.416842509 0.004282941043 -0.1182757677)
5(0.1234658981 0.7274940928 1.550233005 0.003447619666 -0.07245984765)
5(0.0995684573 0.8491482266 1.693072555 0.003622960203 -0.1742071197)
5(0.1487627803 0.9752065267 1.446837297 0.003795971736 -0.1426438007)
5(0.206137772 0.9568338602 1.280301725 0.003533841905 -0.1342969719)
5(0.182010214 0.8868126233 1.340248107 0.003631443973 -0.1456263007)
5(0.186432764 0.9033770241 1.342744532 0.003645346161 -0.1213352301)
5(0.1840979341 0.9000631425 1.37708192 0.003660944058 -0.1282460854)
5(0.1801144834 0.906536215 1.417373761 0.003638608298 -0.1333417436)
5(0.1803901463 0.9070823918 1.388058346 0.003597617365 -0.1326063965)
5(0.1747748755 0.8991919591 1.349020426 0.003621938767 -0.1314814489)
5(0.1804355628 0.9078515172 1.351646285 0.003582186597 -0.1296539961)
5(0.17644882 0.8898799094 1.327210028 0.003545228498 -0.1284846603)
5(0.1733360415 0.8823213951 1.318984078 0.003546100355 -0.1263239413)
5(0.1718353205 0.8734126519 1.311300891 0.003516797872 -0.1255632901)
5(0.1697629585 0.8615996172 1.300055171 0.003516100598 -0.1266130891)
5(0.1659090429 0.8470316263 1.288960148 0.003492279422 -0.1259930992)
5(0.1641189131 0.8501011211 1.290972471 0.003517058543 -0.1271090012)
5(0.1626017837 0.8433257894 1.277251981 0.003542079781 -0.1275754029)
5(0.1596834426 0.8305458545 1.27541664 0.003477222276 -0.1243101886)
5(0.1593162601 0.8263383147 1.267543342 0.003475207993 -0.1249471435)
5(0.1553866116 0.8293367855 1.267433472 0.003500194412 -0.1269891345)
5(0.1541328106 0.8328649348 1.266196412 0.003531104529 -0.1286693895)
5(0.1532101856 0.8315935653 1.281535967 0.003601495223 -0.1318145432)
5(0.1534493588 0.8356746206 1.282855519 0.003660116459 -0.1345722058)
5(0.1517338405 0.8438151588 1.300528016 0.003739472921 -0.1379586894)
5(0.1535424309 0.864172073 1.321165408 0.003810859427 -0.1416065693)
5(0.1547141337 0.8907594952 1.344638168 0.003872704477 -0.1455066675)
5(0.158305203 0.9249855078 1.38591973 0.00400916344 -0.1525723739)
5(0.1630734759 0.9603319577 1.421712817 0.004107922328 -0.1562184467)
5(0.1678441359 1.005052438 1.472847851 0.004256899459 -0.1633357605)
5(0.1753801478 1.063992945 1.54381974 0.004423682267 -0.171058546)
5(0.1860824444 1.128308353 1.608341735 0.004609684962 -0.1794837938)
5(0.197613213 1.214949182 1.715865187 0.004830348148 -0.1896828792)
5(0.2141479109 1.287727761 1.760155891 0.005025409164 -0.1986916457)
5(0.2315520846 1.403825281 1.86998586 0.005264445738 -0.206984342)
5(0.2547641084 1.515014484 1.999029884 0.00555444856 -0.2134119034)
5(0.2834729728 1.648372959 2.137689638 0.005404978567 -0.2394569847)
5(0.3113325857 1.768646164 2.223689347 0.005564463766 -0.2636678663)
5(0.3414609074 1.913254648 2.317536464 0.005894199409 -0.2806250869)
5(0.377195733 2.054360808 2.376051632 0.006721194739 -0.288619004)
5(0.416460933 2.251601709 2.573406528 0.007301354113 -0.3040947909)
5(0.4543942591 2.389703535 2.61054052 0.007420872931 -0.3159553081)
5(0.4888481651 2.52314624 2.534229724 0.007906998613 -0.3308689055)
5(0.520567177 2.319179425 2.723050322 0.008240732836 -0.3428440933)
5(0.5449694661 2.416168198 2.898892354 0.008451729218 -0.354008799)
5(0.5932906891 2.192150843 3.057010249 0.008705091899 -0.3659649008)
5(0.4370818184 2.222295026 3.103065155 0.008838248351 -0.3703273448)
5(0.425672591 2.632098308 3.169438027 0.009186100065 -0.3821492728)
5(0.4857087443 2.787476293 3.256180951 0.009395476637 -0.3888982009)
5(0.5513129062 2.893763748 3.360641991 0.009633130943 -0.3914519583)
5(0.611856487 2.992019101 3.521175601 0.009783621777 -0.3968408638)
5(0.6418312766 3.095450885 3.634685643 0.01018147694 -0.4043598033)
5(0.7491891774 3.326578915 3.811618868 0.01032886256 -0.4026392941)
5(0.8947834022 3.718427401 4.029072736 0.01057477875 -0.4135856171)
5(1.056973933 4.336072746 4.465139299 0.011079193 -0.4207621652)
5(1.081219431 4.745051984 5.192854313 0.0107016087 -0.4467535153)
5(-1.37688599e-05 1.37310542e-05 -1.826143838e-18 -0.008003282145 2.054634453e-05)
)


60
(
5(-0.0002439009502 -5.761501811e-06 -1.031674372e-17 -0.03228322205 4.219154213e-05)
5(22.78718647 -0.133767594 -11.26941296 56.90628873 161.2306043)
5(1.633845776 3.739780617 -107.2130464 -50.2918379 12.39180127)
5(1.015876176 0.2261616112 -41.91901175 -47.45245974 -2.400433847)
5(2.759000576 -9.590049819 -86.11700178 -26.10776877 0.9465201208)
5(0.8180230632 -5.458953136 -44.51704953 -6.435044969 -3.810518595)
5(-2.883481673 -6.415869403 25.52641811 -2.137855573 -5.642073349)
5(0.50018544 -5.059763924 2.37971523 -6.052867757 -3.049507027)
5(0.454247669 7.270642144 7.577288309 8.520621613 -0.3517963044)
5(0.6434447387 -1.200045276 -4.476084226 -8.49161511 1.385285164)
5(0.1419607043 -9.437687385 -6.154697167 -9.268983687 -1.284729992)
5(0.2689524646 -2.715881448 -16.95008064 -7.912006997 -4.903275688)
5(-2.302136686 -7.57579752 -10.56769725 -1.470201291 -6.165845523)
5(-0.8976475175 -9.553046103 -10.05451725 -17.95765031 -6.675732834)
5(-1.796080513 -4.762830466 -5.429849957 -9.462396508 -9.514394601)
5(-3.159834713 -11.40712906 -11.06181951 -10.51620482 -11.49348079)
5(-3.768506315 -11.9744424 -17.63864229 -21.27161457 -14.60070916)
5(-4.125277935 -18.83985531 -18.94962779 -18.52355264 -16.81029369)
5(-5.759715384 -13.31382223 -20.94775831 -22.39297506 -21.56133126)
5(-7.990864387 -19.72973398 -22.63919347 -30.24955132 -26.47572396)
5(-9.643800663 -23.58731946 -31.76488025 -29.85636395 -28.76361013)
5(-9.844248016 -28.66773086 -30.33799416 -39.89380191 -31.46496311)
5(-11.73437393 -24.61889959 -33.14099743 -41.26161158 -36.40805275)
5(-13.83228669 -33.58473948 -43.15336414 -32.75424695 -39.59068816)
5(-16.2463924 -34.64667675 -28.72108607 -39.47791496 -41.74224323)
5(-17.91700933 -45.23520149 -52.72682492 -43.64754913 -45.32890053)
5(-21.1397776 -35.8964467 -50.25448782 -49.58439012 -44.89642569)
5(-21.19210786 -44.09773168 -46.58166764 -52.70823585 -47.08527809)
5(-22.93879652 -48.38021057 -56.35532894 -50.55170184 -48.01710381)
5(-25.91019326 -46.67401021 -52.88241439 -54.44710781 -49.65370289)
5(-27.87094309 -50.77320719 -59.67739006 -51.41493491 -49.6900262)
5(-28.25162144 -52.30741255 -48.59787249 -54.59555121 -51.10567426)
5(-30.42598601 -52.19710065 -54.76051046 -49.2799213 -48.38773492)
5(-29.03879655 -52.03503519 -49.51378248 -46.38387858 -47.81456944)
5(-30.8435225 -49.72346085 -47.68131943 -40.52125149 -47.13448028)
5(-30.36921097 -54.20683697 -51.10419237 -49.46510673 -44.02162996)
5(-30.68684289 -45.76903494 -53.43462228 -31.09553968 -40.08054099)
5(-32.32349582 -47.42130446 -35.33276936 -23.16931638 -37.22336271)
5(-34.46316707 -28.91205561 -24.89403676 -28.98933037 -35.75621381)
5(-31.79002537 -44.17686937 -35.5037756 -14.94283619 -32.13199151)
5(-26.19255885 -5.626653264 -13.03835322 -16.9183288 -27.4244206)
5(-23.45658272 -30.0122891 -23.58714868 -9.121420862 -20.244319)
5(-23.23064209 -18.89659852 1.059156171 13.97569644 -15.21072522)
5(-26.57076531 22.78965843 2.607286461 -0.8933154699 -12.16358264)
5(-21.49975563 1.491361124 7.455609451 -12.26628446 -12.75359523)
5(-18.44273984 -1.359346081 2.251557026 -20.99216913 -11.61609573)
5(-12.10388379 -9.354168774 29.05182261 -24.2041123 -9.898213372)
5(-18.16161759 24.56760487 8.628096438 -23.84677469 -8.229624562)
5(-19.80482784 15.99519051 -10.53907409 -19.56737636 -7.716772393)
5(-22.63986231 35.29644911 -21.92859432 -22.45992338 -7.631540354)
5(-17.14951211 -0.5681149602 -25.5278506 -19.53859435 -8.097229058)
5(-14.57633103 -15.92436733 -18.71409144 -15.84904033 -7.497348846)
5(-9.223391457 -29.82120039 -24.44560546 -15.58690291 -7.435973529)
5(-6.63508258 -16.55193573 -18.47678533 -10.47162684 -7.543322732)
5(-3.927742466 -21.26972819 -16.20145735 -11.12402869 -8.270073598)
5(-6.81935828 -17.4927178 -10.90962646 -8.920800492 -8.116995711)
5(-12.09429242 -11.62384966 -9.021299915 -5.096056541 -7.982188269)
5(11.37684525 -4.685586263 3.177708933 -2.567689355 -6.94871397)
5(4.894970268 -5.3613829 -4.377548869 -4.755114236 8.461868496)
5(0.3280291598 1.647455614 1.360487446 3.171028721 1.86488677)
)


60
(
5(-0.6262400489 -2.444971174 -2.286318098 -0.846486592 -0.2244722871)
5(0.4657195319 -32.91028733 102.4845851 66.29190561 87.70953092)
5(-6.349822779 -1.610663219 -38.05304729 -16.22078751 -23.16207454)
5(-1.598963696 10.47009388 -28.16872364 -19.48553362 -4.678613818)
5(-4.653606737 2.361136209 -36.67210658 -26.05138688 -12.49059228)
5(-0.9653361665 -11.71000567 -33.01311882 -17.38442512 -0.7306273241)
5(-2.38381327 0.7170395049 -7.164476239 -10.49988297 -5.929298164)
5(1.442165531 -1.406430893 2.668897211 -0.5441588546 -9.039816395)
5(-6.537599225 -2.738379627 1.099420696 -0.6000942623 4.330026024)
5(-6.340899114 -3.354028337 4.189051373 -3.400884837 -17.74530981)
5(-2.350694808 -7.140075628 -11.3416436 -11.78362859 -10.93570818)
5(-0.2999896768 -1.349263066 -9.625572245 -10.74760334 -11.63629412)
5(-10.70327664 -9.059993663 -13.78522787 -13.87598105 -15.71160178)
5(-5.596897474 -11.80431986 -9.968665898 -17.90500979 -19.40120881)
5(-14.66250381 -11.46763316 -19.26415613 -18.46604153 -26.05425153)
5(-1.429808013 -16.62015828 -13.9961035 -21.21164274 -25.68734672)
5(-18.75829259 -14.16418039 -27.41488607 -30.54540477 -42.24072649)
5(-15.97546593 -20.09517836 -21.9281611 -37.30703543 -36.60176498)
5(-17.62755157 -26.35465276 -38.45815648 -39.28137162 -47.08216089)
5(-30.03413218 -27.07343514 -36.32490036 -48.46950514 -50.34978779)
5(-12.65553419 -31.84835127 -46.89973423 -54.24911268 -70.96744097)
5(-38.66744687 -39.42219362 -42.50549564 -52.38557849 -60.14622493)
5(-31.15440791 -42.98921483 -56.07246539 -69.32751243 -72.13694879)
5(-43.90874166 -48.24735351 -60.39759817 -68.93636653 -78.58148245)
5(-34.65775752 -51.34606311 -67.54501891 -70.99779052 -88.58473719)
5(-50.61485173 -58.94138459 -69.62328769 -78.00277455 -74.96141868)
5(-59.49863187 -50.37412306 -64.04718443 -74.73539513 -93.03161242)
5(-37.31341779 -67.48464992 -79.62577494 -89.90863851 -80.94953115)
5(-71.74524284 -60.68076316 -72.66463869 -75.40181123 -98.3593498)
5(-52.15821117 -58.21835824 -76.93719494 -87.40915428 -71.45444475)
5(-68.19535713 -75.26507336 -83.6726052 -84.47873311 -95.37393049)
5(-65.99091318 -69.13988201 -71.48308074 -78.25820742 -82.02620396)
5(-68.31383691 -53.69658312 -80.35418444 -77.89425078 -83.75537588)
5(-70.57779813 -73.54110281 -82.07161596 -79.73343225 -70.72978623)
5(-90.61586849 -62.76105073 -59.17235884 -76.54897007 -72.41765616)
5(-44.36953154 -63.18905688 -74.16563245 -70.01190346 -71.14321588)
5(-46.45550301 -54.74029765 -65.31606152 -60.64188928 -53.07273041)
5(-78.4762412 -54.55968723 -59.12904354 -56.03653522 -57.11021923)
5(-51.2433019 -52.11291253 -59.35876114 -55.53999779 -52.51417121)
5(-59.71259585 -26.88104169 -37.2387745 -46.17351333 -29.66705209)
5(-26.19037694 -26.101817 -42.68502476 -36.47272267 -40.64769557)
5(-33.9298262 -26.08904458 -33.22189664 -39.89474655 -21.24344033)
5(-25.00942733 -14.74497642 -26.83175674 -32.93161601 -30.39345555)
5(-6.353479255 -19.66825859 -23.04108121 -16.18152122 -9.164461521)
5(-6.175409008 12.03619261 1.941864746 -19.92104439 -25.41637822)
5(7.991182509 15.71511507 -18.12248663 -16.01695195 -9.257721778)
5(14.24172854 -0.03077661069 -13.05566085 -10.38415553 -15.43143796)
5(25.02465391 0.4846897798 -11.37670612 -15.87224964 -13.85234048)
5(22.01471988 26.70482465 0.03169274845 -16.58422252 -14.15605407)
5(21.37105897 -3.427227821 -12.50326271 -11.60052253 -15.9011562)
5(18.85712017 1.5629724 -11.99748024 -15.45349911 -13.22064926)
5(16.33705661 -3.557634253 -11.6968231 -15.3228403 -13.8317809)
5(10.40809306 3.709263511 -16.2341716 -16.98250984 -15.18609939)
5(1.835533075 -15.48197779 -16.12740846 -10.65111253 -8.447884303)
5(-4.493788796 -11.38894362 -15.34375476 -14.79156109 -11.50480413)
5(-9.191389117 -11.66257915 -15.69939773 -10.33710271 -8.970142674)
5(-7.883602066 -12.73428113 -12.36473118 -10.67752272 -8.452121299)
5(-6.132453012 -8.279134172 -3.57920303 0.0350889128 -6.901770494)
5(22.30039734 2.443474434 2.886297421 -1.128545955 0.9055189056)
5(5.402160743 3.09076665 3.262443244 2.785104712 2.379375887)
)


60
(
5(-9.890913033 -8.047672644 -5.177204219 -3.276533715 -1.996689562)
5(-18.16080464 -62.32904252 98.75654194 53.4330424 -3.136632677)
5(-9.8641937 -4.783352041 -20.04949881 -10.28494642 -33.10577418)
5(-6.309939261 16.47488409 -30.12733234 -18.59516314 -17.96911217)
5(-3.906705778 4.347426933 -35.47524915 -25.15934138 -8.958775852)
5(-2.44297793 -9.765391553 -36.01896496 -31.09374822 -6.363298833)
5(-2.467876147 -7.386202667 -15.09715526 -13.86322852 -8.552121375)
5(-7.529943639 -6.063554837 -2.162121384 -2.184929415 -13.30212628)
5(-2.730492806 -0.06142791225 1.022795424 -3.436953457 -5.057957098)
5(-2.66191211 -9.783697936 -5.093422901 -13.22832628 -20.48561366)
5(-11.56500207 -7.408105715 -12.55104181 -16.21218581 -11.26048292)
5(-7.180584024 -13.41028317 -16.26127068 -15.45161778 -20.23612477)
5(-3.129335858 -13.63853378 -19.15998532 -23.00294021 -34.4238125)
5(-9.196863929 -17.57507115 -19.48027689 -31.20489883 -15.45532747)
5(-20.3068737 -16.90320488 -24.62642235 -30.87398767 -47.70406469)
5(-21.21203572 -24.06518864 -33.23444573 -35.42044208 -39.98331882)
5(-7.526505903 -30.97687264 -40.94293475 -52.27006944 -55.82039274)
5(-36.38165831 -32.2931338 -42.03192148 -52.21855374 -67.46557133)
5(-18.59267254 -43.95876615 -56.67940761 -66.03893042 -63.07152577)
5(-38.35558319 -47.47689746 -54.23120001 -68.06111862 -84.4926195)
5(-45.64447847 -47.27923298 -72.30101625 -87.75666902 -101.1546093)
5(-38.2306988 -65.535081 -78.09262034 -84.81394944 -87.60837596)
5(-35.60378979 -69.56266877 -88.51983831 -100.5092592 -110.9827631)
5(-70.25885511 -75.21474664 -82.60660647 -108.7236313 -96.93770881)
5(-63.33366359 -75.29911247 -101.8084701 -111.6445325 -138.1141249)
5(-65.83593081 -89.73741281 -108.2600959 -116.6418519 -124.8326867)
5(-76.48498248 -92.93383554 -112.1752132 -123.5411938 -113.2769415)
5(-75.3239478 -97.99107757 -114.6535963 -127.2756721 -149.2224446)
5(-82.49483605 -101.9260063 -118.4811531 -119.1973573 -98.93719149)
5(-88.15801219 -104.4895842 -122.8479265 -130.1239542 -153.7054987)
5(-89.35669095 -107.1972375 -125.255914 -127.0307445 -104.1117301)
5(-90.90045873 -106.1352092 -102.4191442 -123.1269423 -136.0151417)
5(-94.03186442 -105.6766519 -124.7636934 -116.6865301 -103.9189204)
5(-90.09486278 -103.6877091 -119.8058399 -117.1332397 -142.6366325)
5(-94.44809441 -97.8287913 -111.4439989 -111.9154629 -68.73601437)
5(-96.5842593 -96.07429434 -110.2641157 -107.1532192 -119.9742427)
5(-87.090234 -90.78103482 -84.04240006 -102.4520953 -102.8110795)
5(-74.05667646 -81.36677955 -95.7500627 -91.57531203 -58.10789915)
5(-69.17444401 -75.76545894 -86.00720632 -79.06214662 -100.2175607)
5(-62.96473944 -65.91742194 -70.66353347 -69.49791476 -44.26272481)
5(-53.69138166 -50.070408 -65.59805885 -70.80398528 -59.28805776)
5(-31.35480657 -36.40131006 -55.22898847 -53.35217656 -50.8552813)
5(-20.50788694 -25.74931778 -33.72094026 -47.45945739 -35.62879037)
5(-8.328704031 -16.55552967 -25.46041109 -34.55028264 -31.66303431)
5(5.777383454 -7.349051871 -31.98678149 -29.58335822 -22.12281936)
5(2.789720308 11.77764925 -4.030691789 -13.43843412 -6.967423576)
5(44.53987291 17.78902373 -11.57543298 -15.96423735 -29.08003612)
5(9.728317825 25.50311177 1.944761527 -9.837925366 6.234531507)
5(85.26829678 29.17835689 3.53370903 -8.016770841 -23.36536015)
5(35.25550508 24.80339191 5.064202492 -7.862066906 -8.155039601)
5(44.28910437 24.20472747 2.238931199 -4.38977377 -13.39833569)
5(54.80953317 33.65510813 2.843405065 -13.54734989 -13.40406298)
5(44.81787749 16.097496 -6.078211184 -12.20655224 -16.75729563)
5(32.11048961 5.614608654 -12.28333723 -16.1025258 -9.355017783)
5(23.45199263 4.697584687 -10.71578839 -13.86743504 -12.37132244)
5(13.87436334 -5.099316734 -12.10808712 -10.10102067 -12.9695024)
5(7.015083311 -7.24931774 -15.72817713 -17.19288049 -11.65178153)
5(8.024442355 -0.8237433833 -7.1616667 -3.343206824 -11.31435781)
5(33.30630944 15.74988315 12.48796719 4.146595306 7.365259345)
5(10.47949998 10.12866738 4.332526135 3.459628023 3.290879175)
)


60
(
5(-15.24585731 -8.707973316 -14.23843032 -12.47165089 -4.795240078)
5(-19.20627476 -94.6054072 85.4374163 41.63107987 -37.04703075)
5(-7.76727395 -13.99754791 -11.76690904 -11.838719 -29.20782907)
5(-6.505778472 25.44455399 -28.53680129 -19.85466598 -20.23686118)
5(-5.528932128 11.06309745 -38.67752377 -27.53321961 -16.32231165)
5(-8.272327888 -16.08382655 -38.1345569 -34.98502033 -12.87022604)
5(-2.501279168 -7.418278827 -19.21734275 -15.59559558 -7.602816759)
5(-5.047110731 -6.379460642 -5.731476104 -11.66826666 -20.45671379)
5(-9.179712581 -9.010345317 -1.173045654 -6.048682876 -13.18959472)
5(-2.979035961 -4.15053264 -7.399811146 -15.51197303 -20.25923988)
5(-14.91928857 -16.57065803 -17.79752326 -19.13497049 -21.21122407)
5(-6.737388301 -15.06409059 -21.62287883 -29.52694169 -32.44285644)
5(-25.06275253 -15.40465915 -29.3717954 -30.45840445 -29.23111133)
5(5.825929411 -24.35325956 -28.57603612 -38.53821771 -49.74519488)
5(-24.00336201 -26.72501955 -37.77345965 -42.98476084 -49.37234805)
5(-30.60125018 -36.16741186 -35.57647217 -55.81972856 -55.67497917)
5(-22.56926314 -37.03118264 -52.56420015 -66.05834355 -74.55282687)
5(-32.49392016 -46.15849374 -65.08111338 -64.64079573 -81.65277886)
5(-41.48165591 -56.60106006 -68.90211689 -88.69187589 -100.6016227)
5(-43.09269221 -61.8597502 -79.50194176 -96.86848879 -101.7510152)
5(-49.93345539 -70.43103667 -94.00094912 -109.3121128 -136.3229299)
5(-66.51910036 -83.96333117 -103.5431414 -121.8625233 -116.3743317)
5(-68.0622929 -89.63459916 -110.6867969 -128.7506887 -152.0871179)
5(-67.43247406 -100.1533847 -122.2166452 -137.4710085 -137.4248852)
5(-84.8682555 -109.3489512 -134.8578472 -148.0211418 -171.190052)
5(-84.19706498 -100.834157 -139.0145148 -156.5485657 -152.3275723)
5(-106.6525234 -127.5866548 -142.4242414 -160.0689727 -167.7979287)
5(-103.7346207 -129.8446743 -149.9884698 -162.5964724 -178.2786252)
5(-104.9631837 -130.2493012 -156.8149926 -164.9770573 -168.7662185)
5(-108.8538955 -132.5565541 -158.4603009 -164.006947 -164.4809233)
5(-111.1904219 -133.3033003 -153.8386694 -166.682965 -188.6398527)
5(-113.9019271 -136.6678803 -154.0786791 -159.4959605 -111.915989)
5(-119.9299417 -141.6010231 -151.8785436 -155.2384134 -182.3629098)
5(-125.2594381 -129.3250148 -144.3499467 -147.1463437 -146.6677811)
5(-112.1417692 -125.6167574 -142.115946 -143.8464448 -139.1170121)
5(-103.3165851 -118.0074516 -143.2261564 -140.6709187 -138.1233826)
5(-98.98601681 -110.2475008 -127.6929513 -131.2455357 -139.1450134)
5(-97.41144902 -103.4830732 -114.6947991 -118.5746756 -97.68610219)
5(-82.81202093 -91.2018843 -98.0187682 -104.3809405 -106.2271431)
5(-74.5514352 -82.76284201 -92.00757666 -102.5487495 -115.0072045)
5(-56.63134583 -65.09727879 -81.14381214 -89.39386493 -63.60221848)
5(-49.30933751 -49.01873837 -76.37720012 -75.73412542 -57.42060303)
5(-22.9230949 -36.81601702 -49.00790315 -69.67592108 -63.10787522)
5(-17.53454781 -16.0595263 -47.62975401 -51.86037892 -36.44499387)
5(26.8954243 -1.077797829 -6.302855511 -41.48648199 -40.73110009)
5(18.39660602 11.04886043 -23.67840995 -19.10391681 -20.48655539)
5(50.14735744 33.58233036 -15.07288541 -24.59487525 -12.50349941)
5(37.07001901 36.34605805 7.041254249 9.202413413 -5.338742627)
5(62.6968428 47.02894802 30.64268278 -1.274668035 -13.40379115)
5(78.96900061 53.61433302 18.16557009 6.36311938 7.761553066)
5(79.1941818 46.63957957 20.45439655 4.180271411 -5.247930032)
5(74.77876635 63.40476252 27.87271484 -3.632927188 -7.112595583)
5(77.52757546 53.18157211 18.79291845 13.94902757 1.841818268)
5(71.22338101 41.70037551 7.964404787 -6.11210822 -13.30910826)
5(63.54815053 31.06903103 4.525274492 -9.488555425 -9.078790995)
5(49.52938676 21.70948445 -2.620617737 -9.301334804 -14.5481301)
5(38.4285519 12.73918984 -11.33122244 -13.9296786 -11.9910485)
5(30.53970289 11.8902774 -0.8879215164 -5.416983659 -14.50333075)
5(49.36437736 27.31041847 21.77784133 12.8732387 13.00499181)
5(20.86874319 15.62213138 13.18382935 9.730337021 6.003371858)
)


60
(
5(-28.65977528 -32.42371128 -10.72873496 -9.653537479 -6.226368337)
5(-6.365710507 -126.5386476 69.7039873 24.35908152 -32.44224191)
5(-10.3137254 -20.3537601 -8.257425225 -14.83138547 -35.02005323)
5(-9.663304556 30.20106398 -30.01383073 -22.26359178 -21.61354228)
5(-6.015187404 13.40083906 -40.5001189 -30.84872496 -18.28608944)
5(-3.775890639 -15.69510605 -42.0774158 -38.36642706 -22.44533143)
5(-11.97748308 -8.051832575 -19.65182688 -21.83494072 -12.32006442)
5(-3.910042842 -11.02998175 -11.78349206 -13.90880077 -26.72276017)
5(-10.76631683 -7.106155737 -1.288425334 -11.27105957 -13.98345803)
5(-8.113753598 -14.93382133 -14.71515352 -18.31352493 -33.27288883)
5(-9.473801466 -13.93743485 -19.0584283 -26.41612755 -19.12549264)
5(-18.65363687 -21.06371136 -30.16181864 -33.92621777 -44.70110084)
5(-9.714357396 -23.53013728 -33.25200261 -39.45775419 -34.48413326)
5(-28.90133174 -28.37504047 -38.92051148 -48.06916334 -65.13847585)
5(-17.69142408 -34.7688553 -44.88776269 -56.47459531 -56.95046771)
5(-29.30814145 -39.8618955 -53.32287915 -69.05024224 -87.65312736)
5(-39.92831557 -52.13739966 -66.22402152 -78.19388665 -83.76586059)
5(-30.72189954 -57.40447933 -74.35470936 -94.37866922 -111.0645369)
5(-58.10804008 -69.00009255 -89.90862209 -106.4452492 -121.5553886)
5(-53.92311916 -78.02612353 -100.0022799 -120.1318743 -128.7533955)
5(-57.63967437 -88.46348374 -113.5610428 -136.4970543 -157.3207477)
5(-90.2568603 -102.4859268 -130.2355144 -146.5684462 -159.4827014)
5(-74.90874058 -113.1897894 -137.8981567 -162.1256043 -181.592233)
5(-87.25181539 -120.9180673 -150.5768543 -173.3329588 -191.0817959)
5(-111.1210629 -131.9229108 -164.1317524 -179.4283598 -184.9331278)
5(-114.158989 -142.5262127 -168.8918468 -191.035448 -209.6794205)
5(-105.542947 -150.4925101 -178.3179514 -199.67616 -211.2048705)
5(-123.1468538 -152.3567571 -183.6475682 -199.9761926 -201.5988491)
5(-144.496226 -160.8941523 -192.5951281 -202.3079234 -207.4061001)
5(-140.4992937 -170.1422409 -190.962442 -206.8322784 -222.9750803)
5(-134.4222518 -165.6888661 -185.9996088 -198.5108083 -198.7490909)
5(-136.1692086 -159.318081 -187.098782 -197.6529967 -196.6475893)
5(-128.1040325 -159.5876487 -183.5380257 -190.0933999 -202.5993087)
5(-147.4270752 -163.2486335 -178.5348304 -183.1144809 -172.0532987)
5(-138.0185439 -159.5546806 -165.0809044 -179.2876933 -179.0486139)
5(-125.6215871 -145.0341506 -157.0182627 -165.7116597 -160.2445612)
5(-124.0023501 -132.3655838 -152.1148385 -149.5636707 -158.625585)
5(-107.6968203 -114.1538721 -138.7866967 -145.5486398 -160.0795952)
5(-99.91088372 -101.4262656 -123.4205706 -141.2585793 -125.3575391)
5(-78.63249153 -90.50145829 -105.2870594 -113.9840133 -117.5006798)
5(-74.30877614 -68.91583535 -91.06064084 -99.53173818 -111.7996377)
5(-50.04716279 -54.35129525 -72.84560404 -100.7028089 -78.80956759)
5(-8.751911407 -41.40762281 -68.1401346 -85.22420235 -95.53694031)
5(3.303416806 -9.530276523 -54.01599789 -62.20162301 -46.2642676)
5(5.655834102 1.11644401 -27.56572841 -59.91103237 -43.55034956)
5(25.44989728 11.25705327 -19.6174173 -30.99492545 -46.19713976)
5(45.93665065 25.97195205 -21.35234092 -20.47510027 -9.474498027)
5(66.82333693 46.2528277 45.82690443 -8.827658519 -7.485725024)
5(72.75262338 57.912553 9.79426775 8.762474515 2.158258316)
5(89.03421354 67.30343822 33.05305724 15.00171958 -16.04453627)
5(87.14428019 78.29725237 47.65191858 29.1435686 56.28997532)
5(96.23595513 79.23436147 48.05996597 20.89703482 -7.95541062)
5(86.57545013 82.00006896 46.20168871 26.78293708 7.681224587)
5(104.4651913 82.64074417 44.57185251 21.52084884 8.746769971)
5(86.71441396 67.0361586 35.03507934 11.62718008 -1.115443807)
5(95.33771241 58.79466337 21.09470063 -1.258084055 -4.275818234)
5(75.58885878 51.42317315 12.44344729 -6.037439675 -13.86898444)
5(66.0802785 42.14398346 11.81421828 -6.205628127 -15.26804497)
5(72.92621382 43.32117623 31.83778162 22.45350828 19.35583389)
5(39.96079618 33.51458453 21.43731091 10.87972152 10.49157654)
)


60
(
5(-32.51451602 -31.77888655 -48.94856864 -36.68692327 -21.29772048)
5(-1.854771326 -160.5458567 52.32642472 5.491570589 -42.28321942)
5(-17.38351346 -31.39885152 -10.63605586 -20.19843196 -34.84776636)
5(-7.952421201 36.11996786 -29.82307648 -25.80656082 -34.98760156)
5(-7.656635628 17.78601661 -43.50750291 -32.25829329 -23.02095821)
5(-5.038621827 -15.89765758 -43.42145017 -42.98302537 -16.38215048)
5(-16.59250741 -10.84849197 -23.42759631 -25.54334829 -34.44195754)
5(0.6876073294 -11.04870497 -15.28493965 -20.91135981 -15.45178731)
5(-22.88469202 -11.92834915 -5.443084492 -15.00904163 -30.4201037)
5(-1.373612205 -15.84412831 -17.74279586 -24.85428847 -30.97642563)
5(-24.08057254 -19.03434249 -24.07294359 -31.15444471 -38.30611732)
5(-7.189916189 -25.35715445 -35.98662536 -42.06678581 -44.94302813)
5(-26.9135401 -27.07167596 -40.10191111 -47.90693872 -52.18013626)
5(-19.25482024 -37.00517078 -48.54004802 -57.76710828 -67.11944941)
5(-30.11524778 -40.94090917 -53.84692626 -68.09308535 -75.11428551)
5(-40.81206386 -52.04890267 -65.66193015 -81.80907517 -98.2122872)
5(-29.92269581 -57.51248297 -78.50338775 -94.3582451 -111.2548212)
5(-65.8790826 -69.80264365 -91.0983735 -112.1710169 -126.8649834)
5(-46.805999 -83.42433972 -107.2757468 -127.7394307 -148.4818374)
5(-77.63739817 -92.65421772 -119.0140094 -145.6535607 -156.8029809)
5(-71.45963939 -108.9383649 -138.7272961 -161.453542 -194.5328256)
5(-79.56639637 -119.2512657 -150.3323882 -176.6204442 -177.1038945)
5(-126.2644025 -133.2748703 -165.3684659 -191.8698174 -224.9951291)
5(-96.40367483 -145.4328442 -180.3217037 -204.5807166 -219.7405294)
5(-110.913506 -156.3917859 -191.9103982 -217.7477907 -227.7534055)
5(-156.7427199 -168.5201624 -205.4785716 -225.9814043 -257.7468514)
5(-131.4640467 -179.7951152 -212.0606116 -231.9302737 -240.1868586)
5(-133.0182827 -181.5104806 -214.4515015 -241.5929185 -245.8169767)
5(-164.2979001 -190.8579004 -224.4974245 -241.0004017 -270.3770531)
5(-169.799271 -200.3801689 -227.2500108 -235.5266212 -242.0644548)
5(-150.6499706 -192.0511421 -220.1161407 -237.4880376 -242.3386409)
5(-157.585001 -189.927182 -220.121769 -237.9553116 -230.4554265)
5(-180.3355778 -189.5293132 -222.2458411 -222.7203244 -245.9845241)
5(-158.913742 -183.9226988 -205.3387467 -213.502793 -210.6387884)
5(-153.708205 -174.4107827 -188.1403413 -210.279526 -199.0411563)
5(-142.394234 -163.7802552 -181.7840528 -196.6209063 -223.9077043)
5(-126.1439674 -151.1384966 -180.3028611 -170.6765606 -162.8234891)
5(-121.918126 -140.8842602 -156.3863705 -163.2756033 -157.981979)
5(-93.8651009 -120.6827285 -138.5087624 -160.9816904 -196.4027913)
5(-88.65847538 -102.0531185 -120.2778603 -135.8540123 -127.9607958)
5(-58.9331586 -73.27404578 -105.3598744 -120.190174 -122.3329218)
5(-55.90640928 -44.83639824 -88.4334637 -106.7638375 -127.7134642)
5(-55.32555294 -34.6345689 -54.80216571 -105.267204 -78.27694514)
5(-1.368648832 -15.79966092 -49.66602843 -82.39020187 -108.7536284)
5(24.12947806 5.266171398 -39.43889446 -67.97425424 -40.73333715)
5(41.7391573 15.8722 -27.76003603 -44.71843232 -72.62610266)
5(64.78112324 33.62343795 -12.18547402 -22.99311062 -19.00145846)
5(52.55571981 53.54879599 9.800072318 -9.912484475 -8.278785369)
5(67.96203527 60.45044262 27.50802237 -7.502999011 -4.267082895)
5(98.73915155 88.49322333 42.72165092 26.1740561 15.10766515)
5(86.57967383 82.75665455 54.16359966 39.59753419 23.2037744)
5(123.9425273 87.97291486 63.84093398 25.24966512 44.10963192)
5(107.6057754 102.7610837 69.42006522 80.64265107 27.00226984)
5(105.9621111 95.14110772 82.34103956 35.46593945 35.75031519)
5(107.079649 100.9554237 70.96082435 43.41940333 17.58916531)
5(94.21836041 89.42867945 62.672885 28.96634208 8.073307433)
5(100.0396437 88.71214742 52.63992076 16.89964833 -3.275603545)
5(92.06289228 78.99223126 43.26452367 13.78345037 -11.04290062)
5(97.2440574 71.07165086 45.69098748 31.86079886 25.873191)
5(107.4537709 56.59788841 31.33682446 22.32495063 5.820480211)
)


60
(
5(-28.32089581 -92.34234835 -77.79569065 -29.30751041 -15.02536875)
5(8.317340904 -199.2370241 30.09434358 -12.83726407 -49.98522872)
5(-12.03644518 -47.2483442 -14.31839118 -27.53785799 -39.17857408)
5(-16.2107778 39.86832509 -34.9274428 -29.4208472 -40.67641954)
5(-15.11034255 27.89164689 -46.03124606 -38.11203821 -27.3954765)
5(-4.579578853 -17.86522137 -40.64535746 -43.10456347 -28.16485171)
5(-9.67809773 -13.20092126 -29.85252769 -32.55055873 -28.83928702)
5(-15.7240455 -13.74706303 -16.44249353 -21.65832862 -32.92332623)
5(-7.028674477 -14.45513126 -13.91022478 -23.1693928 -25.21890618)
5(-20.76368936 -17.911837 -17.38302519 -28.04857484 -49.45829076)
5(-8.825509552 -24.03068694 -33.08820818 -40.45850135 -27.99782447)
5(-30.69756603 -29.38257549 -39.52937663 -47.01343035 -72.25777528)
5(-11.26189485 -34.1251899 -49.53105471 -57.79773447 -48.19254173)
5(-44.83269513 -41.88857037 -55.22329968 -67.49734681 -95.47639552)