/*--------------------------------*- C++ -*----------------------------------*\
| =========                 |                                                 |
| \\      /  F ield         | OpenFOAM: The Open Source CFD Toolbox           |
|  \\    /   O peration     | Version:  2.3.1                                 |
|   \\  /    A nd           | Web:      www.OpenFOAM.org                      |
|    \\/     M anipulation  |                                                 |
\*---------------------------------------------------------------------------*/
FoamFile
{
    version     2.0;
    format      ascii;
    class       dictionary;
    location    "constant";
    object      la_i2;
}
// * * * * * * * * * * * * * * * * * * * * * * * * * * * * * * * * * * * * * //

la_i2_table
60
(

60
(
5{0}
5(0 0 5.324645827e-08 0 0)
5(0 1.387936889e-08 -1.307269391e-07 -6.207597689e-11 -1.997211095e-07)
5(0 0 -4.437884105e-08 1.930960121e-09 2.716929536e-07)
5(0 0 0 3.792303917e-10 5.017167442e-07)
5(0 0 0 0 4.92212391e-08)
5{0}
5{0}
5{0}
5{0}
5{0}
5{0}
5{0}
5{0}
5{0}
5{0}
5{0}
5{0}
5{0}
5{0}
5{0}
5{0}
5{0}
5{0}
5{0}
5{0}
5{0}
5{0}
5{0}
5{0}
5{0}
5{0}
5{0}
5{0}
5{0}
5{0}
5{0}
5{0}
5{0}
5{0}
5{0}
5{0}
5{0}
5{0}
5{0}
5{0}
5{0}
5{0}
5{0}
5{0}
5{0}
5{0}
5{0}
5{0}
5{0}
5{0}
5{0}
5{0}
5{0}
5{0}
)


60
(
5{0}
5{0}
5(0 0 4.04109537e-06 0 0)
5(0 0 0 0 2.165009299e-05)
5(0 0 0 0 2.622673467e-06)
5{0}
5{0}
5{0}
5{0}
5{0}
5{0}
5{0}
5{0}
5{0}
5{0}
5{0}
5{0}
5{0}
5{0}
5{0}
5{0}
5{0}
5{0}
5{0}
5{0}
5{0}
5{0}
5{0}
5{0}
5{0}
5{0}
5{0}
5{0}
5{0}
5{0}
5{0}
5{0}
5{0}
5{0}
5{0}
5{0}
5{0}
5{0}
5{0}
5{0}
5{0}
5{0}
5{0}
5{0}
5{0}
5{0}
5{0}
5{0}
5{0}
5{0}
5{0}
5{0}
5{0}
5{0}
5{0}
)


60
(
5{0}
5{0}
5{0}
5{0}
5{0}
5{0}
5{0}
5{0}
5{0}
5{0}
5{0}
5{0}
5{0}
5{0}
5{0}
5{0}
5{0}
5{0}
5{0}
5{0}
5{0}
5{0}
5{0}
5{0}
5{0}
5{0}
5{0}
5{0}
5{0}
5{0}
5{0}
5{0}
5{0}
5{0}
5{0}
5{0}
5{0}
5{0}
5{0}
5{0}
5{0}
5{0}
5{0}
5{0}
5{0}
5{0}
5{0}
5{0}
5{0}
5{0}
5{0}
5{0}
5{0}
5{0}
5{0}
5{0}
5{0}
5{0}
5{0}
5{0}
)


60
(
5{0}
5{0}
5{0}
5{0}
5{0}
5{0}
5{0}
5{0}
5{0}
5{0}
5{0}
5{0}
5{0}
5{0}
5{0}
5{0}
5{0}
5{0}
5{0}
5{0}
5{0}
5{0}
5{0}
5{0}
5{0}
5{0}
5{0}
5{0}
5{0}
5{0}
5{0}
5{0}
5{0}
5{0}
5{0}
5{0}
5{0}
5{0}
5{0}
5{0}
5{0}
5{0}
5{0}
5{0}
5{0}
5{0}
5{0}
5{0}
5{0}
5{0}
5{0}
5{0}
5{0}
5{0}
5{0}
5{0}
5{0}
5{0}
5{0}
5{0}
)


60
(
5{0}
5{0}
5{0}
5{0}
5{0}
5{0}
5{0}
5{0}
5{0}
5{0}
5{0}
5{0}
5{0}
5{0}
5{0}
5{0}
5{0}
5{0}
5{0}
5{0}
5{0}
5{0}
5{0}
5{0}
5{0}
5{0}
5{0}
5{0}
5{0}
5{0}
5{0}
5{0}
5{0}
5{0}
5{0}
5{0}
5{0}
5{0}
5{0}
5{0}
5{0}
5{0}
5{0}
5{0}
5{0}
5{0}
5{0}
5{0}
5{0}
5{0}
5{0}
5{0}
5{0}
5{0}
5{0}
5{0}
5{0}
5{0}
5{0}
5{0}
)


60
(
5{0}
5{0}
5{0}
5{0}
5{0}
5{0}
5{0}
5{0}
5{0}
5{0}
5{0}
5{0}
5{0}
5{0}
5{0}
5{0}
5{0}
5{0}
5{0}
5{0}
5{0}
5{0}
5{0}
5{0}
5{0}
5{0}
5{0}
5{0}
5{0}
5{0}
5{0}
5{0}
5{0}
5{0}
5{0}
5{0}
5{0}
5{0}
5{0}
5{0}
5{0}
5{0}
5{0}
5{0}
5{0}
5{0}
5{0}
5{0}
5{0}
5{0}
5{0}
5{0}
5{0}
5{0}
5{0}
5{0}
5{0}
5{0}
5{0}
5{0}
)


60
(
5{0}
5{0}
5{0}
5{0}
5{0}
5{0}
5{0}
5{0}
5{0}
5{0}
5{0}
5{0}
5{0}
5{0}
5{0}
5{0}
5{0}
5{0}
5{0}
5{0}
5{0}
5{0}
5{0}
5{0}
5{0}
5{0}
5{0}
5{0}
5{0}
5{0}
5{0}
5{0}
5{0}
5{0}
5{0}
5{0}
5{0}
5{0}
5{0}
5{0}
5{0}
5{0}
5{0}
5{0}
5{0}
5{0}
5{0}
5{0}
5{0}
5{0}
5{0}
5{0}
5{0}
5{0}
5{0}
5{0}
5{0}
5{0}
5{0}
5{0}
)


60
(
5{0}
5{0}
5{0}
5{0}
5{0}
5{0}
5{0}
5{0}
5{0}
5{0}
5{0}
5{0}
5{0}
5{0}
5{0}
5{0}
5{0}
5{0}
5{0}
5{0}
5{0}
5{0}
5{0}
5{0}
5{0}
5{0}
5{0}
5{0}
5{0}
5{0}
5{0}
5{0}
5{0}
5{0}
5{0}
5{0}
5{0}
5{0}
5{0}
5{0}
5{0}
5{0}
5{0}
5{0}
5{0}
5{0}
5{0}
5{0}
5{0}
5{0}
5{0}
5{0}
5{0}
5{0}
5{0}
5{0}
5{0}
5{0}
5{0}
5{0}
)


60
(
5{0}
5{0}
5{0}
5{0}
5{0}
5{0}
5{0}
5{0}
5{0}
5{0}
5{0}
5{0}
5{0}
5{0}
5{0}
5{0}
5{0}
5{0}
5{0}
5{0}
5{0}
5{0}
5{0}
5{0}
5{0}
5{0}
5{0}
5{0}
5{0}
5{0}
5{0}
5{0}
5{0}
5{0}
5{0}
5{0}
5{0}
5{0}
5{0}
5{0}
5{0}
5{0}
5{0}
5{0}
5{0}
5{0}
5{0}
5{0}
5{0}
5{0}
5{0}
5{0}
5{0}
5{0}
5{0}
5{0}
5{0}
5{0}
5{0}
5{0}
)


60
(
5{0}
5{0}
5{0}
5{0}
5{0}
5{0}
5{0}
5{0}
5{0}
5{0}
5{0}
5{0}
5{0}
5{0}
5{0}
5{0}
5{0}
5{0}
5{0}
5{0}
5{0}
5{0}
5{0}
5{0}
5{0}
5{0}
5{0}
5{0}
5{0}
5{0}
5{0}
5{0}
5{0}
5{0}
5{0}
5{0}
5{0}
5{0}
5{0}
5{0}
5{0}
5{0}
5{0}
5{0}
5{0}
5{0}
5{0}
5{0}
5{0}
5{0}
5{0}
5{0}
5{0}
5{0}
5{0}
5{0}
5{0}
5{0}
5{0}
5{0}
)


60
(
5{0}
5{0}
5{0}
5{0}
5{0}
5{0}
5{0}
5{0}
5{0}
5{0}
5{0}
5{0}
5{0}
5{0}
5{0}
5{0}
5{0}
5{0}
5{0}
5{0}
5{0}
5{0}
5{0}
5{0}
5{0}
5{0}
5{0}
5{0}
5{0}
5{0}
5{0}
5{0}
5{0}
5{0}
5{0}
5{0}
5{0}
5{0}
5{0}
5{0}
5{0}
5{0}
5{0}
5{0}
5{0}
5{0}
5{0}
5{0}
5{0}
5{0}
5{0}
5{0}
5{0}
5{0}
5{0}
5{0}
5{0}
5{0}
5{0}
5{0}
)


60
(
5{0}
5{0}
5{0}
5{0}
5{0}
5{0}
5{0}
5{0}
5{0}
5{0}
5{0}
5{0}
5{0}
5{0}
5{0}
5{0}
5{0}
5{0}
5{0}
5{0}
5{0}
5{0}
5{0}
5{0}
5{0}
5{0}
5{0}
5{0}
5{0}
5{0}
5{0}
5{0}
5{0}
5{0}
5{0}
5{0}
5{0}
5{0}
5{0}
5{0}
5{0}
5{0}
5{0}
5{0}
5{0}
5{0}
5{0}
5{0}
5{0}
5{0}
5{0}
5{0}
5{0}
5{0}
5{0}
5{0}
5{0}
5{0}
5{0}
5{0}
)


60
(
5{0}
5{0}
5{0}
5{0}
5{0}
5{0}
5{0}
5{0}
5{0}
5{0}
5{0}
5{0}
5{0}
5{0}
5{0}
5{0}
5{0}
5{0}
5{0}
5{0}
5{0}
5{0}
5{0}
5{0}
5{0}
5{0}
5{0}
5{0}
5{0}
5{0}
5{0}
5{0}
5{0}
5{0}
5{0}
5{0}
5{0}
5{0}
5{0}
5{0}
5{0}
5{0}
5{0}
5{0}
5{0}
5{0}
5{0}
5{0}
5{0}
5{0}
5{0}
5{0}
5{0}
5{0}
5{0}
5{0}
5{0}
5{0}
5{0}
5{0}
)


60
(
5{0}
5{0}
5{0}
5{0}
5{0}
5{0}
5{0}
5{0}
5{0}
5{0}
5{0}
5{0}
5{0}
5{0}
5{0}
5{0}
5{0}
5{0}
5{0}
5{0}
5{0}
5{0}
5{0}
5{0}
5{0}
5{0}
5{0}
5{0}
5{0}
5{0}
5{0}
5{0}
5{0}
5{0}
5{0}
5{0}
5{0}
5{0}
5{0}
5{0}
5{0}
5{0}
5{0}
5{0}
5{0}
5{0}
5{0}
5{0}
5{0}
5{0}
5{0}
5{0}
5{0}
5{0}
5{0}
5{0}
5{0}
5{0}
5{0}
5{0}
)


60
(
5{0}
5{0}
5{0}
5{0}
5{0}
5{0}
5{0}
5{0}
5{0}
5{0}
5{0}
5{0}
5{0}
5{0}
5{0}
5{0}
5{0}
5{0}
5{0}
5{0}
5{0}
5{0}
5{0}
5{0}
5{0}
5{0}
5{0}
5{0}
5{0}
5{0}
5{0}
5{0}
5{0}
5{0}
5{0}
5{0}
5{0}
5{0}
5{0}
5{0}
5{0}
5{0}
5{0}
5{0}
5{0}
5{0}
5{0}
5{0}
5{0}
5{0}
5{0}
5{0}
5{0}
5{0}
5{0}
5{0}
5{0}
5{0}
5{0}
5{0}
)


60
(
5{0}
5{0}
5{0}
5{0}
5{0}
5{0}
5{0}
5{0}
5{0}
5{0}
5{0}
5{0}
5{0}
5{0}
5{0}
5{0}
5{0}
5{0}
5{0}
5{0}
5{0}
5{0}
5{0}
5{0}
5{0}
5{0}
5{0}
5{0}
5{0}
5{0}
5{0}
5{0}
5{0}
5{0}
5{0}
5{0}
5{0}
5{0}
5{0}
5{0}
5{0}
5{0}
5{0}
5{0}
5{0}
5{0}
5{0}
5{0}
5{0}
5{0}
5{0}
5{0}
5{0}
5{0}
5{0}
5{0}
5{0}
5{0}
5{0}
5{0}
)


60
(
5{0}
5{0}
5{0}
5{0}
5{0}
5{0}
5{0}
5{0}
5{0}
5{0}
5{0}
5{0}
5{0}
5{0}
5{0}
5{0}
5{0}
5{0}
5{0}
5{0}
5{0}
5{0}
5{0}
5{0}
5{0}
5{0}
5{0}
5{0}
5{0}
5{0}
5{0}
5{0}
5{0}
5{0}
5{0}
5{0}
5{0}
5{0}
5{0}
5{0}
5{0}
5{0}
5{0}
5{0}
5{0}
5{0}
5{0}
5{0}
5{0}
5{0}
5{0}
5{0}
5{0}
5{0}
5{0}
5{0}
5{0}
5{0}
5{0}
5{0}
)


60
(
5{0}
5{0}
5{0}
5{0}
5{0}
5{0}
5{0}
5{0}
5{0}
5{0}
5{0}
5{0}
5{0}
5{0}
5{0}
5{0}
5{0}
5{0}
5{0}
5{0}
5{0}
5{0}
5{0}
5{0}
5{0}
5{0}
5{0}
5{0}
5{0}
5{0}
5{0}
5{0}
5{0}
5{0}
5{0}
5{0}
5{0}
5{0}
5{0}
5{0}
5{0}
5{0}
5{0}
5{0}
5{0}
5{0}
5{0}
5{0}
5{0}
5{0}
5{0}
5{0}
5{0}
5{0}
5{0}
5{0}
5{0}
5{0}
5{0}
5{0}
)


60
(
5{0}
5{0}
5{0}
5{0}
5{0}
5{0}
5{0}
5{0}
5{0}
5{0}
5{0}
5{0}
5{0}
5{0}
5{0}
5{0}
5{0}
5{0}
5{0}
5{0}
5{0}
5{0}
5{0}
5{0}
5{0}
5{0}
5{0}
5{0}
5{0}
5{0}
5{0}
5{0}
5{0}
5{0}
5{0}
5{0}
5{0}
5{0}
5{0}
5{0}
5{0}
5{0}
5{0}
5{0}
5{0}
5{0}
5{0}
5{0}
5{0}
5{0}
5{0}
5{0}
5{0}
5{0}
5{0}
5{0}
5{0}
5{0}
5{0}
5{0}
)


60
(
5{0}
5{0}
5{0}
5{0}
5{0}
5{0}
5{0}
5{0}
5{0}
5{0}
5{0}
5{0}
5{0}
5{0}
5{0}
5{0}
5{0}
5{0}
5{0}
5{0}
5{0}
5{0}
5{0}
5{0}
5{0}
5{0}
5{0}
5{0}
5{0}
5{0}
5{0}
5{0}
5{0}
5{0}
5{0}
5{0}
5{0}
5{0}
5{0}
5{0}
5{0}
5{0}
5{0}
5{0}
5{0}
5{0}
5{0}
5{0}
5{0}
5{0}
5{0}
5{0}
5{0}
5{0}
5{0}
5{0}
5{0}
5{0}
5{0}
5{0}
)


60
(
5{0}
5{0}
5{0}
5{0}
5{0}
5{0}
5{0}
5{0}
5{0}
5{0}
5{0}
5{0}
5{0}
5{0}
5{0}
5{0}
5{0}
5{0}
5{0}
5{0}
5{0}
5{0}
5{0}
5{0}
5{0}
5{0}
5{0}
5{0}
5{0}
5{0}
5{0}
5{0}
5{0}
5{0}
5{0}
5{0}
5{0}
5{0}
5{0}
5{0}
5{0}
5{0}
5{0}
5{0}
5{0}
5{0}
5{0}
5{0}
5{0}
5{0}
5{0}
5{0}
5{0}
5{0}
5{0}
5{0}
5{0}
5{0}
5{0}
5{0}
)


60
(
5{0}
5{0}
5{0}
5{0}
5{0}
5{0}
5{0}
5{0}
5{0}
5{0}
5{0}
5{0}
5{0}
5{0}
5{0}
5{0}
5{0}
5{0}
5{0}
5{0}
5{0}
5{0}
5{0}
5{0}
5{0}
5{0}
5{0}
5{0}
5{0}
5{0}
5{0}
5{0}
5{0}
5{0}
5{0}
5{0}
5{0}
5{0}
5{0}
5{0}
5{0}
5{0}
5{0}
5{0}
5{0}
5{0}
5{0}
5{0}
5{0}
5{0}
5{0}
5{0}
5{0}
5{0}
5{0}
5{0}
5{0}
5{0}
5{0}
5{0}
)


60
(
5{0}
5{0}
5{0}
5{0}
5{0}
5{0}
5{0}
5{0}
5{0}
5{0}
5{0}
5{0}
5{0}
5{0}
5{0}
5{0}
5{0}
5{0}
5{0}
5{0}
5{0}
5{0}
5{0}
5{0}
5{0}
5{0}
5{0}
5{0}
5{0}
5{0}
5{0}
5{0}
5{0}
5{0}
5{0}
5{0}
5{0}
5{0}
5{0}
5{0}
5{0}
5{0}
5{0}
5{0}
5{0}
5{0}
5{0}
5{0}
5{0}
5{0}
5{0}
5{0}
5{0}
5{0}
5{0}
5{0}
5{0}
5{0}
5{0}
5{0}
)


60
(
5{0}
5{0}
5{0}
5{0}
5{0}
5{0}
5{0}
5{0}
5{0}
5{0}
5{0}
5{0}
5{0}
5{0}
5{0}
5{0}
5{0}
5{0}
5{0}
5{0}
5{0}
5{0}
5{0}
5{0}
5{0}
5{0}
5{0}
5{0}
5{0}
5{0}
5{0}
5{0}
5{0}
5{0}
5{0}
5{0}
5{0}
5{0}
5{0}
5{0}
5{0}
5{0}
5{0}
5{0}
5{0}
5{0}
5{0}
5{0}
5{0}
5{0}
5{0}
5{0}
5{0}
5{0}
5{0}
5{0}
5{0}
5{0}
5{0}
5{0}
)


60
(
5{0}
5{0}
5{0}
5{0}
5{0}
5{0}
5{0}
5{0}
5{0}
5{0}
5{0}
5{0}
5{0}
5{0}
5{0}
5{0}
5{0}
5{0}
5{0}
5{0}
5{0}
5{0}
5{0}
5{0}
5{0}
5{0}
5{0}
5{0}
5{0}
5{0}
5{0}
5{0}
5{0}
5{0}
5{0}
5{0}
5{0}
5{0}
5{0}
5{0}
5{0}
5{0}
5{0}
5{0}
5{0}
5{0}
5{0}
5{0}
5{0}
5{0}
5{0}
5{0}
5{0}
5{0}
5{0}
5{0}
5{0}
5{0}
5{0}
5{0}
)


60
(
5{0}
5{0}
5{0}
5{0}
5{0}
5{0}
5{0}
5{0}
5{0}
5{0}
5{0}
5{0}
5{0}
5{0}
5{0}
5{0}
5{0}
5{0}
5{0}
5{0}
5{0}
5{0}
5{0}
5{0}
5{0}
5{0}
5{0}
5{0}
5{0}
5{0}
5{0}
5{0}
5{0}
5{0}
5{0}
5{0}
5{0}
5{0}
5{0}
5{0}
5{0}
5{0}
5{0}
5{0}
5{0}
5{0}
5{0}
5{0}
5{0}
5{0}
5{0}
5{0}
5{0}
5{0}
5{0}
5{0}
5{0}
5{0}
5{0}
5{0}
)


60
(
5{0}
5{0}
5{0}
5{0}
5{0}
5{0}
5{0}
5{0}
5{0}
5{0}
5{0}
5{0}
5{0}
5{0}
5{0}
5{0}
5{0}
5{0}
5{0}
5{0}
5{0}
5{0}
5{0}
5{0}
5{0}
5{0}
5{0}
5{0}
5{0}
5{0}
5{0}
5{0}
5{0}
5{0}
5{0}
5{0}
5{0}
5{0}
5{0}
5{0}
5{0}
5{0}
5{0}
5{0}
5{0}
5{0}
5{0}
5{0}
5{0}
5{0}
5{0}
5{0}
5{0}
5{0}
5{0}
5{0}
5{0}
5{0}
5{0}
5{0}
)


60
(
5{0}
5{0}
5{0}
5{0}
5{0}
5{0}
5{0}
5{0}
5{0}
5{0}
5{0}
5{0}
5{0}
5{0}
5{0}
5{0}
5{0}
5{0}
5{0}
5{0}
5{0}
5{0}
5{0}
5{0}
5{0}
5{0}
5{0}
5{0}
5{0}
5{0}
5{0}
5{0}
5{0}
5{0}
5{0}
5{0}
5{0}
5{0}
5{0}
5{0}
5{0}
5{0}
5{0}
5{0}
5{0}
5{0}
5{0}
5{0}
5{0}
5{0}
5{0}
5{0}
5{0}
5{0}
5{0}
5{0}
5{0}
5{0}
5{0}
5{0}
)


60
(
5{0}
5{0}
5{0}
5{0}
5{0}
5{0}
5{0}
5{0}
5{0}
5{0}
5{0}
5{0}
5{0}
5{0}
5{0}
5{0}
5{0}
5{0}
5{0}
5{0}
5{0}
5{0}
5{0}
5{0}
5{0}
5{0}
5{0}
5{0}
5{0}
5{0}
5{0}
5{0}
5{0}
5{0}
5{0}
5{0}
5{0}
5{0}
5{0}
5{0}
5{0}
5{0}
5{0}
5{0}
5{0}
5{0}
5{0}
5{0}
5{0}
5{0}
5{0}
5{0}
5{0}
5{0}
5{0}
5{0}
5{0}
5{0}
5{0}
5{0}
)


60
(
5{0}
5{0}
5{0}
5{0}
5{0}
5{0}
5{0}
5{0}
5{0}
5{0}
5{0}
5{0}
5{0}
5{0}
5{0}
5{0}
5{0}
5{0}
5{0}
5{0}
5{0}
5{0}
5{0}
5{0}
5{0}
5{0}
5{0}
5{0}
5{0}
5{0}
5{0}
5{0}
5{0}
5{0}
5{0}
5{0}
5{0}
5{0}
5{0}
5{0}
5{0}
5{0}
5{0}
5{0}
5{0}
5{0}
5{0}
5{0}
5{0}
5{0}
5{0}
5{0}
5{0}
5{0}
5{0}
5{0}
5{0}
5{0}
5{0}
5{0}
)


60
(
5{0}
5{0}
5{0}
5{0}
5{0}
5{0}
5{0}
5{0}
5{0}
5{0}
5{0}
5{0}
5{0}
5{0}
5{0}
5{0}
5{0}
5{0}
5{0}
5{0}
5{0}
5{0}
5{0}
5{0}
5{0}
5{0}
5{0}
5{0}
5{0}
5{0}
5{0}
5{0}
5{0}
5{0}
5{0}
5{0}
5{0}
5{0}
5{0}
5{0}
5{0}
5{0}
5{0}
5{0}
5{0}
5{0}
5{0}
5{0}
5{0}
5{0}
5{0}
5{0}
5{0}
5{0}
5{0}
5{0}
5{0}
5{0}
5{0}
5{0}
)


60
(
5{0}
5{0}
5{0}
5{0}
5{0}
5{0}
5{0}
5{0}
5{0}
5{0}
5{0}
5{0}
5{0}
5{0}
5{0}
5{0}
5{0}
5{0}
5{0}
5{0}
5{0}
5{0}
5{0}
5{0}
5{0}
5{0}
5{0}
5{0}
5{0}
5{0}
5{0}
5{0}
5{0}
5{0}
5{0}
5{0}
5{0}
5{0}
5{0}
5{0}
5{0}
5{0}
5{0}
5{0}
5{0}
5{0}
5{0}
5{0}
5{0}
5{0}
5{0}
5{0}
5{0}
5{0}
5{0}
5{0}
5{0}
5{0}
5{0}
5{0}
)


60
(
5{0}
5{0}
5{0}
5{0}
5{0}
5{0}
5{0}
5{0}
5{0}
5{0}
5{0}
5{0}
5{0}
5{0}
5{0}
5{0}
5{0}
5{0}
5{0}
5{0}
5{0}
5{0}
5{0}
5{0}
5{0}
5{0}
5{0}
5{0}
5{0}
5{0}
5{0}
5{0}
5{0}
5{0}
5{0}
5{0}
5{0}
5{0}
5{0}
5{0}
5{0}
5{0}
5{0}
5{0}
5{0}
5{0}
5{0}
5{0}
5{0}
5{0}
5{0}
5{0}
5{0}
5{0}
5{0}
5{0}
5{0}
5{0}
5{0}
5{0}
)


60
(
5{0}
5{0}
5{0}
5{0}
5{0}
5{0}
5{0}
5{0}
5{0}
5{0}
5{0}
5{0}
5{0}
5{0}
5{0}
5{0}
5{0}
5{0}
5{0}
5{0}
5{0}
5{0}
5{0}
5{0}
5{0}
5{0}
5{0}
5{0}
5{0}
5{0}
5{0}
5{0}
5{0}
5{0}
5{0}
5{0}
5{0}
5{0}
5{0}
5{0}
5{0}
5{0}
5{0}
5{0}
5{0}
5{0}
5{0}
5{0}
5{0}
5{0}
5{0}
5{0}
5{0}
5{0}
5{0}
5{0}
5{0}
5{0}
5{0}
5{0}
)


60
(
5{0}
5{0}
5{0}
5{0}
5{0}
5{0}
5{0}
5{0}
5{0}
5{0}
5{0}
5{0}
5{0}
5{0}
5{0}
5{0}
5{0}
5{0}
5{0}
5{0}
5{0}
5{0}
5{0}
5{0}
5{0}
5{0}
5{0}
5{0}
5{0}
5{0}
5{0}
5{0}
5{0}
5{0}
5{0}
5{0}
5{0}
5{0}
5{0}
5{0}
5{0}
5{0}
5{0}
5{0}
5{0}
5{0}
5{0}
5{0}
5{0}
5{0}
5{0}
5{0}
5{0}
5{0}
5{0}
5{0}
5{0}
5{0}
5{0}
5{0}
)


60
(
5{0}
5{0}
5{0}
5{0}
5{0}
5{0}
5{0}
5{0}
5{0}
5{0}
5{0}
5{0}
5{0}
5{0}
5{0}
5{0}
5{0}
5{0}
5{0}
5{0}
5{0}
5{0}
5{0}
5{0}
5{0}
5{0}
5{0}
5{0}
5{0}
5{0}
5{0}
5{0}
5{0}
5{0}
5{0}
5{0}
5{0}
5{0}
5{0}
5{0}
5{0}
5{0}
5{0}
5{0}
5{0}
5{0}
5{0}
5{0}
5{0}
5{0}
5{0}
5{0}
5{0}
5{0}
5{0}
5{0}
5{0}
5{0}
5{0}
5{0}
)


60
(
5{0}
5{0}
5{0}
5{0}
5{0}
5{0}
5{0}
5{0}
5{0}
5{0}
5{0}
5{0}
5{0}
5{0}
5{0}
5{0}
5{0}
5{0}
5{0}
5{0}
5{0}
5{0}
5{0}
5{0}
5{0}
5{0}
5{0}
5{0}
5{0}
5{0}
5{0}
5{0}
5{0}
5{0}
5{0}
5{0}
5{0}
5{0}
5{0}
5{0}
5{0}
5{0}
5{0}
5{0}
5{0}
5{0}
5{0}
5{0}
5{0}
5{0}
5{0}
5{0}
5{0}
5{0}
5{0}
5{0}
5{0}
5{0}
5{0}
5{0}
)


60
(
5{0}
5{0}
5{0}
5{0}
5{0}
5{0}
5{0}
5{0}
5{0}
5{0}
5{0}
5{0}
5{0}
5{0}
5{0}
5{0}
5{0}
5{0}
5{0}
5{0}
5{0}
5{0}
5{0}
5{0}
5{0}
5{0}
5{0}
5{0}
5{0}
5{0}
5{0}
5{0}
5{0}
5{0}
5{0}
5{0}
5{0}
5{0}
5{0}
5{0}
5{0}
5{0}
5{0}
5{0}
5{0}
5{0}
5{0}
5{0}
5{0}
5{0}
5{0}
5{0}
5{0}
5{0}
5{0}
5{0}
5{0}
5{0}
5{0}
5{0}
)


60
(
5{0}
5{0}
5{0}
5{0}
5{0}
5{0}
5{0}
5{0}
5{0}
5{0}
5{0}
5{0}
5{0}
5{0}
5{0}
5{0}
5{0}
5{0}
5{0}
5{0}
5{0}
5{0}
5{0}
5{0}
5{0}
5{0}
5{0}
5{0}
5{0}
5{0}
5{0}
5{0}
5{0}
5{0}
5{0}
5{0}
5{0}
5{0}
5{0}
5{0}
5{0}
5{0}
5{0}
5{0}
5{0}
5{0}
5{0}
5{0}
5{0}
5{0}
5{0}
5{0}
5{0}
5{0}
5{0}
5{0}
5{0}
5{0}
5{0}
5{0}
)


60
(
5{0}
5{0}
5{0}
5{0}
5{0}
5{0}
5{0}
5{0}
5{0}
5{0}
5{0}
5{0}
5{0}
5{0}
5{0}
5{0}
5{0}
5{0}
5{0}
5{0}
5{0}
5{0}
5{0}
5{0}
5{0}
5{0}
5{0}
5{0}
5{0}
5{0}
5{0}
5{0}
5{0}
5{0}
5{0}
5{0}
5{0}
5{0}
5{0}
5{0}
5{0}
5{0}
5{0}
5{0}
5{0}
5{0}
5{0}
5{0}
5{0}
5{0}
5{0}
5{0}
5{0}
5{0}
5{0}
5{0}
5{0}
5{0}
5{0}
5{0}
)


60
(
5{0}
5{0}
5{0}
5{0}
5{0}
5{0}
5{0}
5{0}
5{0}
5{0}
5{0}
5{0}
5{0}
5{0}
5{0}
5{0}
5{0}
5{0}
5{0}
5{0}
5{0}
5{0}
5{0}
5{0}
5{0}
5{0}
5{0}
5{0}
5{0}
5{0}
5{0}
5{0}
5{0}
5{0}
5{0}
5{0}
5{0}
5{0}
5{0}
5{0}
5{0}
5{0}
5{0}
5{0}
5{0}
5{0}
5{0}
5{0}
5{0}
5{0}
5{0}
5{0}
5{0}
5{0}
5{0}
5{0}
5{0}
5{0}
5{0}
5{0}
)


60
(
5{0}
5{0}
5{0}
5{0}
5{0}
5{0}
5{0}
5{0}
5{0}
5{0}
5{0}
5{0}
5{0}
5{0}
5{0}
5{0}
5{0}
5{0}
5{0}
5{0}
5{0}
5{0}
5{0}
5{0}
5{0}
5{0}
5{0}
5{0}
5{0}
5{0}
5{0}
5{0}
5{0}
5{0}
5{0}
5{0}
5{0}
5{0}
5{0}
5{0}
5{0}
5{0}
5{0}
5{0}
5{0}
5{0}
5{0}
5{0}
5{0}
5{0}
5{0}
5{0}
5{0}
5{0}
5{0}
5{0}
5{0}
5{0}
5{0}
5{0}
)


60
(
5{0}
5{0}
5{0}
5{0}
5{0}
5{0}
5{0}
5{0}
5{0}
5{0}
5{0}
5{0}
5{0}
5{0}
5{0}
5{0}
5{0}
5{0}
5{0}
5{0}
5{0}
5{0}
5{0}
5{0}
5{0}
5{0}
5{0}
5{0}
5{0}
5{0}
5{0}
5{0}
5{0}
5{0}
5{0}
5{0}
5{0}
5{0}
5{0}
5{0}
5{0}
5{0}
5{0}
5{0}
5{0}
5{0}
5{0}
5{0}
5{0}
5{0}
5{0}
5{0}
5{0}
5{0}
5{0}
5{0}
5{0}
5{0}
5{0}
5{0}
)


60
(
5{0}
5{0}
5{0}
5{0}
5{0}
5{0}
5{0}
5{0}
5{0}
5{0}
5{0}
5{0}
5{0}
5{0}
5{0}
5{0}
5{0}
5{0}
5{0}
5{0}
5{0}
5{0}
5{0}
5{0}
5{0}
5{0}
5{0}
5{0}
5{0}
5{0}
5{0}
5{0}
5{0}
5{0}
5{0}
5{0}
5{0}
5{0}
5{0}
5{0}
5{0}
5{0}
5{0}
5{0}
5{0}
5{0}
5{0}
5{0}
5{0}
5{0}
5{0}
5{0}
5{0}
5{0}
5{0}
5{0}
5{0}
5{0}
5{0}
5{0}
)


60
(
5{0}
5{0}
5{0}
5{0}
5{0}
5{0}
5{0}
5{0}
5{0}
5{0}
5{0}
5{0}
5{0}
5{0}
5{0}
5{0}
5{0}
5{0}
5{0}
5{0}
5{0}
5{0}
5{0}
5{0}
5{0}
5{0}
5{0}
5{0}
5{0}
5{0}
5{0}
5{0}
5{0}
5{0}
5{0}
5{0}
5{0}
5{0}
5{0}
5{0}
5{0}
5{0}
5{0}
5{0}
5{0}
5{0}
5{0}
5{0}
5{0}
5{0}
5{0}
5{0}
5{0}
5{0}
5{0}
5{0}
5{0}
5{0}
5{0}
5{0}
)


60
(
5{0}
5{0}
5{0}
5{0}
5{0}
5{0}
5{0}
5{0}
5{0}
5{0}
5{0}
5{0}
5{0}
5{0}
5{0}
5{0}
5{0}
5{0}
5{0}
5{0}
5{0}
5{0}
5{0}
5{0}
5{0}
5{0}
5{0}
5{0}
5{0}
5{0}
5{0}
5{0}
5{0}
5{0}
5{0}
5{0}
5{0}
5{0}
5{0}
5{0}
5{0}
5{0}
5{0}
5{0}
5{0}
5{0}
5{0}
5{0}
5{0}
5{0}
5{0}
5{0}
5{0}
5{0}
5{0}
5{0}
5{0}
5{0}
5{0}
5{0}
)


60
(
5{0}
5{0}
5{0}
5{0}
5{0}
5{0}
5{0}
5{0}
5{0}
5{0}
5{0}
5{0}
5{0}
5{0}
5{0}
5{0}
5{0}
5{0}
5{0}
5{0}
5{0}
5{0}
5{0}
5{0}
5{0}
5{0}
5{0}
5{0}
5{0}
5{0}
5{0}
5{0}
5{0}
5{0}
5{0}
5{0}
5{0}
5{0}
5{0}
5{0}
5{0}
5{0}
5{0}
5{0}
5{0}
5{0}
5{0}
5{0}
5{0}
5{0}
5{0}
5{0}
5{0}
5{0}
5{0}
5{0}
5{0}
5{0}
5{0}
5{0}
)


60
(
5{0}
5{0}
5{0}
5{0}
5{0}
5{0}
5{0}
5{0}
5{0}
5{0}
5{0}
5{0}
5{0}
5{0}
5{0}
5{0}
5{0}
5{0}
5{0}
5{0}
5{0}
5{0}
5{0}
5{0}
5{0}
5{0}
5{0}
5{0}
5{0}
5{0}
5{0}
5{0}
5{0}
5{0}
5{0}
5{0}
5{0}
5{0}
5{0}
5{0}
5{0}
5{0}
5{0}
5{0}
5{0}
5{0}
5{0}
5{0}
5{0}
5{0}
5{0}
5{0}
5{0}
5{0}
5{0}
5{0}
5{0}
5{0}
5{0}
5{0}
)


60
(
5{0}
5{0}
5{0}
5{0}
5{0}
5{0}
5{0}
5{0}
5{0}
5{0}
5{0}
5{0}
5{0}
5{0}
5{0}
5{0}
5{0}
5{0}
5{0}
5{0}
5{0}
5{0}
5{0}
5{0}
5{0}
5{0}
5{0}
5{0}
5{0}
5{0}
5{0}
5{0}
5{0}
5{0}
5{0}
5{0}
5{0}
5{0}
5{0}
5{0}
5{0}
5{0}
5{0}
5{0}
5{0}
5{0}
5{0}
5{0}
5{0}
5{0}
5{0}
5{0}
5{0}
5{0}
5{0}
5{0}
5{0}
5{0}
5{0}
5{0}
)


60
(
5{0}
5{0}
5{0}
5{0}
5{0}
5{0}
5{0}
5{0}
5{0}
5{0}
5{0}
5{0}
5{0}
5{0}
5{0}
5{0}
5{0}
5{0}
5{0}
5{0}
5{0}
5{0}
5{0}
5{0}
5{0}
5{0}
5{0}
5{0}
5{0}
5{0}
5{0}
5{0}
5{0}
5{0}
5{0}
5{0}
5{0}
5{0}
5{0}
5{0}
5{0}
5{0}
5{0}
5{0}
5{0}
5{0}
5{0}
5{0}
5{0}
5{0}
5{0}
5{0}
5{0}
5{0}
5{0}
5{0}
5{0}
5{0}
5{0}
5{0}
)


60
(
5{0}
5{0}
5{0}
5{0}
5{0}
5{0}
5{0}
5{0}
5{0}
5{0}
5{0}
5{0}
5{0}
5{0}
5{0}
5{0}
5{0}
5{0}
5{0}
5{0}
5{0}
5{0}
5{0}
5{0}
5{0}
5{0}
5{0}
5{0}
5{0}
5{0}
5{0}
5{0}
5{0}
5{0}
5{0}
5{0}
5{0}
5{0}
5{0}
5{0}
5{0}
5{0}
5{0}
5{0}
5{0}
5{0}
5{0}
5{0}
5{0}
5{0}
5{0}
5{0}
5{0}
5{0}
5{0}
5{0}
5{0}
5{0}
5{0}
5{0}
)


60
(
5{0}
5{0}
5{0}
5{0}
5{0}
5{0}
5{0}
5{0}
5{0}
5{0}
5{0}
5{0}
5{0}
5{0}
5{0}
5{0}
5{0}
5{0}
5{0}
5{0}
5{0}
5{0}
5{0}
5{0}
5{0}
5{0}
5{0}
5{0}
5{0}
5{0}
5{0}
5{0}
5{0}
5{0}
5{0}
5{0}
5{0}
5{0}
5{0}
5{0}
5{0}
5{0}
5{0}
5{0}
5{0}
5{0}
5{0}
5{0}
5{0}
5{0}
5{0}
5{0}
5{0}
5{0}
5{0}
5{0}
5{0}
5{0}
5{0}
5{0}
)


60
(
5{0}
5{0}
5{0}
5{0}
5{0}
5{0}
5{0}
5{0}
5{0}
5{0}
5{0}
5{0}
5{0}
5{0}
5{0}
5{0}
5{0}
5{0}
5{0}
5{0}
5{0}
5{0}
5{0}
5{0}
5{0}
5{0}
5{0}
5{0}
5{0}
5{0}
5{0}
5{0}
5{0}
5{0}
5{0}
5{0}
5{0}
5{0}
5{0}
5{0}
5{0}
5{0}
5{0}
5{0}
5{0}
5{0}
5{0}
5{0}
5{0}
5{0}
5{0}
5{0}
5{0}
5{0}
5{0}
5{0}
5{0}
5{0}
5{0}
5{0}
)


60
(
5{0}
5{0}
5{0}
5{0}
5{0}
5{0}
5{0}
5{0}
5{0}
5{0}
5{0}
5{0}
5{0}
5{0}
5{0}
5{0}
5{0}
5{0}
5{0}
5{0}
5{0}
5{0}
5{0}
5{0}
5{0}
5{0}
5{0}
5{0}
5{0}
5{0}
5{0}
5{0}
5{0}
5{0}
5{0}
5{0}
5{0}
5{0}
5{0}
5{0}
5{0}
5{0}
5{0}
5{0}
5{0}
5{0}
5{0}
5{0}
5{0}
5{0}
5{0}
5{0}
5{0}
5{0}
5{0}
5{0}
5{0}
5{0}
5{0}
5{0}
)


60
(
5{0}
5{0}
5{0}
5{0}
5{0}
5{0}
5{0}
5{0}
5{0}
5{0}
5{0}
5{0}
5{0}
5{0}
5{0}
5{0}
5{0}
5{0}
5{0}
5{0}
5{0}
5{0}
5{0}
5{0}
5{0}
5{0}
5{0}
5{0}
5{0}
5{0}
5{0}
5{0}
5{0}
5{0}
5{0}
5{0}
5{0}
5{0}
5{0}
5{0}
5{0}
5{0}
5{0}
5{0}
5{0}
5{0}
5{0}
5{0}
5{0}
5{0}
5{0}
5{0}
5{0}
5{0}
5{0}
5{0}
5{0}
5{0}
5{0}
5{0}
)


60
(
5{0}
5{0}
5{0}
5{0}
5{0}
5{0}
5{0}
5{0}
5{0}
5{0}
5{0}
5{0}
5{0}
5{0}
5{0}
5{0}
5{0}
5{0}
5{0}
5{0}
5{0}
5{0}
5{0}
5{0}
5{0}
5{0}
5{0}
5{0}
5{0}
5{0}
5{0}
5{0}
5{0}
5{0}
5{0}
5{0}
5{0}
5{0}
5{0}
5{0}
5{0}
5{0}
5{0}
5{0}
5{0}
5{0}
5{0}
5{0}
5{0}
5{0}
5{0}
5{0}
5{0}
5{0}
5{0}
5{0}
5{0}
5{0}
5{0}
5{0}
)


60
(
5{0}
5{0}
5{0}
5{0}
5{0}
5{0}
5{0}
5{0}
5{0}
5{0}
5{0}
5{0}
5{0}
5{0}
5{0}
5{0}
5{0}
5{0}
5{0}
5{0}
5{0}
5{0}
5{0}
5{0}
5{0}
5{0}
5{0}
5{0}
5{0}
5{0}
5{0}
5{0}
5{0}
5{0}
5{0}
5{0}
5{0}
5{0}
5{0}
5{0}
5{0}
5{0}
5{0}
5{0}
5{0}
5{0}
5{0}
5{0}
5{0}
5{0}
5{0}
5{0}
5{0}
5{0}
5{0}
5{0}
5{0}
5{0}
5{0}
5{0}
)


60
(
5{0}
5{0}
5{0}
5{0}
5{0}
5{0}
5{0}
5{0}
5{0}
5{0}
5{0}
5{0}
5{0}
5{0}
5{0}
5{0}
5{0}
5{0}
5{0}
5{0}
5{0}
5{0}
5{0}
5{0}
5{0}
5{0}
5{0}
5{0}
5{0}
5{0}
5{0}
5{0}
5{0}
5{0}
5{0}
5{0}
5{0}
5{0}
5{0}
5{0}
5{0}
5{0}
5{0}
5{0}
5{0}
5{0}
5{0}
5{0}
5{0}
5{0}
5{0}
5{0}
5{0}
5{0}
5{0}
5{0}
5{0}
5{0}
5{0}
5{0}
)


60
(
5{0}
5{0}
5{0}
5{0}
5{0}
5{0}
5{0}
5{0}
5{0}
5{0}
5{0}
5{0}
5{0}
5{0}
5{0}
5{0}
5{0}
5{0}
5{0}
5{0}
5{0}
5{0}
5{0}
5{0}
5{0}
5{0}
5{0}
5{0}
5{0}
5{0}
5{0}
5{0}
5{0}
5{0}
5{0}
5{0}
5{0}
5{0}
5{0}
5{0}
5{0}
5{0}
5{0}
5{0}
5{0}
5{0}
5{0}
5{0}
5{0}
5{0}
5{0}
5{0}
5{0}
5{0}
5{0}
5{0}
5{0}
5{0}
5{0}
5{0}
)


60
(
5{0}
5{0}
5{0}
5{0}
5{0}
5{0}
5{0}
5{0}
5{0}
5{0}
5{0}
5{0}
5{0}
5{0}
5{0}
5{0}
5{0}
5{0}
5{0}
5{0}
5{0}
5{0}
5{0}
5{0}
5{0}
5{0}
5{0}
5{0}
5{0}
5{0}
5{0}
5{0}
5{0}
5{0}
5{0}
5{0}
5{0}
5{0}
5{0}
5{0}
5{0}
5{0}
5{0}
5{0}
5{0}
5{0}
5{0}
5{0}
5{0}
5{0}
5{0}
5{0}
5{0}
5{0}
5{0}
5{0}
5{0}
5{0}
5{0}
5{0}
)

)
;