/*--------------------------------*- C++ -*----------------------------------*\
| =========                 |                                                 |
| \\      /  F ield         | OpenFOAM: The Open Source CFD Toolbox           |
|  \\    /   O peration     | Version:  2.3.1                                 |
|   \\  /    A nd           | Web:      www.OpenFOAM.org                      |
|    \\/     M anipulation  |                                                 |
\*---------------------------------------------------------------------------*/
FoamFile
{
    version     2.0;
    format      ascii;
    class       dictionary;
    location    "constant";
    object      la_r10;
}
// * * * * * * * * * * * * * * * * * * * * * * * * * * * * * * * * * * * * * //

la_r10_table
60
(

60
(
5(0.1434278378 0.09949192625 0.3908974169 0.3087778324 0.8997489431)
5(0.06001807835 0.02539215369 0.1218474247 0.1021482611 0.183575007)
5(0.5102132035 0.02727642597 0.05017106423 0.0373676045 0.004441892911)
5(2.374648367 0.02205389748 0.0378302381 0.01372847679 0.03657158553)
5(2.62159901 0.01491194687 0.02804151326 0.01894784761 0.01895526894)
5(1.622534811 0.01003863388 0.01003647846 0.01507105749 0.01160932635)
5(0.008724521358 0.006994814613 0.00914643375 0.008413432248 0.02062275904)
5(0.003846940525 0.005312707473 0.01066587276 0.008024296757 0.004716217552)
5(1.287018454 0.004189998383 0.01055813102 0.006615067751 0.006867579205)
5(1.953836591 0.01035895058 0.01101154001 0.005197501293 0.00674395804)
5(1.869122552 0.01334606464 0.007662993009 0.004645387065 0.005459902002)
5(0.3918992635 0.0007882730941 0.003341526255 0.002121402187 0.004226762531)
5(9.370910795e-05 -0.0003429594878 0.0007800649358 0.001038975838 0.002617792251)
5(-0.0006004044586 -0.00150324178 -0.0007172126842 -0.0007717971441 0.0008372923455)
5(-0.001491714232 -0.002630169126 -0.002311725817 -0.002269013081 -0.000823182165)
5(0.008415198471 0.008937892906 -0.0004960084595 -0.001626912307 -0.001986117785)
5(0.007771846332 0.005091839246 -0.0001325953738 -0.004497963855 -0.004774050416)
5(-2.174825112e-05 0.0009952153641 -0.006597536175 -0.007427950341 -0.00690203909)
5(-0.004100564222 -0.003527020205 -0.008114018873 -0.008642898588 -0.005436669217)
5(-0.004580150596 -0.006962511454 -0.009459288555 -0.01072417615 -0.00642678071)
5(-0.004673529716 -0.006649660289 -0.009461362119 -0.01099831358 -0.009914958004)
5(-0.004665177154 -0.00684778514 -0.008689394516 -0.008621460907 -0.008286289589)
5(-0.004881196969 -0.006908415572 -0.008705360209 -0.009534880906 -0.009050172953)
5(-0.004600416399 -0.007306633657 -0.009440625223 -0.009064261924 -0.007734385392)
5(-0.003753216254 -0.003211979904 -0.009872862752 -0.009429189675 -0.007525246427)
5(-0.003977745231 0.005249081453 -0.0110400291 -0.01077807096 -0.007151748557)
5(-0.005928978375 0.00156953724 -0.01135773244 -0.01229929946 -0.008065968547)
5(-0.007151835334 -0.0110409374 -0.01405310406 -0.01467640618 -0.009863231556)
5(-0.009286171836 -0.01383514563 -0.0162671675 -0.01709494796 -0.01247870762)
5(-0.01208951729 -0.01724501153 -0.01907894381 -0.01912910159 -0.01521498157)
5(-0.01509112271 -0.02023623511 -0.02254975766 -0.02263542402 -0.01759033788)
5(-0.01792240602 -0.02249117039 -0.02415890278 -0.02267741123 -0.01600247072)
5(-0.01949854394 -0.0237822046 -0.02582877418 -0.02283556516 -0.01833893599)
5(-0.02105820671 -0.02488477936 -0.02702822934 -0.02147584463 -0.01975272977)
5(-0.02193553019 -0.02501797868 -0.02571239508 -0.02040379125 -0.1113401294)
5(-0.02204948592 -0.02562789255 -0.02688622596 -0.01835734118 -0.1314848468)
5(-0.02171527761 -0.02276253636 -0.02088862313 -0.01584597618 -0.01119561569)
5(-0.02099410963 -0.02191536004 -0.01922685972 -0.01578823473 -0.01014646514)
5(-0.02176782666 -0.0203409121 -0.01901458558 -0.013343754 -0.01445355125)
5(-0.02077274188 -0.01915163251 -0.01912003246 -0.01323504619 -0.01672736363)
5(-0.01937380752 -0.01743351508 -0.01508318033 -0.08931048963 -0.03367811935)
5(-0.01839637209 -0.01749792657 -0.02539357477 -0.4852649031 -0.0004711113402)
5(-0.01793237172 -0.01471705348 -0.01178025284 -0.0005065632902 -0.0005995605909)
5(-0.01853245556 -0.0141314309 -0.01731471131 -0.0007609919824 -0.2977221546)
5(-0.01854702023 -0.01278747209 -0.02525110131 -0.001021946533 -0.05630759645)
5(-0.01779954177 -0.01428221287 -0.01150633854 -0.001258870568 -0.001659758434)
5(-0.01560988714 -0.02442459191 -0.3590602393 -0.03075798343 -0.002260254087)
5(-0.1989364999 -0.01143737815 -0.07203728955 -0.002277858832 -0.002950740448)
5(-0.02987448692 -0.01180601871 -0.008292752597 -0.003190360128 -0.003765779818)
5(-0.0162258277 -0.0170754793 -0.002968261781 -0.004245516498 -0.005023778363)
5(-0.1540875289 -0.003090983053 -0.004278769354 -0.005546968151 -0.006449267771)
5(-0.285221978 -0.004110529458 -0.005436157178 -0.007281901312 -0.008663252793)
5(-0.02908726284 -0.004794911131 -0.007109429158 -0.00933210908 -0.01103004003)
5(-0.004662312473 -0.006544200027 -0.008840363964 -0.01180291379 -0.01384842033)
5(-0.005928905387 -0.00803371707 -0.01139099805 -0.01471424926 -0.01763519627)
5(0.07246188777 -0.01053841662 -0.01431284606 -0.01815953191 -0.02184928128)
5(0.2982523865 -0.01325888292 -0.01783003265 -0.02262629592 -0.02693234686)
5(0.3949564494 0.09550052778 -0.02183738084 -0.02737499057 -0.03168737767)
5(0.3023815132 0.1570999445 0.05419182166 -0.03097225052 -0.03974185593)
5(-0.02054289714 -0.02807066066 -0.03695269852 -0.04755510815 -0.05398956323)
)


60
(
5(0.2780456633 0.2652435092 0.8816046686 0.9891255828 2.257318711)
5(0.1568182183 0.193172315 0.4265111967 0.5525216109 0.9691151308)
5(0.1052403039 0.1535476852 0.2652093398 0.3791616071 0.5418886487)
5(0.08290565412 0.1307753536 0.2112729295 0.3101912948 0.4163015934)
5(0.07450712176 0.1175355628 0.1974282131 0.2802646056 0.388893253)
5(0.07080728458 0.1082731613 0.1882909727 0.25753443 0.3690633282)
5(0.06630659577 0.09937838096 0.1717524084 0.2289055113 0.322246173)
5(0.06021943719 0.08966745304 0.1511697391 0.194989566 0.2600610113)
5(0.05365792796 0.07846778819 0.1278105448 0.1565336896 0.194943205)
5(0.04683750341 0.06522729464 0.1025860885 0.1133777149 0.1265536576)
5(0.03869962861 0.04887060801 0.07313047923 0.06342117488 0.05101827081)
5(0.02868406193 0.02862639272 0.03754994353 0.005770485515 -0.03360969628)
5(0.01584439441 0.004046384623 -0.004738729768 -0.05893705567 -0.1250137779)
5(-1.279363234e-05 -0.02515422674 -0.05320862654 -0.1303637832 -0.2204128151)
5(-0.01920937659 -0.05874008476 -0.107175952 -0.2055364689 -0.3170998912)
5(-0.04175284326 -0.0966678724 -0.1660190978 -0.2831759184 -0.4120250739)
5(-0.06758874479 -0.1380230701 -0.2281940227 -0.3607288462 -0.501441151)
5(-0.09647079775 -0.1817453332 -0.2912148285 -0.4342055717 -0.5816890428)
5(-0.1277248084 -0.2261460437 -0.3526395828 -0.5015818853 -0.6481183782)
5(-0.1605888446 -0.2703612658 -0.4099844861 -0.5585397029 -0.6977736962)
5(-0.1938807327 -0.3116103666 -0.4599066581 -0.6006311781 -0.7247893325)
5(-0.2260328885 -0.3480045072 -0.4981651227 -0.6258900274 -0.7293936763)
5(-0.2558613737 -0.3764446429 -0.5236831469 -0.6306624111 -0.7095537785)
5(-0.2810268896 -0.3954807608 -0.5341455559 -0.6143990023 -0.6674815856)
5(-0.2990813916 -0.4043909634 -0.5279282346 -0.5821868229 -0.6050159967)
5(-0.3110949238 -0.4020321054 -0.5089973148 -0.5345014936 -0.5278315575)
5(-0.3137857876 -0.3873369388 -0.4736929995 -0.4740834851 -0.4423010582)
5(-0.3082612825 -0.3635214227 -0.4268773156 -0.4065796824 -0.3573850536)
5(-0.2928505852 -0.3315908593 -0.3740331904 -0.3369956325 -0.2786326435)
5(-0.2720671398 -0.2941730649 -0.3183027631 -0.2740159763 -0.2110477923)
5(-0.2436363991 -0.2543768744 -0.2645108815 -0.2193699703 -0.1616417902)
5(-0.2130859702 -0.2161916567 -0.2170100311 -0.1784298802 -0.1297492905)
5(-0.1834319409 -0.1851343742 -0.1829001736 -0.1500681301 -0.1095217336)
5(-0.1581779921 -0.1614296367 -0.1592541352 -0.1334855047 -0.1059794508)
5(-0.1357684656 -0.1432623455 -0.1438410781 -0.1262389959 -0.1064578074)
5(-0.1216564464 -0.1339218802 -0.1366025977 -0.1267326489 -0.1096118166)
5(-0.1089678283 -0.1275916712 -0.1339579603 -0.1228186758 -0.1131745079)
5(-0.1076390879 -0.1260327114 -0.1316062882 -0.1193369693 -0.1124745835)
5(-0.1060109043 -0.1227917771 -0.1299615082 -0.1202858717 -0.1074250339)
5(-0.1055680229 -0.1215020042 -0.1278773621 -0.1139318748 -0.1030294358)
5(-0.103260703 -0.1098685895 -0.1162195765 -0.1089661969 -0.09496105011)
5(-0.1100255601 -0.1131621353 -0.1093582077 -0.0944952261 -0.08610712384)
5(-0.1093497791 -0.105836082 -0.09644483596 -0.07373869668 -0.07887372344)
5(-0.1007841862 -0.08909425649 -0.08694751832 -0.06581941982 -0.06826738194)
5(-0.09822983197 -0.0830014419 -0.07474448568 -0.05614356352 -0.06215562864)
5(-0.08716881646 -0.0749517503 -0.07008686294 -0.04629154344 -0.05444057875)
5(-0.1008816579 -0.06525098599 -0.0533216229 -0.04167207147 -0.04931422945)
5(-0.0919517286 -0.04939192542 -0.04519849915 -0.03663708155 -0.0461886458)
5(-0.1053449837 -0.0440154904 -0.0383140493 -0.03048671964 -0.04387722562)
5(-0.09022539744 -0.03711665902 -0.03450220919 -0.02344483681 -0.04405849838)
5(-0.09587414947 -0.03672458373 -0.02931745037 -0.01867718055 -0.05112738811)
5(-0.09772103145 -0.03019205951 -0.02260901277 -0.01502607403 -0.04500318373)
5(-0.1118546554 -0.02841637975 -0.02226800233 -0.01334617333 -0.04469090857)
5(-0.0989248717 -0.01999300368 -0.01523105905 -0.008316789132 -0.04214351402)
5(-0.09334867424 -0.0178261485 -0.01256066926 -0.007308812531 -0.04128252563)
5(-0.07420194173 -0.01343971384 -0.00914055798 -0.00568569292 -0.05058201899)
5(-0.07230951208 -0.009254614029 -0.00677583492 -0.004572847319 -0.05731930827)
5(-0.05678376514 -0.0074839886 -0.004900747613 -0.003039166786 -0.05788007348)
5(-0.1033161032 -0.006988987141 -0.00366010427 -0.002761292725 -0.08424968411)
5(-0.04692720459 -0.05484935554 0.09820848969 -0.0726488181 -0.08265739644)
)


60
(
5(0.4787680692 0.5380939025 1.614725125 2.092400819 4.208172996)
5(0.3152601914 0.4347680257 0.9330536707 1.338393427 2.246310735)
5(0.235863406 0.3685789966 0.6598458031 0.9949552718 1.474096035)
5(0.198490315 0.3244036682 0.5514457143 0.8258184269 1.163298337)
5(0.1828951789 0.2950216319 0.5037758308 0.7238102494 1.01116307)
5(0.1744827544 0.2714894214 0.4634393214 0.6337392515 0.8755553392)
5(0.1634348456 0.2462337513 0.4102822505 0.5347393561 0.7087965402)
5(0.1487222209 0.2173445329 0.3470617865 0.4262934565 0.5270415877)
5(0.1315283009 0.1831837255 0.2771027041 0.3092374465 0.3409368627)
5(0.1115170829 0.1422236418 0.199742485 0.1818195068 0.1487458498)
5(0.08687240448 0.09295300613 0.1118015754 0.04152742564 -0.05576483019)
5(0.05627465953 0.03418906429 0.01101348329 -0.1116738483 -0.2718567465)
5(0.01856015601 -0.03450984235 -0.1024346687 -0.2759288221 -0.4941353832)
5(-0.02672282035 -0.11286934 -0.2265726866 -0.4476385403 -0.7158634768)
5(-0.07963690897 -0.2001276197 -0.3593229342 -0.6225490934 -0.9311478537)
5(-0.1400322751 -0.2947772582 -0.497556341 -0.7958439985 -1.13421942)
5(-0.2073728092 -0.3947344514 -0.6384050375 -0.9623526389 -1.317770286)
5(-0.2803309488 -0.4972451876 -0.7761836778 -1.115655088 -1.473896673)
5(-0.3571629334 -0.5992765039 -0.9069003811 -1.249591825 -1.597057909)
5(-0.4356357057 -0.6966820806 -1.023117459 -1.358066982 -1.680056499)
5(-0.5127952551 -0.7858866801 -1.120365401 -1.434027208 -1.718556667)
5(-0.5853730023 -0.8612483423 -1.191237075 -1.469853797 -1.707278801)
5(-0.6496820133 -0.9176936477 -1.233887971 -1.4678085 -1.650801191)
5(-0.7001294104 -0.9520062645 -1.243417467 -1.424999561 -1.549283165)
5(-0.7354823508 -0.9614094654 -1.218321699 -1.34443622 -1.410046343)
5(-0.751851053 -0.9444184924 -1.159061207 -1.229015248 -1.239121386)
5(-0.7470054438 -0.8996866476 -1.067468987 -1.087536984 -1.050182731)
5(-0.7196901414 -0.8332893765 -0.9547272607 -0.9296756046 -0.8567342577)
5(-0.6734569937 -0.7451988868 -0.822866743 -0.7637928315 -0.6662275453)
5(-0.6069091264 -0.6445284129 -0.6831092771 -0.605021346 -0.4937086934)
5(-0.5307973875 -0.539071688 -0.5476652574 -0.4615985307 -0.3562260134)
5(-0.4469336183 -0.4337502237 -0.4236244816 -0.3413040942 -0.2478955156)
5(-0.3618158378 -0.3385652589 -0.3225559052 -0.2506343212 -0.1789073414)
5(-0.2844627632 -0.2635853608 -0.2427886608 -0.1915843031 -0.1348315503)
5(-0.219363859 -0.2035901634 -0.1855899833 -0.1576196096 -0.12247846)
5(-0.1662686471 -0.1640386889 -0.1561162928 -0.1404361056 -0.1224245191)
5(-0.1219536773 -0.1406226408 -0.1411108067 -0.1346531591 -0.1257199298)
5(-0.1162248939 -0.1290995807 -0.1382384815 -0.1368423607 -0.136784071)
5(-0.1008724204 -0.1221789518 -0.1416159296 -0.1413537043 -0.1484952688)
5(-0.1026533925 -0.1171922416 -0.1390335108 -0.1416683063 -0.1446617843)
5(-0.1114980832 -0.1208812194 -0.1400412197 -0.1382193907 -0.1492929559)
5(-0.1073120898 -0.1224224377 -0.1371867048 -0.1346643135 -0.1344954131)
5(-0.1205428301 -0.1180595359 -0.1303615841 -0.1247161087 -0.1317253913)
5(-0.11875097 -0.1134425053 -0.1184052948 -0.1065182738 -0.1213780505)
5(-0.1244470262 -0.09700181336 -0.1017339904 -0.09388825022 -0.1171350649)
5(-0.1134445929 -0.08411789723 -0.09628157734 -0.08080556338 -0.09866495427)
5(-0.1148044205 -0.07774004574 -0.08310260978 -0.0672776707 -0.100135278)
5(-0.111958181 -0.06933500719 -0.07103156997 -0.0586941096 -0.08892732559)
5(-0.1203494695 -0.05621319246 -0.05703503854 -0.05053336222 -0.08681835375)
5(-0.1187584046 -0.0528683675 -0.05081197111 -0.04050633043 -0.0885204454)
5(-0.1255243229 -0.04592594037 -0.04206702549 -0.03558223507 -0.07529475604)
5(-0.1163337227 -0.04018895246 -0.03523831351 -0.02890723861 -0.08400428931)
5(-0.1129320247 -0.03129029362 -0.03016505588 -0.02471872036 -0.07718513451)
5(-0.1309549877 -0.03093663195 -0.0244962327 -0.01674599729 -0.08100312214)
5(-0.122187212 -0.0255953877 -0.01947995296 -0.01393264094 -0.07700542839)
5(-0.1609116377 -0.02153360067 -0.01540375936 -0.01022679233 -0.08104534145)
5(-0.1433034484 -0.01801894411 -0.01372214104 -0.008097296807 -0.08219316424)
5(-0.1400467232 -0.01419697314 -0.009350387519 -0.006110449306 -0.08549506084)
5(-0.1326912512 -0.01398405732 -0.007010046037 -0.00405110446 -0.1124173797)
5(-0.08673887685 -0.08967234291 0.1245114163 -0.1010971638 -0.1205879628)
)


60
(
5(0.753552694 0.9420142719 2.601369712 3.640982987 6.791728299)
5(0.5450690848 0.7993031221 1.654251712 2.464722663 3.996237444)
5(0.4336656094 0.6939324775 1.237254287 1.878579487 2.773805017)
5(0.3745423177 0.6135849497 1.043866493 1.548850582 2.183746396)
5(0.3458221838 0.5540541858 0.9316502032 1.321360452 1.823124733)
5(0.3266327013 0.5025491203 0.8298327835 1.118391347 1.504477185)
5(0.302448829 0.4473253929 0.7128619411 0.9089596107 1.161605906)
5(0.271713642 0.3847791784 0.5823288041 0.6899636539 0.8092772097)
5(0.2355313058 0.3124589182 0.4410943496 0.4604397712 0.4557209379)
5(0.1931742532 0.228359407 0.2876108805 0.2169571073 0.09526118961)
5(0.1420210497 0.1302265096 0.1177267882 -0.04317212811 -0.2786372587)
5(0.07996047079 0.01706912883 -0.07027189566 -0.3191504349 -0.6628414782)
5(0.006015170647 -0.111093188 -0.2749927901 -0.6074152905 -1.047754983)
5(-0.08004934714 -0.2532875717 -0.4931273363 -0.9019237757 -1.422873388)
5(-0.1781026204 -0.4076855046 -0.7206717426 -1.195349655 -1.779026134)
5(-0.2873945603 -0.5720760041 -0.9532809154 -1.480098258 -2.106668614)
5(-0.4062697171 -0.7419417134 -1.183877943 -1.747854021 -2.394745794)
5(-0.5325454797 -0.9123651054 -1.404490851 -1.987350396 -2.634428018)
5(-0.6625788923 -1.079369933 -1.609580005 -2.193311773 -2.814700136)
5(-0.7931978426 -1.236196195 -1.788250133 -2.354194351 -2.92975345)
5(-0.9193170846 -1.375080694 -1.934888675 -2.464403369 -2.973541121)
5(-1.033961778 -1.492262762 -2.039604037 -2.511558514 -2.940156009)
5(-1.133423692 -1.576627651 -2.095580227 -2.498421965 -2.838469997)
5(-1.213013121 -1.624353635 -2.097311841 -2.423620842 -2.667918389)
5(-1.263110932 -1.631572675 -2.049974896 -2.289495357 -2.44099795)
5(-1.282977633 -1.599161216 -1.949060696 -2.102457098 -2.16408538)
5(-1.268098453 -1.524547176 -1.799295682 -1.872095236 -1.856139639)
5(-1.220083559 -1.411051753 -1.610315829 -1.612506187 -1.53485519)
5(-1.135943454 -1.264486147 -1.392367059 -1.338668778 -1.219773749)
5(-1.023139386 -1.094396458 -1.159768279 -1.068458891 -0.9246313639)
5(-0.8901117726 -0.9115886973 -0.9280254259 -0.8170505436 -0.6662818469)
5(-0.7436418923 -0.7302770513 -0.7094550354 -0.5979407042 -0.4565498546)
5(-0.5942916002 -0.5615606485 -0.5255981262 -0.4194717244 -0.3011624647)
5(-0.4569522689 -0.4147593313 -0.3740764926 -0.2905047708 -0.1992980308)
5(-0.3336035504 -0.2969603833 -0.2613764118 -0.2038958287 -0.1348095494)
5(-0.2376735377 -0.2103742986 -0.1874776693 -0.1534705559 -0.1184274027)
5(-0.1686825594 -0.154853203 -0.1431997047 -0.1314508158 -0.1158600414)
5(-0.1188007446 -0.1234664878 -0.1282907613 -0.1260588466 -0.1237373819)
5(-0.09650371312 -0.1106794351 -0.1242968865 -0.129335893 -0.1438598692)
5(-0.09047167205 -0.1089928755 -0.126283689 -0.1361747764 -0.158374152)
5(-0.08638941442 -0.1093961377 -0.131941143 -0.1423316551 -0.1690983653)
5(-0.100374168 -0.1104628256 -0.1333189736 -0.1407392198 -0.1668472529)
5(-0.1041877066 -0.1118493637 -0.1274469949 -0.1353719689 -0.1765118714)
5(-0.1159855061 -0.1101095433 -0.1214976796 -0.1250234155 -0.1747256077)
5(-0.1129019253 -0.103308083 -0.1172365374 -0.1131426004 -0.160460972)
5(-0.119581443 -0.09255271432 -0.102930099 -0.09885177434 -0.1339143548)
5(-0.1124858129 -0.08290869013 -0.09299977495 -0.08740294434 -0.1394852973)
5(-0.1242722948 -0.07010795033 -0.08043051804 -0.07355096586 -0.1193295496)
5(-0.1091416117 -0.05898275039 -0.06787807216 -0.06161030565 -0.1296903962)
5(-0.1221525751 -0.05268374403 -0.05599397622 -0.05146956491 -0.13091174)
5(-0.1324991996 -0.04678546156 -0.04669634324 -0.04394139125 -0.1424577895)
5(-0.1465480676 -0.03881106777 -0.04063753412 -0.03862986565 -0.1178628989)
5(-0.1419532858 -0.03788712932 -0.03688932352 -0.03268054769 -0.1241803417)
5(-0.1733683719 -0.03707959769 -0.03266321267 -0.02763524842 -0.1099500128)
5(-0.1510600035 -0.03347651219 -0.02555557379 -0.0196023215 -0.1120437962)
5(-0.2019405221 -0.02969804363 -0.02046173873 -0.01349978397 -0.1182938606)
5(-0.1728280012 -0.02817074471 -0.01862788459 -0.0123330438 -0.118516266)
5(-0.1678097814 -0.02451733121 -0.01535523208 -0.00926601203 -0.1281726727)
5(-0.1514735397 -0.01669012247 -0.01001534105 -0.006632376973 -0.1412832418)
5(-0.1251312397 -0.02745712716 -0.4566760848 -1.401832435 -1.085448717)
)


60
(
5(1.107156015 1.49013384 3.849200216 5.655276492 10.04749829)
5(0.8520792568 1.296615202 2.59254872 3.940059574 6.247958684)
5(0.7027130214 1.134722353 1.993108205 3.028630887 4.443944112)
5(0.6133913699 0.9993377545 1.678689904 2.473978713 3.474413423)
5(0.5631900458 0.8928932699 1.470470116 2.068760327 2.830647933)
5(0.5257309425 0.7984991438 1.27894151 1.709530344 2.264842413)
5(0.4805820934 0.6984291339 1.073232505 1.353321156 1.691356556)
5(0.4258545197 0.5881604451 0.8528281167 0.9917968571 1.11965325)
5(0.36244938 0.464012242 0.6193880812 0.6203953986 0.5535731672)
5(0.2888139415 0.3230761404 0.370184797 0.2336673582 -0.01669007969)
5(0.2018005938 0.1632518463 0.1002630682 -0.1715678791 -0.597159138)
5(0.09923362013 -0.01655834131 -0.1918504805 -0.5942777591 -1.183058841)
5(-0.01999781376 -0.2157017356 -0.5039711152 -1.027521294 -1.760192083)
5(-0.1557576228 -0.4327139246 -0.8301907202 -1.463959944 -2.314031646)
5(-0.3071832745 -0.6643399964 -1.165641271 -1.892868073 -2.831394978)
5(-0.4728787077 -0.9069857241 -1.502127457 -2.303601973 -3.299534289)
5(-0.6504254199 -1.154308869 -1.832375805 -2.683741555 -3.704227404)
5(-0.8356535637 -1.400148399 -2.145458997 -3.020586426 -4.034522622)
5(-1.024400523 -1.637528828 -2.430629604 -3.308010643 -4.278710661)
5(-1.210889906 -1.857894216 -2.677803731 -3.529307304 -4.428900501)
5(-1.388815688 -2.052965822 -2.876955097 -3.675202617 -4.478012308)
5(-1.551367451 -2.213947244 -3.016125005 -3.739148786 -4.424069922)
5(-1.689396593 -2.330006396 -3.088620741 -3.71681146 -4.274316541)
5(-1.795868295 -2.394896165 -3.090318823 -3.608284971 -4.02738668)
5(-1.86281876 -2.404211441 -3.018843017 -3.41975684 -3.70397914)
5(-1.888743089 -2.353694076 -2.874474747 -3.158485392 -3.315068033)
5(-1.865193778 -2.251216881 -2.665346817 -2.836187971 -2.877912827)
5(-1.792758874 -2.092111534 -2.400274725 -2.469942891 -2.419545299)
5(-1.673815802 -1.886191087 -2.094033159 -2.079305633 -1.956055954)
5(-1.516472475 -1.644887508 -1.764351901 -1.686924874 -1.518485559)
5(-1.325590611 -1.383982145 -1.429818123 -1.309854311 -1.123336969)
5(-1.114385801 -1.118630901 -1.109059961 -0.9712282905 -0.7827814474)
5(-0.8984348171 -0.8655867779 -0.8210347268 -0.6846134448 -0.5228517006)
5(-0.6921965722 -0.6387294432 -0.5788286398 -0.4605253835 -0.3275709014)
5(-0.507135281 -0.4469728558 -0.3904943603 -0.2985392693 -0.2017877434)
5(-0.3498808667 -0.2981555062 -0.2558917261 -0.194037803 -0.1353275404)
5(-0.2276868831 -0.1944672962 -0.1673524966 -0.1347702956 -0.1082726229)
5(-0.1475437168 -0.128533911 -0.1181965837 -0.1084569898 -0.1050645599)
5(-0.09473230318 -0.0924728134 -0.09815919894 -0.1048634249 -0.1221463429)
5(-0.06956396499 -0.07857604902 -0.09693238638 -0.1129904974 -0.143630917)
5(-0.06091141407 -0.07794067516 -0.1042735892 -0.1216386973 -0.1472361755)
5(-0.06555470141 -0.0834030447 -0.1106487789 -0.1266670486 -0.164421738)
5(-0.07086980554 -0.08832586717 -0.11177681 -0.129267568 -0.1701093083)
5(-0.08640972194 -0.08851203854 -0.1088642774 -0.1227260672 -0.1709868378)
5(-0.09134014404 -0.08452046389 -0.1004207998 -0.1135039387 -0.1803074926)
5(-0.09188080624 -0.07674712748 -0.09381021293 -0.1002956487 -0.1841064414)
5(-0.1026036365 -0.06602242827 -0.08236834573 -0.09014019708 -0.1774310071)
5(-0.110383564 -0.05547814435 -0.06572710706 -0.071594408 -0.1712167462)
5(-0.109515295 -0.04694297414 -0.05134298213 -0.06228650975 -0.1693186289)
5(-0.1162646078 -0.03954400662 -0.04523308675 -0.05473521465 -0.1422872413)
5(-0.1263254785 -0.03509158767 -0.04038384521 -0.04975635036 -0.144472061)
5(-0.1509999338 -0.02720039695 -0.03714912223 -0.04557748208 -0.1612944695)
5(-0.1620454735 -0.02926617503 -0.03748779576 -0.03489075586 -0.1688884156)
5(-0.1829548587 -0.034291865 -0.03497643677 -0.03077761765 -0.163032087)
5(-0.1782810538 -0.03675181552 -0.03324080683 -0.0264417758 -0.1566371127)
5(-0.2044832099 -0.03594856472 -0.02864125515 -0.02066106073 -0.1589640173)
5(-0.2076875955 -0.0379371375 -0.0253518097 -0.01826675436 -0.1540012005)
5(-0.1919460427 -0.03060888204 -0.02085588469 -0.01427036052 -0.1654889665)
5(-0.1815062778 -0.02367078741 -0.01559658659 -0.01014824408 -0.2086353167)
5(-0.165814359 -0.1751219275 -0.04778096832 -0.1777076188 -0.1815103421)
)


60
(
5(1.541928859 2.191290796 5.361070657 8.15072506 14.01601173)
5(1.238646335 1.929696489 3.747065016 5.770162505 9.01666954)
5(1.041890834 1.690203696 2.925331937 4.445062163 6.494665715)
5(0.9143747187 1.480732418 2.453332723 3.600637313 5.057819836)
5(0.8347245612 1.309695117 2.116004268 2.967559479 4.047755069)
5(0.7701372866 1.156258706 1.807427581 2.411152567 3.16832417)
5(0.6958261008 0.9970490194 1.48953237 1.87327549 2.307836149)
5(0.6086009927 0.8257106667 1.158775899 1.33797638 1.465943121)
5(0.5095747631 0.637025837 0.8144788804 0.7966203959 0.6426272011)
5(0.396363402 0.4276160105 0.4522173706 0.2407523126 -0.1773684222)
5(0.2653678013 0.194830868 0.06629306478 -0.3337711197 -1.00108172)
5(0.1143249174 -0.06218860199 -0.3451689209 -0.9249889649 -1.821095106)
5(-0.05781772473 -0.3423014048 -0.7780019561 -1.524233137 -2.617011651)
5(-0.2505921585 -0.643213168 -1.225578624 -2.12067811 -3.373334216)
5(-0.4621377485 -0.9605682614 -1.679841775 -2.701418682 -4.070784023)
5(-0.690195699 -1.288661297 -2.132101333 -3.253295048 -4.697322559)
5(-0.9314863773 -1.620738519 -2.571136413 -3.758741002 -5.230531135)
5(-1.181206891 -1.947357711 -2.983040931 -4.205170263 -5.662149761)
5(-1.43278013 -2.260492222 -3.356075351 -4.578452308 -5.976531578)
5(-1.678133337 -2.550584057 -3.676989903 -4.866439309 -6.16931183)
5(-1.911714136 -2.804884525 -3.933004347 -5.057159673 -6.227978207)
5(-2.122490767 -3.014163048 -4.113676342 -5.140224588 -6.148247553)
5(-2.301740818 -3.166238846 -4.206399732 -5.111612409 -5.946410492)
5(-2.437861081 -3.253118022 -4.208858321 -4.973982006 -5.627219651)
5(-2.526274817 -3.269921034 -4.119764502 -4.73386216 -5.2047538)
5(-2.557962387 -3.213774667 -3.938923482 -4.398921531 -4.694181321)
5(-2.530155209 -3.079859183 -3.671396622 -3.983996765 -4.121648255)
5(-2.438772952 -2.877852409 -3.332717888 -3.508524224 -3.514619376)
5(-2.288518064 -2.614432668 -2.93569255 -2.995038965 -2.893891006)
5(-2.085742637 -2.303186862 -2.502388482 -2.46928036 -2.297175838)
5(-1.837677941 -1.959383208 -2.057629767 -1.96028261 -1.743843475)
5(-1.562657031 -1.605180841 -1.623915977 -1.485903877 -1.25669647)
5(-1.276362654 -1.259721671 -1.227262084 -1.071959758 -0.857001384)
5(-0.9966329034 -0.9430009154 -0.8778690093 -0.7323474136 -0.5512779366)
5(-0.7402833647 -0.667571759 -0.5923839664 -0.4720390591 -0.3274096155)
5(-0.5132796718 -0.4432061131 -0.3763816086 -0.2862668588 -0.1889871407)
5(-0.3389859763 -0.2742727897 -0.2275214908 -0.1675551258 -0.1167090411)
5(-0.2031900423 -0.1579054679 -0.1350976013 -0.1048253787 -0.09010045433)
5(-0.1170923069 -0.08804538794 -0.08488294369 -0.08084058744 -0.08926677465)
5(-0.06132407609 -0.05272214223 -0.06547040268 -0.0754584335 -0.1018739579)
5(-0.0369022565 -0.04019380417 -0.06439414294 -0.08263040348 -0.1380741054)
5(-0.02843914511 -0.04066504839 -0.07330668261 -0.09547918746 -0.1404075286)
5(-0.02555686971 -0.04585256874 -0.07985164565 -0.1038779877 -0.1677834218)
5(-0.03811746254 -0.05126746318 -0.08340406373 -0.1042173934 -0.1605684487)
5(-0.05778965758 -0.05465213121 -0.08188802356 -0.1009343968 -0.1812722782)
5(-0.06756944328 -0.05520970167 -0.07700218618 -0.09016600241 -0.183082273)
5(-0.09607398032 -0.05177400387 -0.06659614661 -0.0799551604 -0.1747624207)
5(-0.08615314128 -0.04380360015 -0.04709462334 -0.06883639793 -0.1948534148)
5(-0.1012749384 -0.03668871923 -0.04369474575 -0.05617986518 -0.1893659708)
5(-0.1299866629 -0.02843510133 -0.03344617231 -0.04596060069 -0.1830526702)
5(-0.1224681487 -0.02209919045 -0.02641817692 -0.03886947059 -0.1622056194)
5(-0.1395519226 -0.01679618646 -0.02594710816 -0.03658993324 -0.1912852226)
5(-0.1372777903 -0.01440375843 -0.028150334 -0.03530997823 -0.190630542)
5(-0.1489570709 -0.01654894125 -0.02948499501 -0.03351008951 -0.1894533551)
5(-0.1607327122 -0.02309116717 -0.03221320847 -0.0299855979 -0.1846910228)
5(-0.197624645 -0.02887399717 -0.03267865381 -0.02738065905 -0.228946983)
5(-0.1907288843 -0.03724901562 -0.03037296477 -0.02322515518 -0.1916758868)
5(-0.2345783824 -0.03369827668 -0.02924358001 -0.02101334557 -0.2362650445)
5(-0.2029417805 -0.03048347299 -0.02172286731 -0.01472615965 -0.248946521)
5(-0.2173036171 -0.20861679 -0.038447486 -0.2203441885 -0.2106253677)
)


60
(
5(2.059822773 3.04676496 7.138962925 11.13752962 18.72213335)
5(1.704907478 2.697114262 5.11216294 7.966988893 12.32759942)
5(1.454257502 2.360749808 4.027413596 6.140386297 8.959526397)
5(1.276938791 2.055698153 3.362491595 4.939121823 6.934950639)
5(1.158163817 1.801796167 2.865984901 4.025390623 5.483516136)
5(1.057488697 1.573497027 2.41435149 3.230181186 4.224412533)
5(0.9451375902 1.340824893 1.962478566 2.475897982 3.021045194)
5(0.8171718689 1.09529317 1.502082119 1.736546224 1.859672452)
5(0.6743295916 0.8302142807 1.02960553 0.9978483097 0.7352948453)
5(0.5134572385 0.5411785935 0.5382822852 0.247558655 -0.373292834)
5(0.330634528 0.2252022094 0.02134386297 -0.5194815237 -1.473898463)
5(0.1237527354 -0.1187798342 -0.5232398704 -1.300580448 -2.556985332)
5(-0.1083642566 -0.4889201229 -1.089927205 -2.084616183 -3.600817878)
5(-0.3644999147 -0.8820995504 -1.67129475 -2.859103837 -4.579475582)
5(-0.6422734881 -1.292291971 -2.255839137 -3.607519089 -5.479626778)
5(-0.9385554012 -1.713880944 -2.833794399 -4.313696772 -6.276550603)
5(-1.24891083 -2.136800672 -3.389955836 -4.958678837 -6.955273939)
5(-1.566714164 -2.551514125 -3.909725583 -5.525335532 -7.498368259)
5(-1.884702903 -2.945701312 -4.377076074 -5.997011331 -7.898278006)
5(-2.193573176 -3.309325005 -4.779346393 -6.36151553 -8.132178381)
5(-2.485292821 -3.629870424 -5.100668891 -6.603911584 -8.209761007)
5(-2.746609041 -3.89073785 -5.326777217 -6.714579062 -8.119272335)
5(-2.969088839 -4.082485016 -5.447204655 -6.689374373 -7.866411153)
5(-3.140033173 -4.195272399 -5.456141011 -6.52757804 -7.472913255)
5(-3.24808995 -4.219729153 -5.350730095 -6.238431849 -6.947510425)
5(-3.290689737 -4.154539725 -5.134768934 -5.832312634 -6.32181584)
5(-3.258428897 -3.998418287 -4.813815524 -5.325507332 -5.600791326)
5(-3.150363946 -3.755871711 -4.402812326 -4.738514333 -4.835121207)
5(-2.976978592 -3.4378568 -3.917730921 -4.09882587 -4.050752205)
5(-2.7235903 -3.058117866 -3.382111231 -3.436203176 -3.280396471)
5(-2.42681897 -2.633625243 -2.822028304 -2.779781978 -2.551671139)
5(-2.084484526 -2.189626886 -2.268383522 -2.159255256 -1.911309925)
5(-1.731208591 -1.751620382 -1.747805206 -1.599755279 -1.344580016)
5(-1.377350978 -1.336501921 -1.277888421 -1.123391416 -0.8964250189)
5(-1.041316613 -0.9639735081 -0.8826164481 -0.7416819936 -0.5502938067)
5(-0.7447629029 -0.6525362308 -0.5707770353 -0.4522031724 -0.3150518622)
5(-0.4990080356 -0.4085621131 -0.3403542811 -0.2524199345 -0.162279745)
5(-0.3075843518 -0.2305047063 -0.1820635192 -0.1316404356 -0.0893783846)
5(-0.1677974587 -0.1122209254 -0.08598391423 -0.06951570365 -0.06923318012)
5(-0.08176092736 -0.04115999489 -0.03909227546 -0.04268122911 -0.06586262182)
5(-0.02411636657 -0.005927336217 -0.02469847979 -0.04277538501 -0.08888093303)
5(-0.001217801977 0.003897959259 -0.02663668746 -0.05473853837 -0.1284372663)
5(-0.001117694961 0.0007679203239 -0.03392522355 -0.06986922502 -0.1421019606)