/*--------------------------------*- C++ -*----------------------------------*\
| =========                 |                                                 |
| \\      /  F ield         | OpenFOAM: The Open Source CFD Toolbox           |
|  \\    /   O peration     | Version:  2.3.1                                 |
|   \\  /    A nd           | Web:      www.OpenFOAM.org                      |
|    \\/     M anipulation  |                                                 |
\*---------------------------------------------------------------------------*/
FoamFile
{
    version     2.0;
    format      ascii;
    class       dictionary;
    location    "constant";
    object      la_r2;
}
// * * * * * * * * * * * * * * * * * * * * * * * * * * * * * * * * * * * * * //

la_r2_table
60
(

60
(
5{0}
5(0 0 -1.604537082e-09 0 0)
5(0 -1.595633964e-11 -1.548532656e-09 2.612036407e-10 -3.522119492e-10)
5(0 0 1.848062023e-10 -3.514754667e-09 -2.679680561e-08)
5(0 0 0 -1.797388866e-10 7.630570341e-08)
5(0 0 0 0 6.282559226e-10)
5{0}
5{0}
5{0}
5{0}
5{0}
5{0}
5{0}
5{0}
5{0}
5{0}
5{0}
5{0}
5{0}
5{0}
5{0}
5{0}
5{0}
5{0}
5{0}
5{0}
5{0}
5{0}
5{0}
5{0}
5{0}
5{0}
5{0}
5{0}
5{0}
5{0}
5{0}
5{0}
5{0}
5{0}
5{0}
5{0}
5{0}
5{0}
5{0}
5{0}
5{0}
5{0}
5{0}
5{0}
5{0}
5{0}
5{0}
5{0}
5{0}
5{0}
5{0}
5{0}
5{0}
5{0}
)


60
(
5{0}
5{0}
5(0 0 -6.853164587e-09 0 0)
5(0 0 0 0 -3.554095322e-07)
5(0 0 0 0 -4.383265039e-08)
5{0}
5{0}
5{0}
5{0}
5{0}
5{0}
5{0}
5{0}
5{0}
5{0}
5{0}
5{0}
5{0}
5{0}
5{0}
5{0}
5{0}
5{0}
5{0}
5{0}
5{0}
5{0}
5{0}
5{0}
5{0}
5{0}
5{0}
5{0}
5{0}
5{0}
5{0}
5{0}
5{0}
5{0}
5{0}
5{0}
5{0}
5{0}
5{0}
5{0}
5{0}
5{0}
5{0}
5{0}
5{0}
5{0}
5{0}
5{0}
5{0}
5{0}
5{0}
5{0}
5{0}
5{0}
5{0}
)


60
(
5{0}
5{0}
5{0}
5{0}
5{0}
5{0}
5{0}
5{0}
5{0}
5{0}
5{0}
5{0}
5{0}
5{0}
5{0}
5{0}
5{0}
5{0}
5{0}
5{0}
5{0}
5{0}
5{0}
5{0}
5{0}
5{0}
5{0}
5{0}
5{0}
5{0}
5{0}
5{0}
5{0}
5{0}
5{0}
5{0}
5{0}
5{0}
5{0}
5{0}
5{0}
5{0}
5{0}
5{0}
5{0}
5{0}
5{0}
5{0}
5{0}
5{0}
5{0}
5{0}
5{0}
5{0}
5{0}
5{0}
5{0}
5{0}
5{0}
5{0}
)


60
(
5{0}
5{0}
5{0}
5{0}
5{0}
5{0}
5{0}
5{0}
5{0}
5{0}
5{0}
5{0}
5{0}
5{0}
5{0}
5{0}
5{0}
5{0}
5{0}
5{0}
5{0}
5{0}
5{0}
5{0}
5{0}
5{0}
5{0}
5{0}
5{0}
5{0}
5{0}
5{0}
5{0}
5{0}
5{0}
5{0}
5{0}
5{0}
5{0}
5{0}
5{0}
5{0}
5{0}
5{0}
5{0}
5{0}
5{0}
5{0}
5{0}
5{0}
5{0}
5{0}
5{0}
5{0}
5{0}
5{0}
5{0}
5{0}
5{0}
5{0}
)


60
(
5{0}
5{0}
5{0}
5{0}
5{0}
5{0}
5{0}
5{0}
5{0}
5{0}
5{0}
5{0}
5{0}
5{0}
5{0}
5{0}
5{0}
5{0}
5{0}
5{0}
5{0}
5{0}
5{0}
5{0}
5{0}
5{0}
5{0}
5{0}
5{0}
5{0}
5{0}
5{0}
5{0}
5{0}
5{0}
5{0}
5{0}
5{0}
5{0}
5{0}
5{0}
5{0}
5{0}
5{0}
5{0}
5{0}
5{0}
5{0}
5{0}
5{0}
5{0}
5{0}
5{0}
5{0}
5{0}
5{0}
5{0}
5{0}
5{0}
5{0}
)


60
(
5{0}
5{0}
5{0}
5{0}
5{0}
5{0}
5{0}
5{0}
5{0}
5{0}
5{0}
5{0}
5{0}
5{0}
5{0}
5{0}
5{0}
5{0}
5{0}
5{0}
5{0}
5{0}
5{0}
5{0}
5{0}
5{0}
5{0}
5{0}
5{0}
5{0}
5{0}
5{0}
5{0}
5{0}
5{0}
5{0}
5{0}
5{0}
5{0}
5{0}
5{0}
5{0}
5{0}
5{0}
5{0}
5{0}
5{0}
5{0}
5{0}
5{0}
5{0}
5{0}
5{0}
5{0}
5{0}
5{0}
5{0}
5{0}
5{0}
5{0}
)


60
(
5{0}
5{0}
5{0}
5{0}
5{0}
5{0}
5{0}
5{0}
5{0}
5{0}
5{0}
5{0}
5{0}
5{0}
5{0}
5{0}
5{0}
5{0}
5{0}
5{0}
5{0}
5{0}
5{0}
5{0}
5{0}
5{0}
5{0}
5{0}
5{0}
5{0}
5{0}
5{0}
5{0}
5{0}
5{0}
5{0}
5{0}
5{0}
5{0}
5{0}
5{0}
5{0}
5{0}
5{0}
5{0}
5{0}
5{0}
5{0}
5{0}
5{0}
5{0}
5{0}
5{0}
5{0}
5{0}
5{0}
5{0}
5{0}
5{0}
5{0}
)


60
(
5{0}
5{0}
5{0}
5{0}
5{0}
5{0}
5{0}
5{0}
5{0}
5{0}
5{0}
5{0}
5{0}
5{0}
5{0}
5{0}
5{0}
5{0}
5{0}
5{0}
5{0}
5{0}
5{0}
5{0}
5{0}
5{0}
5{0}
5{0}
5{0}
5{0}
5{0}
5{0}
5{0}
5{0}
5{0}
5{0}
5{0}
5{0}
5{0}
5{0}
5{0}
5{0}
5{0}
5{0}
5{0}
5{0}
5{0}
5{0}
5{0}
5{0}
5{0}
5{0}
5{0}
5{0}
5{0}
5{0}
5{0}
5{0}
5{0}
5{0}
)


60
(
5{0}
5{0}
5{0}
5{0}
5{0}
5{0}
5{0}
5{0}
5{0}
5{0}
5{0}
5{0}
5{0}
5{0}
5{0}
5{0}
5{0}
5{0}
5{0}
5{0}
5{0}
5{0}
5{0}
5{0}
5{0}
5{0}
5{0}
5{0}
5{0}
5{0}
5{0}
5{0}
5{0}
5{0}
5{0}
5{0}
5{0}
5{0}
5{0}
5{0}
5{0}
5{0}
5{0}
5{0}
5{0}
5{0}
5{0}
5{0}
5{0}
5{0}
5{0}
5{0}
5{0}
5{0}
5{0}
5{0}
5{0}
5{0}
5{0}
5{0}
)


60
(
5{0}
5{0}
5{0}
5{0}
5{0}
5{0}
5{0}
5{0}
5{0}
5{0}
5{0}
5{0}
5{0}
5{0}
5{0}
5{0}
5{0}
5{0}
5{0}
5{0}
5{0}
5{0}
5{0}
5{0}
5{0}
5{0}
5{0}
5{0}
5{0}
5{0}
5{0}
5{0}
5{0}
5{0}
5{0}
5{0}
5{0}
5{0}
5{0}
5{0}
5{0}
5{0}
5{0}
5{0}
5{0}
5{0}
5{0}
5{0}
5{0}
5{0}
5{0}
5{0}
5{0}
5{0}
5{0}
5{0}
5{0}
5{0}
5{0}
5{0}
)


60
(
5{0}
5{0}
5{0}
5{0}
5{0}
5{0}
5{0}
5{0}
5{0}
5{0}
5{0}
5{0}
5{0}
5{0}
5{0}
5{0}
5{0}
5{0}
5{0}
5{0}
5{0}
5{0}
5{0}
5{0}
5{0}
5{0}
5{0}
5{0}
5{0}
5{0}
5{0}
5{0}
5{0}
5{0}
5{0}
5{0}
5{0}
5{0}
5{0}
5{0}
5{0}
5{0}
5{0}
5{0}
5{0}
5{0}
5{0}
5{0}
5{0}
5{0}
5{0}
5{0}
5{0}
5{0}
5{0}
5{0}
5{0}
5{0}
5{0}
5{0}
)


60
(
5{0}
5{0}
5{0}
5{0}
5{0}
5{0}
5{0}
5{0}
5{0}
5{0}
5{0}
5{0}
5{0}
5{0}
5{0}
5{0}
5{0}
5{0}
5{0}
5{0}
5{0}
5{0}
5{0}
5{0}
5{0}
5{0}
5{0}
5{0}
5{0}
5{0}
5{0}
5{0}
5{0}
5{0}
5{0}
5{0}
5{0}
5{0}
5{0}
5{0}
5{0}
5{0}
5{0}
5{0}
5{0}
5{0}
5{0}
5{0}
5{0}
5{0}
5{0}
5{0}
5{0}
5{0}
5{0}
5{0}
5{0}
5{0}
5{0}
5{0}
)


60
(
5{0}
5{0}
5{0}
5{0}
5{0}
5{0}
5{0}
5{0}
5{0}
5{0}
5{0}
5{0}
5{0}
5{0}
5{0}
5{0}
5{0}
5{0}
5{0}
5{0}
5{0}
5{0}
5{0}
5{0}
5{0}
5{0}
5{0}
5{0}
5{0}
5{0}
5{0}
5{0}
5{0}
5{0}
5{0}
5{0}
5{0}
5{0}
5{0}
5{0}
5{0}
5{0}
5{0}
5{0}
5{0}
5{0}
5{0}
5{0}
5{0}
5{0}
5{0}
5{0}
5{0}
5{0}
5{0}
5{0}
5{0}
5{0}
5{0}
5{0}
)


60
(
5{0}
5{0}
5{0}
5{0}
5{0}
5{0}
5{0}
5{0}
5{0}
5{0}
5{0}
5{0}
5{0}
5{0}
5{0}
5{0}
5{0}
5{0}
5{0}
5{0}
5{0}
5{0}
5{0}
5{0}
5{0}
5{0}
5{0}
5{0}
5{0}
5{0}
5{0}
5{0}
5{0}
5{0}
5{0}
5{0}
5{0}
5{0}
5{0}
5{0}
5{0}
5{0}
5{0}
5{0}
5{0}
5{0}
5{0}
5{0}
5{0}
5{0}
5{0}
5{0}
5{0}
5{0}
5{0}
5{0}
5{0}
5{0}
5{0}
5{0}
)


60
(
5{0}
5{0}
5{0}
5{0}
5{0}
5{0}
5{0}
5{0}
5{0}
5{0}
5{0}
5{0}
5{0}
5{0}
5{0}
5{0}
5{0}
5{0}
5{0}
5{0}
5{0}
5{0}
5{0}
5{0}
5{0}
5{0}
5{0}
5{0}
5{0}
5{0}
5{0}
5{0}
5{0}
5{0}
5{0}
5{0}
5{0}
5{0}
5{0}
5{0}
5{0}
5{0}
5{0}
5{0}
5{0}
5{0}
5{0}
5{0}
5{0}
5{0}
5{0}
5{0}
5{0}
5{0}
5{0}
5{0}
5{0}
5{0}
5{0}
5{0}
)


60
(
5{0}
5{0}
5{0}
5{0}
5{0}
5{0}
5{0}
5{0}
5{0}
5{0}
5{0}
5{0}
5{0}
5{0}
5{0}
5{0}
5{0}
5{0}
5{0}
5{0}
5{0}
5{0}
5{0}
5{0}
5{0}
5{0}
5{0}
5{0}
5{0}
5{0}
5{0}
5{0}
5{0}
5{0}
5{0}
5{0}
5{0}
5{0}
5{0}
5{0}
5{0}
5{0}
5{0}
5{0}
5{0}
5{0}
5{0}
5{0}
5{0}
5{0}
5{0}
5{0}
5{0}
5{0}
5{0}
5{0}
5{0}
5{0}
5{0}
5{0}
)


60
(
5{0}
5{0}
5{0}
5{0}
5{0}
5{0}
5{0}
5{0}
5{0}
5{0}
5{0}
5{0}
5{0}
5{0}
5{0}
5{0}
5{0}
5{0}
5{0}
5{0}
5{0}
5{0}
5{0}
5{0}
5{0}
5{0}
5{0}
5{0}
5{0}
5{0}
5{0}
5{0}
5{0}
5{0}
5{0}
5{0}
5{0}
5{0}
5{0}
5{0}
5{0}
5{0}
5{0}
5{0}
5{0}
5{0}
5{0}
5{0}
5{0}
5{0}
5{0}
5{0}
5{0}
5{0}
5{0}
5{0}
5{0}
5{0}
5{0}
5{0}
)


60
(
5{0}
5{0}
5{0}
5{0}
5{0}
5{0}
5{0}
5{0}
5{0}
5{0}
5{0}
5{0}
5{0}
5{0}
5{0}
5{0}
5{0}
5{0}
5{0}
5{0}
5{0}
5{0}
5{0}
5{0}
5{0}
5{0}
5{0}
5{0}
5{0}
5{0}
5{0}
5{0}
5{0}
5{0}
5{0}
5{0}
5{0}
5{0}
5{0}
5{0}
5{0}
5{0}
5{0}
5{0}
5{0}
5{0}
5{0}
5{0}
5{0}
5{0}
5{0}
5{0}
5{0}
5{0}
5{0}
5{0}
5{0}
5{0}
5{0}
5{0}
)


60
(
5{0}
5{0}
5{0}
5{0}
5{0}
5{0}
5{0}
5{0}
5{0}
5{0}
5{0}
5{0}
5{0}
5{0}
5{0}
5{0}
5{0}
5{0}
5{0}
5{0}
5{0}
5{0}
5{0}
5{0}
5{0}
5{0}
5{0}
5{0}
5{0}
5{0}
5{0}
5{0}
5{0}
5{0}
5{0}
5{0}
5{0}
5{0}
5{0}
5{0}
5{0}
5{0}
5{0}
5{0}
5{0}
5{0}
5{0}
5{0}
5{0}
5{0}
5{0}
5{0}
5{0}
5{0}
5{0}
5{0}
5{0}
5{0}
5{0}
5{0}
)


60
(
5{0}
5{0}
5{0}
5{0}
5{0}
5{0}
5{0}
5{0}
5{0}
5{0}
5{0}
5{0}
5{0}
5{0}
5{0}
5{0}
5{0}
5{0}
5{0}
5{0}
5{0}
5{0}
5{0}
5{0}
5{0}
5{0}
5{0}
5{0}
5{0}
5{0}
5{0}
5{0}
5{0}
5{0}
5{0}
5{0}
5{0}
5{0}
5{0}
5{0}
5{0}
5{0}
5{0}
5{0}
5{0}
5{0}
5{0}
5{0}
5{0}
5{0}
5{0}
5{0}
5{0}
5{0}
5{0}
5{0}
5{0}
5{0}
5{0}
5{0}
)


60
(
5{0}
5{0}
5{0}
5{0}
5{0}
5{0}
5{0}
5{0}
5{0}
5{0}
5{0}
5{0}
5{0}
5{0}
5{0}
5{0}
5{0}
5{0}
5{0}
5{0}
5{0}
5{0}
5{0}
5{0}
5{0}
5{0}
5{0}
5{0}
5{0}
5{0}
5{0}
5{0}
5{0}
5{0}
5{0}
5{0}
5{0}
5{0}
5{0}
5{0}
5{0}
5{0}
5{0}
5{0}
5{0}
5{0}
5{0}
5{0}
5{0}
5{0}
5{0}
5{0}
5{0}
5{0}
5{0}
5{0}
5{0}
5{0}
5{0}
5{0}
)


60
(
5{0}
5{0}
5{0}
5{0}
5{0}
5{0}
5{0}
5{0}
5{0}
5{0}
5{0}
5{0}
5{0}
5{0}
5{0}
5{0}
5{0}
5{0}
5{0}
5{0}
5{0}
5{0}
5{0}
5{0}
5{0}
5{0}
5{0}
5{0}
5{0}
5{0}
5{0}
5{0}
5{0}
5{0}
5{0}
5{0}
5{0}
5{0}
5{0}
5{0}
5{0}
5{0}
5{0}
5{0}
5{0}
5{0}
5{0}
5{0}
5{0}
5{0}
5{0}
5{0}
5{0}
5{0}
5{0}
5{0}
5{0}
5{0}
5{0}
5{0}
)


60
(
5{0}
5{0}
5{0}
5{0}
5{0}
5{0}
5{0}
5{0}
5{0}
5{0}
5{0}
5{0}
5{0}
5{0}
5{0}
5{0}
5{0}
5{0}
5{0}
5{0}
5{0}
5{0}
5{0}
5{0}
5{0}
5{0}
5{0}
5{0}
5{0}
5{0}
5{0}
5{0}
5{0}
5{0}
5{0}
5{0}
5{0}
5{0}
5{0}
5{0}
5{0}
5{0}
5{0}
5{0}
5{0}
5{0}
5{0}
5{0}
5{0}
5{0}
5{0}
5{0}
5{0}
5{0}
5{0}
5{0}
5{0}
5{0}
5{0}
5{0}
)


60
(
5{0}
5{0}
5{0}
5{0}
5{0}
5{0}
5{0}
5{0}
5{0}
5{0}
5{0}
5{0}
5{0}
5{0}
5{0}
5{0}
5{0}
5{0}
5{0}
5{0}
5{0}
5{0}
5{0}
5{0}
5{0}
5{0}
5{0}
5{0}
5{0}
5{0}
5{0}
5{0}
5{0}
5{0}
5{0}
5{0}
5{0}
5{0}
5{0}
5{0}
5{0}
5{0}
5{0}
5{0}
5{0}
5{0}
5{0}
5{0}
5{0}
5{0}
5{0}
5{0}
5{0}
5{0}
5{0}
5{0}
5{0}
5{0}
5{0}
5{0}
)


60
(
5{0}
5{0}
5{0}
5{0}
5{0}
5{0}
5{0}
5{0}
5{0}
5{0}
5{0}
5{0}
5{0}
5{0}
5{0}
5{0}
5{0}
5{0}
5{0}
5{0}
5{0}
5{0}
5{0}
5{0}
5{0}
5{0}
5{0}
5{0}
5{0}
5{0}
5{0}
5{0}
5{0}
5{0}
5{0}
5{0}
5{0}
5{0}
5{0}
5{0}
5{0}
5{0}
5{0}
5{0}
5{0}
5{0}
5{0}
5{0}
5{0}
5{0}
5{0}
5{0}
5{0}
5{0}
5{0}
5{0}
5{0}
5{0}
5{0}
5{0}
)


60
(
5{0}
5{0}
5{0}
5{0}
5{0}
5{0}
5{0}
5{0}
5{0}
5{0}
5{0}
5{0}
5{0}
5{0}
5{0}
5{0}
5{0}
5{0}
5{0}
5{0}
5{0}
5{0}
5{0}
5{0}
5{0}
5{0}
5{0}
5{0}
5{0}
5{0}
5{0}
5{0}
5{0}
5{0}
5{0}
5{0}
5{0}
5{0}
5{0}
5{0}
5{0}
5{0}
5{0}
5{0}
5{0}
5{0}
5{0}
5{0}
5{0}
5{0}
5{0}
5{0}
5{0}
5{0}
5{0}
5{0}
5{0}
5{0}
5{0}
5{0}
)


60
(
5{0}
5{0}
5{0}
5{0}
5{0}
5{0}
5{0}
5{0}
5{0}
5{0}
5{0}
5{0}
5{0}
5{0}
5{0}
5{0}
5{0}
5{0}
5{0}
5{0}
5{0}
5{0}
5{0}
5{0}
5{0}
5{0}
5{0}
5{0}
5{0}
5{0}
5{0}
5{0}
5{0}
5{0}
5{0}
5{0}
5{0}
5{0}
5{0}
5{0}
5{0}
5{0}
5{0}
5{0}
5{0}
5{0}
5{0}
5{0}
5{0}
5{0}
5{0}
5{0}
5{0}
5{0}
5{0}
5{0}
5{0}
5{0}
5{0}
5{0}
)


60
(
5{0}
5{0}
5{0}
5{0}
5{0}
5{0}
5{0}
5{0}
5{0}
5{0}
5{0}
5{0}
5{0}
5{0}
5{0}
5{0}
5{0}
5{0}
5{0}
5{0}
5{0}
5{0}
5{0}
5{0}
5{0}
5{0}
5{0}
5{0}
5{0}
5{0}
5{0}
5{0}
5{0}
5{0}
5{0}
5{0}
5{0}
5{0}
5{0}
5{0}
5{0}
5{0}
5{0}
5{0}
5{0}
5{0}
5{0}
5{0}
5{0}
5{0}
5{0}
5{0}
5{0}
5{0}
5{0}
5{0}
5{0}
5{0}
5{0}
5{0}
)


60
(
5{0}
5{0}
5{0}
5{0}
5{0}
5{0}
5{0}
5{0}
5{0}
5{0}
5{0}
5{0}
5{0}
5{0}
5{0}
5{0}
5{0}
5{0}
5{0}
5{0}
5{0}
5{0}
5{0}
5{0}
5{0}
5{0}
5{0}
5{0}
5{0}
5{0}
5{0}
5{0}
5{0}
5{0}
5{0}
5{0}
5{0}
5{0}
5{0}
5{0}
5{0}
5{0}
5{0}
5{0}
5{0}
5{0}
5{0}
5{0}
5{0}
5{0}
5{0}
5{0}
5{0}
5{0}
5{0}
5{0}
5{0}
5{0}
5{0}
5{0}
)


60
(
5{0}
5{0}
5{0}
5{0}
5{0}
5{0}
5{0}
5{0}
5{0}
5{0}
5{0}
5{0}
5{0}
5{0}
5{0}
5{0}
5{0}
5{0}
5{0}
5{0}
5{0}
5{0}
5{0}
5{0}
5{0}
5{0}
5{0}
5{0}
5{0}
5{0}
5{0}
5{0}
5{0}
5{0}
5{0}
5{0}
5{0}
5{0}
5{0}
5{0}
5{0}
5{0}
5{0}
5{0}
5{0}
5{0}
5{0}
5{0}
5{0}
5{0}
5{0}
5{0}
5{0}
5{0}
5{0}
5{0}
5{0}
5{0}
5{0}
5{0}
)


60
(
5{0}
5{0}
5{0}
5{0}
5{0}
5{0}
5{0}
5{0}
5{0}
5{0}
5{0}
5{0}
5{0}
5{0}
5{0}
5{0}
5{0}
5{0}
5{0}
5{0}
5{0}
5{0}
5{0}
5{0}
5{0}
5{0}
5{0}
5{0}
5{0}
5{0}
5{0}
5{0}
5{0}
5{0}
5{0}
5{0}
5{0}
5{0}
5{0}
5{0}
5{0}
5{0}
5{0}
5{0}
5{0}
5{0}
5{0}
5{0}
5{0}
5{0}
5{0}
5{0}
5{0}
5{0}
5{0}
5{0}
5{0}
5{0}
5{0}
5{0}
)


60
(
5{0}
5{0}
5{0}
5{0}
5{0}
5{0}
5{0}
5{0}
5{0}
5{0}
5{0}
5{0}
5{0}
5{0}
5{0}
5{0}
5{0}
5{0}
5{0}
5{0}
5{0}
5{0}
5{0}
5{0}
5{0}
5{0}
5{0}
5{0}
5{0}
5{0}
5{0}
5{0}
5{0}
5{0}
5{0}
5{0}
5{0}
5{0}
5{0}
5{0}
5{0}
5{0}
5{0}
5{0}
5{0}
5{0}
5{0}
5{0}
5{0}
5{0}
5{0}
5{0}
5{0}
5{0}
5{0}
5{0}
5{0}
5{0}
5{0}
5{0}
)


60
(
5{0}
5{0}
5{0}
5{0}
5{0}
5{0}
5{0}
5{0}
5{0}
5{0}
5{0}
5{0}
5{0}
5{0}
5{0}
5{0}
5{0}
5{0}
5{0}
5{0}
5{0}
5{0}
5{0}
5{0}
5{0}
5{0}
5{0}
5{0}
5{0}
5{0}
5{0}
5{0}
5{0}
5{0}
5{0}
5{0}
5{0}
5{0}
5{0}
5{0}
5{0}
5{0}
5{0}
5{0}
5{0}
5{0}
5{0}
5{0}
5{0}
5{0}
5{0}
5{0}
5{0}
5{0}
5{0}
5{0}
5{0}
5{0}
5{0}
5{0}
)


60
(
5{0}
5{0}
5{0}
5{0}
5{0}
5{0}
5{0}
5{0}
5{0}
5{0}
5{0}
5{0}
5{0}
5{0}
5{0}
5{0}
5{0}
5{0}
5{0}
5{0}
5{0}
5{0}
5{0}
5{0}
5{0}
5{0}
5{0}
5{0}
5{0}
5{0}
5{0}
5{0}
5{0}
5{0}
5{0}
5{0}
5{0}
5{0}
5{0}
5{0}
5{0}
5{0}
5{0}
5{0}
5{0}
5{0}
5{0}
5{0}
5{0}
5{0}
5{0}
5{0}
5{0}
5{0}
5{0}
5{0}
5{0}
5{0}
5{0}
5{0}
)


60
(
5{0}
5{0}
5{0}
5{0}
5{0}
5{0}
5{0}
5{0}
5{0}
5{0}
5{0}
5{0}
5{0}
5{0}
5{0}
5{0}
5{0}
5{0}
5{0}
5{0}
5{0}
5{0}
5{0}
5{0}
5{0}
5{0}
5{0}
5{0}
5{0}
5{0}
5{0}
5{0}
5{0}
5{0}
5{0}
5{0}
5{0}
5{0}
5{0}
5{0}
5{0}
5{0}
5{0}
5{0}
5{0}
5{0}
5{0}
5{0}
5{0}
5{0}
5{0}
5{0}
5{0}
5{0}
5{0}
5{0}
5{0}
5{0}
5{0}
5{0}
)


60
(
5{0}
5{0}
5{0}
5{0}
5{0}
5{0}
5{0}
5{0}
5{0}
5{0}
5{0}
5{0}
5{0}
5{0}
5{0}
5{0}
5{0}
5{0}
5{0}
5{0}
5{0}
5{0}
5{0}
5{0}
5{0}
5{0}
5{0}
5{0}
5{0}
5{0}
5{0}
5{0}
5{0}
5{0}
5{0}
5{0}
5{0}
5{0}
5{0}
5{0}
5{0}
5{0}
5{0}
5{0}
5{0}
5{0}
5{0}
5{0}
5{0}
5{0}
5{0}
5{0}
5{0}
5{0}
5{0}
5{0}
5{0}
5{0}
5{0}
5{0}
)


60
(
5{0}
5{0}
5{0}
5{0}
5{0}
5{0}
5{0}
5{0}
5{0}
5{0}
5{0}
5{0}
5{0}
5{0}
5{0}
5{0}
5{0}
5{0}
5{0}
5{0}
5{0}
5{0}
5{0}
5{0}
5{0}
5{0}
5{0}
5{0}
5{0}
5{0}
5{0}
5{0}
5{0}
5{0}
5{0}
5{0}
5{0}
5{0}
5{0}
5{0}
5{0}
5{0}
5{0}
5{0}
5{0}
5{0}
5{0}
5{0}
5{0}
5{0}
5{0}
5{0}
5{0}
5{0}
5{0}
5{0}
5{0}
5{0}
5{0}
5{0}
)


60
(
5{0}
5{0}
5{0}
5{0}
5{0}
5{0}
5{0}
5{0}
5{0}
5{0}
5{0}
5{0}
5{0}
5{0}
5{0}
5{0}
5{0}
5{0}
5{0}
5{0}
5{0}
5{0}
5{0}
5{0}
5{0}
5{0}
5{0}
5{0}
5{0}
5{0}
5{0}
5{0}
5{0}
5{0}
5{0}
5{0}
5{0}
5{0}
5{0}
5{0}
5{0}
5{0}
5{0}
5{0}
5{0}
5{0}
5{0}
5{0}
5{0}
5{0}
5{0}
5{0}
5{0}
5{0}
5{0}
5{0}
5{0}
5{0}
5{0}
5{0}
)


60
(
5{0}
5{0}
5{0}
5{0}
5{0}
5{0}
5{0}
5{0}
5{0}
5{0}
5{0}
5{0}
5{0}
5{0}
5{0}
5{0}
5{0}
5{0}
5{0}
5{0}
5{0}
5{0}
5{0}
5{0}
5{0}
5{0}
5{0}
5{0}
5{0}
5{0}
5{0}
5{0}
5{0}
5{0}
5{0}
5{0}
5{0}
5{0}
5{0}
5{0}
5{0}
5{0}
5{0}
5{0}
5{0}
5{0}
5{0}
5{0}
5{0}
5{0}
5{0}
5{0}
5{0}
5{0}
5{0}
5{0}
5{0}
5{0}
5{0}
5{0}
)


60
(
5{0}
5{0}
5{0}
5{0}
5{0}
5{0}
5{0}
5{0}
5{0}
5{0}
5{0}
5{0}
5{0}
5{0}
5{0}
5{0}
5{0}
5{0}
5{0}
5{0}
5{0}
5{0}
5{0}
5{0}
5{0}
5{0}
5{0}
5{0}
5{0}
5{0}
5{0}
5{0}
5{0}
5{0}
5{0}
5{0}
5{0}
5{0}
5{0}
5{0}
5{0}
5{0}
5{0}
5{0}
5{0}
5{0}
5{0}
5{0}
5{0}
5{0}
5{0}
5{0}
5{0}
5{0}
5{0}
5{0}
5{0}
5{0}
5{0}
5{0}
)


60
(
5{0}
5{0}
5{0}
5{0}
5{0}
5{0}
5{0}
5{0}
5{0}
5{0}
5{0}
5{0}
5{0}
5{0}
5{0}
5{0}
5{0}
5{0}
5{0}
5{0}
5{0}
5{0}
5{0}
5{0}
5{0}
5{0}
5{0}
5{0}
5{0}
5{0}
5{0}
5{0}
5{0}
5{0}
5{0}
5{0}
5{0}
5{0}
5{0}
5{0}
5{0}
5{0}
5{0}
5{0}
5{0}
5{0}
5{0}
5{0}
5{0}
5{0}
5{0}
5{0}
5{0}
5{0}
5{0}
5{0}
5{0}
5{0}
5{0}
5{0}
)


60
(
5{0}
5{0}
5{0}
5{0}
5{0}
5{0}
5{0}
5{0}
5{0}
5{0}
5{0}
5{0}
5{0}
5{0}
5{0}
5{0}
5{0}
5{0}
5{0}
5{0}
5{0}
5{0}
5{0}
5{0}
5{0}
5{0}
5{0}
5{0}
5{0}
5{0}
5{0}
5{0}
5{0}
5{0}
5{0}
5{0}
5{0}
5{0}
5{0}
5{0}
5{0}
5{0}
5{0}
5{0}
5{0}
5{0}
5{0}
5{0}
5{0}
5{0}
5{0}
5{0}
5{0}
5{0}
5{0}
5{0}
5{0}
5{0}
5{0}
5{0}
)


60
(
5{0}
5{0}
5{0}
5{0}
5{0}
5{0}
5{0}
5{0}
5{0}
5{0}
5{0}
5{0}
5{0}
5{0}
5{0}
5{0}
5{0}
5{0}
5{0}
5{0}
5{0}
5{0}
5{0}
5{0}
5{0}
5{0}
5{0}
5{0}
5{0}
5{0}
5{0}
5{0}
5{0}
5{0}
5{0}
5{0}
5{0}
5{0}
5{0}
5{0}
5{0}
5{0}
5{0}
5{0}
5{0}
5{0}
5{0}
5{0}
5{0}
5{0}
5{0}
5{0}
5{0}
5{0}
5{0}
5{0}
5{0}
5{0}
5{0}
5{0}
)


60
(
5{0}
5{0}
5{0}
5{0}
5{0}
5{0}
5{0}
5{0}
5{0}
5{0}
5{0}
5{0}
5{0}
5{0}
5{0}
5{0}
5{0}
5{0}
5{0}
5{0}
5{0}
5{0}
5{0}
5{0}
5{0}
5{0}
5{0}
5{0}
5{0}
5{0}
5{0}
5{0}
5{0}
5{0}
5{0}
5{0}
5{0}
5{0}
5{0}
5{0}
5{0}
5{0}
5{0}
5{0}
5{0}
5{0}
5{0}
5{0}
5{0}
5{0}
5{0}
5{0}
5{0}
5{0}
5{0}
5{0}
5{0}
5{0}
5{0}
5{0}
)


60
(
5{0}
5{0}
5{0}
5{0}
5{0}
5{0}
5{0}
5{0}
5{0}
5{0}
5{0}
5{0}
5{0}
5{0}
5{0}
5{0}
5{0}
5{0}
5{0}
5{0}
5{0}
5{0}
5{0}
5{0}
5{0}
5{0}
5{0}
5{0}
5{0}
5{0}
5{0}
5{0}
5{0}
5{0}
5{0}
5{0}
5{0}
5{0}
5{0}
5{0}
5{0}
5{0}
5{0}
5{0}
5{0}
5{0}
5{0}
5{0}
5{0}
5{0}
5{0}
5{0}
5{0}
5{0}
5{0}
5{0}
5{0}
5{0}
5{0}
5{0}
)


60
(
5{0}
5{0}
5{0}
5{0}
5{0}
5{0}
5{0}
5{0}
5{0}
5{0}
5{0}
5{0}
5{0}
5{0}
5{0}
5{0}
5{0}
5{0}
5{0}
5{0}
5{0}
5{0}
5{0}
5{0}
5{0}
5{0}
5{0}
5{0}
5{0}
5{0}
5{0}
5{0}
5{0}
5{0}
5{0}
5{0}
5{0}
5{0}
5{0}
5{0}
5{0}
5{0}
5{0}
5{0}
5{0}
5{0}
5{0}
5{0}
5{0}
5{0}
5{0}
5{0}
5{0}
5{0}
5{0}
5{0}
5{0}
5{0}
5{0}
5{0}
)


60
(
5{0}
5{0}
5{0}
5{0}
5{0}
5{0}
5{0}
5{0}
5{0}
5{0}
5{0}
5{0}
5{0}
5{0}
5{0}
5{0}
5{0}
5{0}
5{0}
5{0}
5{0}
5{0}
5{0}
5{0}
5{0}
5{0}
5{0}
5{0}
5{0}
5{0}
5{0}
5{0}
5{0}
5{0}
5{0}
5{0}
5{0}
5{0}
5{0}
5{0}
5{0}
5{0}
5{0}
5{0}
5{0}
5{0}
5{0}
5{0}
5{0}
5{0}
5{0}
5{0}
5{0}
5{0}
5{0}
5{0}
5{0}
5{0}
5{0}
5{0}
)


60
(
5{0}
5{0}
5{0}
5{0}
5{0}
5{0}
5{0}
5{0}
5{0}
5{0}
5{0}
5{0}
5{0}
5{0}
5{0}
5{0}
5{0}
5{0}
5{0}
5{0}
5{0}
5{0}
5{0}
5{0}
5{0}
5{0}
5{0}
5{0}
5{0}
5{0}
5{0}
5{0}
5{0}
5{0}
5{0}
5{0}
5{0}
5{0}
5{0}
5{0}
5{0}
5{0}
5{0}
5{0}
5{0}
5{0}
5{0}
5{0}
5{0}
5{0}
5{0}
5{0}
5{0}
5{0}
5{0}
5{0}
5{0}
5{0}
5{0}
5{0}
)


60
(
5{0}
5{0}
5{0}
5{0}
5{0}
5{0}
5{0}
5{0}
5{0}
5{0}
5{0}
5{0}
5{0}
5{0}
5{0}
5{0}
5{0}
5{0}
5{0}
5{0}
5{0}
5{0}
5{0}
5{0}
5{0}
5{0}
5{0}
5{0}
5{0}
5{0}
5{0}
5{0}
5{0}
5{0}
5{0}
5{0}
5{0}
5{0}
5{0}
5{0}
5{0}
5{0}
5{0}
5{0}
5{0}
5{0}
5{0}
5{0}
5{0}
5{0}
5{0}
5{0}
5{0}
5{0}
5{0}
5{0}
5{0}
5{0}
5{0}
5{0}
)


60
(
5{0}
5{0}
5{0}
5{0}
5{0}
5{0}
5{0}
5{0}
5{0}
5{0}
5{0}
5{0}
5{0}
5{0}
5{0}
5{0}
5{0}
5{0}
5{0}
5{0}
5{0}
5{0}
5{0}
5{0}
5{0}
5{0}
5{0}
5{0}
5{0}
5{0}
5{0}
5{0}
5{0}
5{0}
5{0}
5{0}
5{0}
5{0}
5{0}
5{0}
5{0}
5{0}
5{0}
5{0}
5{0}
5{0}
5{0}
5{0}
5{0}
5{0}
5{0}
5{0}
5{0}
5{0}
5{0}
5{0}
5{0}
5{0}
5{0}
5{0}
)


60
(
5{0}
5{0}
5{0}
5{0}
5{0}
5{0}
5{0}
5{0}
5{0}
5{0}
5{0}
5{0}
5{0}
5{0}
5{0}
5{0}
5{0}
5{0}
5{0}
5{0}
5{0}
5{0}
5{0}
5{0}
5{0}
5{0}
5{0}
5{0}
5{0}
5{0}
5{0}
5{0}
5{0}
5{0}
5{0}
5{0}
5{0}
5{0}
5{0}
5{0}
5{0}
5{0}
5{0}
5{0}
5{0}
5{0}
5{0}
5{0}
5{0}
5{0}
5{0}
5{0}
5{0}
5{0}
5{0}
5{0}
5{0}
5{0}
5{0}
5{0}
)


60
(
5{0}
5{0}
5{0}
5{0}
5{0}
5{0}
5{0}
5{0}
5{0}
5{0}
5{0}
5{0}
5{0}
5{0}
5{0}
5{0}
5{0}
5{0}
5{0}
5{0}
5{0}
5{0}
5{0}
5{0}
5{0}
5{0}
5{0}
5{0}
5{0}
5{0}
5{0}
5{0}
5{0}
5{0}
5{0}
5{0}
5{0}
5{0}
5{0}
5{0}
5{0}
5{0}
5{0}
5{0}
5{0}
5{0}
5{0}
5{0}
5{0}
5{0}
5{0}
5{0}
5{0}
5{0}
5{0}
5{0}
5{0}
5{0}
5{0}
5{0}
)


60
(
5{0}
5{0}
5{0}
5{0}
5{0}
5{0}
5{0}
5{0}
5{0}
5{0}
5{0}
5{0}
5{0}
5{0}
5{0}
5{0}
5{0}
5{0}
5{0}
5{0}
5{0}
5{0}
5{0}
5{0}
5{0}
5{0}
5{0}
5{0}
5{0}
5{0}
5{0}
5{0}
5{0}
5{0}
5{0}
5{0}
5{0}
5{0}
5{0}
5{0}
5{0}
5{0}
5{0}
5{0}
5{0}
5{0}
5{0}
5{0}
5{0}
5{0}
5{0}
5{0}
5{0}
5{0}
5{0}
5{0}
5{0}
5{0}
5{0}
5{0}
)


60
(
5{0}
5{0}
5{0}
5{0}
5{0}
5{0}
5{0}
5{0}
5{0}
5{0}
5{0}
5{0}
5{0}
5{0}
5{0}
5{0}
5{0}
5{0}
5{0}
5{0}
5{0}
5{0}
5{0}
5{0}
5{0}
5{0}
5{0}
5{0}
5{0}
5{0}
5{0}
5{0}
5{0}
5{0}
5{0}
5{0}
5{0}
5{0}
5{0}
5{0}
5{0}
5{0}
5{0}
5{0}
5{0}
5{0}
5{0}
5{0}
5{0}
5{0}
5{0}
5{0}
5{0}
5{0}
5{0}
5{0}
5{0}
5{0}
5{0}
5{0}
)


60
(
5{0}
5{0}
5{0}
5{0}
5{0}
5{0}
5{0}
5{0}
5{0}
5{0}
5{0}
5{0}
5{0}
5{0}
5{0}
5{0}
5{0}
5{0}
5{0}
5{0}
5{0}
5{0}
5{0}
5{0}
5{0}
5{0}
5{0}
5{0}
5{0}
5{0}
5{0}
5{0}
5{0}
5{0}
5{0}
5{0}
5{0}
5{0}
5{0}
5{0}
5{0}
5{0}
5{0}
5{0}
5{0}
5{0}
5{0}
5{0}
5{0}
5{0}
5{0}
5{0}
5{0}
5{0}
5{0}
5{0}
5{0}
5{0}
5{0}
5{0}
)


60
(
5{0}
5{0}
5{0}
5{0}
5{0}
5{0}
5{0}
5{0}
5{0}
5{0}
5{0}
5{0}
5{0}
5{0}
5{0}
5{0}
5{0}
5{0}
5{0}
5{0}
5{0}
5{0}
5{0}
5{0}
5{0}
5{0}
5{0}
5{0}
5{0}
5{0}
5{0}
5{0}
5{0}
5{0}
5{0}
5{0}
5{0}
5{0}
5{0}
5{0}
5{0}
5{0}
5{0}
5{0}
5{0}
5{0}
5{0}
5{0}
5{0}
5{0}
5{0}
5{0}
5{0}
5{0}
5{0}
5{0}
5{0}
5{0}
5{0}
5{0}
)


60
(
5{0}
5{0}
5{0}
5{0}
5{0}
5{0}
5{0}
5{0}
5{0}
5{0}
5{0}
5{0}
5{0}
5{0}
5{0}
5{0}
5{0}
5{0}
5{0}
5{0}
5{0}
5{0}
5{0}
5{0}
5{0}
5{0}
5{0}
5{0}
5{0}
5{0}
5{0}
5{0}
5{0}
5{0}
5{0}
5{0}
5{0}
5{0}
5{0}
5{0}
5{0}
5{0}
5{0}
5{0}
5{0}
5{0}
5{0}
5{0}
5{0}
5{0}
5{0}
5{0}
5{0}
5{0}
5{0}
5{0}
5{0}
5{0}
5{0}
5{0}
)


60
(
5{0}
5{0}
5{0}
5{0}
5{0}
5{0}
5{0}
5{0}
5{0}
5{0}
5{0}
5{0}
5{0}
5{0}
5{0}
5{0}
5{0}
5{0}
5{0}
5{0}
5{0}
5{0}
5{0}
5{0}
5{0}
5{0}
5{0}
5{0}
5{0}
5{0}
5{0}
5{0}
5{0}
5{0}
5{0}
5{0}
5{0}
5{0}
5{0}
5{0}
5{0}
5{0}
5{0}
5{0}
5{0}
5{0}
5{0}
5{0}
5{0}
5{0}
5{0}
5{0}
5{0}
5{0}
5{0}
5{0}
5{0}
5{0}
5{0}
5{0}
)


60
(
5{0}
5{0}
5{0}
5{0}
5{0}
5{0}
5{0}
5{0}
5{0}
5{0}
5{0}
5{0}
5{0}
5{0}
5{0}
5{0}
5{0}
5{0}
5{0}
5{0}
5{0}
5{0}
5{0}
5{0}
5{0}
5{0}
5{0}
5{0}
5{0}
5{0}
5{0}
5{0}
5{0}
5{0}
5{0}
5{0}
5{0}
5{0}
5{0}
5{0}
5{0}
5{0}
5{0}
5{0}
5{0}
5{0}
5{0}
5{0}
5{0}
5{0}
5{0}
5{0}
5{0}
5{0}
5{0}
5{0}
5{0}
5{0}
5{0}
5{0}
)


60
(
5{0}
5{0}
5{0}
5{0}
5{0}
5{0}
5{0}
5{0}
5{0}
5{0}
5{0}
5{0}
5{0}
5{0}
5{0}
5{0}
5{0}
5{0}
5{0}
5{0}
5{0}
5{0}
5{0}
5{0}
5{0}
5{0}
5{0}
5{0}
5{0}
5{0}
5{0}
5{0}
5{0}
5{0}
5{0}
5{0}
5{0}
5{0}
5{0}
5{0}
5{0}
5{0}
5{0}
5{0}
5{0}
5{0}
5{0}
5{0}
5{0}
5{0}
5{0}
5{0}
5{0}
5{0}
5{0}
5{0}
5{0}
5{0}
5{0}
5{0}
)

)
;