/*--------------------------------*- C++ -*----------------------------------*\
| =========                 |                                                 |
| \\      /  F ield         | OpenFOAM: The Open Source CFD Toolbox           |
|  \\    /   O peration     | Version:  2.3.1                                 |
|   \\  /    A nd           | Web:      www.OpenFOAM.org                      |
|    \\/     M anipulation  |                                                 |
\*---------------------------------------------------------------------------*/
FoamFile
{
    version     2.0;
    format      ascii;
    class       dictionary;
    location    "constant";
    object      la_r19;
}
// * * * * * * * * * * * * * * * * * * * * * * * * * * * * * * * * * * * * * //

la_r19_table
60
(

60
(
5(7.669105588e-06 2.24769835e-06 1.323589152e-05 8.906511149e-06 4.230508879e-05)
5(-3.237454976e-06 -2.880548156e-06 -1.215384616e-05 -1.173054001e-05 -4.758903031e-06)
5(-0.02252492179 5.108654517e-06 1.801945941e-05 5.871830637e-06 -7.165985219e-12)
5(-0.06761280217 9.888387763e-06 4.144164223e-05 8.907659934e-06 5.192541579e-05)
5(-0.07191845025 5.086898024e-06 2.396357287e-05 1.139630387e-05 2.858594289e-05)
5(-0.04770128317 -1.01247692e-06 -1.122237588e-06 -2.891127959e-06 -3.494065592e-06)
5(-2.581978244e-06 -2.794070115e-06 -1.660012279e-05 -7.496818427e-06 -3.653888464e-06)
5(-1.910704543e-06 -1.678077618e-06 -9.429716125e-06 -5.913674227e-06 -4.817461124e-06)
5(-0.04496270305 -2.036145247e-07 -1.0986967e-05 4.082173377e-07 4.224678127e-06)
5(-0.06462622777 -8.704274142e-05 -2.12512267e-06 4.190192768e-06 1.503803455e-05)
5(-0.06339578639 -0.0001497227288 2.245650839e-06 1.28414849e-06 1.167159518e-05)
5(-0.02495338785 -1.874286205e-07 -5.682568226e-07 -2.577367027e-07 8.729402772e-07)
5(-6.907163374e-07 -8.071728941e-07 -2.741318748e-06 -3.963298011e-06 -9.11490127e-06)
5(-5.416499378e-07 -7.084542055e-07 -1.167665678e-06 -1.110578767e-06 -1.24090342e-05)
5(-3.052685651e-07 -6.950506255e-07 -8.03852841e-07 -1.179924375e-06 -5.419838187e-07)
5(-0.002388659661 -0.0001834962 -7.334762898e-05 -1.405224982e-05 2.034801956e-06)
5(-0.002078393828 -0.000135819484 -9.98362885e-05 -4.011290825e-06 -3.189634279e-06)
5(-0.000803233825 -8.622919513e-05 -8.072115874e-06 -2.600955149e-07 -2.207980873e-06)
5(-1.056785196e-06 -3.419933622e-05 -4.128839564e-06 -3.670075776e-06 1.675980016e-05)
5(-4.187051679e-06 -5.178602392e-06 -5.590849833e-06 -7.93384568e-06 2.211894764e-05)
5(-5.833215485e-06 -1.050105779e-05 -1.018512519e-05 -5.7896131e-06 -3.170336326e-07)
5(-9.4648821e-06 -8.356748476e-06 -4.58417918e-05 -1.365675611e-05 -4.550467465e-06)
5(-5.533536639e-06 -1.549519384e-05 -2.812803818e-05 -2.409938966e-05 -2.582202671e-05)
5(-8.431824602e-06 -1.837931921e-05 -2.293962573e-05 -1.91756624e-05 -1.007594998e-05)
5(-9.58003139e-05 -0.0004095445004 -2.232029001e-05 -2.395417126e-05 5.182736942e-06)
5(-8.762972214e-05 -0.001055924939 -4.000760993e-05 -3.689617552e-05 -2.154922563e-05)
5(-2.641494893e-05 -0.0007400324182 -6.104092777e-05 -7.692612524e-05 -4.870758822e-05)
5(-4.435691894e-05 -7.066808416e-05 -8.719972802e-05 -0.0001029305224 -3.54856735e-05)
5(-0.0001580941542 -0.0001316619104 -0.0001310216559 -0.0001633657371 -2.58802236e-05)
5(-0.0001447377302 -0.0001559484246 -0.0001499125448 -0.000277949569 -3.711157497e-05)
5(-0.0002299960785 -0.0002405103269 -0.0002287453627 0.000108247952 -0.0002430395924)
5(-0.0002184431401 -0.000169958775 -0.000348571522 0.0003286967046 -0.0005814279862)
5(-0.0005236888424 -0.0005535431583 -0.0009014642277 -1.416762278e-06 -0.001334837229)
5(-0.0007082405799 -0.0008305747371 -0.001664395173 -0.0001730334641 -0.0002875544552)
5(-0.0008521252815 -0.0005862351429 -0.002801500645 -0.0004611016697 -0.007756969558)
5(-0.000931472625 -0.0003447964882 -0.001600646861 -0.0009495090994 -0.01237920302)
5(-0.001186004843 -0.0005100812686 -0.001033377728 -0.000186570408 -0.003529018189)
5(-0.00133248913 -0.001407862966 -0.002324002901 -0.004144006288 -0.008842028151)
5(-0.001431737023 -0.0003349453999 -0.01162483408 -0.005228301224 -0.01711695197)
5(-0.002701867751 -0.0004384003098 0.003232892233 -0.004455480242 -0.001313995142)
5(-0.00182839108 -0.004180706782 0.01771504128 -0.02178333698 -0.002256742087)
5(0.002573245644 -0.01043672185 0.01105588124 -0.1637169635 1.342419943e-08)
5(0.003259602854 0.0005402883377 -0.004286261807 2.13880737e-08 5.664374005e-08)
5(-0.0001391039984 0.01220752656 -0.02513440819 3.041517941e-08 -0.01116922617)
5(-0.003724395403 0.01710854353 -0.05058863318 3.826302997e-08 -0.0009784836399)
5(-0.003359815786 -0.001601266751 -0.006048874984 8.533361082e-08 8.691832072e-08)
5(0.0006076978643 -0.03268986216 -0.03675833288 -0.002243280776 8.774585331e-08)
5(-0.03651857903 -0.002401511111 -0.01078036112 2.601261625e-07 2.431137803e-07)
5(-0.003669198656 -0.0009824966193 -0.00117469532 3.25164651e-07 8.101747105e-07)
5(-0.002812928054 -0.0005687480411 -1.220695523e-07 3.529919841e-07 6.664258183e-07)
5(-0.005996511258 9.801054214e-08 7.868255434e-08 2.079090612e-07 3.496139928e-07)
5(-0.009787722338 4.233430944e-08 -2.430518506e-08 3.333348792e-08 -4.137682939e-07)
5(-0.000158062455 -3.609568017e-07 1.225973688e-07 2.854610015e-07 1.223696616e-06)
5(3.887390017e-08 -2.001524435e-07 -1.989552732e-07 2.448331854e-08 -1.610676335e-06)
5(9.840811022e-08 -6.881162128e-07 -1.158236987e-07 1.639583334e-07 -1.993119701e-07)
5(-0.0002141110138 -2.786263e-07 2.208683109e-08 -1.240245635e-06 -8.116533125e-08)
5(-0.0007150259034 -1.120102061e-07 -3.306980555e-08 -5.070370743e-07 2.475289547e-07)
5(-0.0008350934692 -0.0005869514058 -1.446650433e-06 -6.484598256e-06 -3.153836973e-05)
5(-0.0005812483111 -0.00084328817 -0.0008374235427 -7.590221492e-06 6.668464885e-07)
5(1.483720435e-07 3.609939925e-07 8.212053163e-07 1.848767089e-06 3.180512145e-06)
)


60
(
5(7.451846557e-06 -2.774546479e-06 3.495518275e-06 -1.044047638e-05 3.898549787e-05)
5(-3.224512822e-06 -2.966805623e-06 -7.371282393e-06 -1.237182805e-05 -8.237217471e-05)
5(-2.06696068e-06 -2.522535334e-06 -4.800673892e-06 -6.911362232e-06 -3.900404957e-05)
5(-2.198651172e-06 -2.516860011e-06 -1.187720778e-06 -2.749649182e-06 -4.633230315e-05)
5(-1.698846779e-05 -3.91911275e-06 -1.092055999e-05 -2.038157931e-05 -4.958013786e-05)
5(-1.290707887e-05 -7.181842854e-06 -1.718558351e-05 -7.661181959e-05 -7.82993717e-05)
5(-1.33243073e-05 -6.853368577e-06 -2.646004334e-05 -4.934500461e-05 -9.394567625e-05)
5(-2.409526312e-05 -8.359949004e-06 -2.35069245e-05 -2.79545807e-05 -0.0001240682676)
5(-4.104454413e-05 -1.476037569e-05 -1.830516744e-05 -4.473773226e-05 -0.0001899726511)
5(-1.598370533e-05 -1.515752724e-05 -1.63661503e-05 -2.934615499e-05 -0.0004211439459)
5(-6.510676177e-05 -1.476493318e-05 -2.682673773e-05 -2.164189054e-05 -0.0003517998608)
5(-3.36671818e-05 -1.994300756e-05 -2.010455165e-05 -3.571516699e-05 -0.0001213997121)
5(-3.169122652e-05 -1.918965049e-05 -2.215271915e-05 -7.402333066e-05 -0.0002711094145)
5(-5.317338734e-05 -2.467575916e-05 -4.282788027e-05 -1.038068201e-05 -0.0001849026484)
5(-7.62361188e-05 -3.990948392e-05 -6.808914011e-05 -2.162484077e-05 -0.0001849882456)
5(-3.333813585e-05 -3.749799449e-05 -5.352794991e-05 -1.978162475e-05 -0.0002293745033)
5(-0.000142249283 -4.395122513e-05 -3.786197731e-05 9.617262997e-06 -0.0002553689504)
5(-0.0001800980032 -5.932685987e-05 -4.531964889e-05 -2.077806566e-05 -0.0003252037215)
5(-0.0001964667669 -0.0001063596398 -7.903856198e-05 -6.64712402e-05 -0.0004226205184)
5(-0.0002501753772 -0.0001358928258 -0.0001222026378 -0.0001380719473 -0.0001216470625)
5(-0.0003782966867 -0.0002037282844 -0.0002167415042 -0.000310281852 -0.000678181617)
5(-0.0006535597442 -0.0002929272319 -0.0004181721124 -0.0004391640472 -0.001079865359)
5(-0.0008155844832 -0.0004627330457 -0.0006591765122 -0.0007556754833 -0.00101468909)
5(-0.0006619519554 -0.0007466563024 -0.00104767745 -0.001362954908 -0.001782757761)
5(-0.001368478918 -0.001134646726 -0.00162731371 -0.002042051191 -0.002379826633)
5(-0.001329981771 -0.001795881138 -0.002338634536 -0.002972787582 -0.003340674968)
5(-0.001870619419 -0.002815152885 -0.00353056368 -0.004298055446 -0.004968817459)
5(-0.002694235317 -0.004155852568 -0.005247074333 -0.006117746094 -0.008164090627)
5(-0.004581385788 -0.005958642191 -0.007499324652 -0.008511797459 -0.007905360058)
5(-0.005073182024 -0.008457041704 -0.010350751 -0.01116494566 -0.01271775338)
5(-0.008496901599 -0.01175319795 -0.01401524358 -0.01416982834 -0.0122728584)
5(-0.01253125098 -0.01563321521 -0.01781462747 -0.0168109416 -0.01311338998)
5(-0.01692281665 -0.01938327427 -0.02102691813 -0.01835815588 -0.01874531512)
5(-0.01817032929 -0.02259710257 -0.02268433876 -0.01778684483 -0.0159176766)
5(-0.02636689747 -0.02414155157 -0.02150808903 -0.01336106835 -0.008219937799)
5(-0.01955669078 -0.02219441025 -0.01614576876 -0.004605160499 -0.01117900031)
5(-0.03929664468 -0.01458245472 -0.004247016935 0.009392802448 -0.01022742606)
5(-0.01391951373 -0.0002209212871 0.01535117199 0.02736447171 -0.003240196972)
5(0.008078134864 0.02330021602 0.04103258067 0.04777708892 0.01147594294)
5(0.01890909215 0.05025992703 0.06674208779 0.06492630255 0.03717041252)
5(0.03786975202 0.08258777774 0.09047733577 0.07221957912 0.01182597942)
5(0.006123835323 0.1076890234 0.1012582761 0.06612720662 0.01702362151)
5(0.08888353174 0.1201881821 0.09723801263 0.04689232792 -0.01678123913)
5(0.1106441253 0.1118279759 0.07056953878 0.01839317267 -0.02026685532)
5(0.09601282924 0.07862657221 0.03055903585 -0.006984008215 -0.02523870173)
5(0.02078169166 0.03332014137 -0.01002792483 -0.02098557892 -0.01184003291)
5(-0.1748692738 -0.01598614507 -0.03682307476 -0.02353552728 -0.008868080635)
5(-0.1585720811 -0.04831241518 -0.04357448475 -0.01812719881 -0.007472661208)
5(-0.1616542523 -0.05714523971 -0.03390647289 -0.01033993166 -0.002735218716)
5(-0.09990014902 -0.04544003396 -0.01933281446 -0.004447502531 -0.001253447654)
5(-0.07011164978 -0.02598647397 -0.00828632733 -0.001501491772 -0.0009416274558)
5(-0.04565504799 -0.01065622805 -0.002653196623 -0.0004096414985 -0.0002228622916)
5(-0.02214372108 -0.003222459343 -0.0006694271182 -9.65859749e-05 -0.001047645216)
5(-0.005806685842 -0.0006642878045 -0.0001181824715 -1.724299219e-05 -0.0001153530259)
5(-0.001780012817 -0.0001052295014 -1.990757884e-05 -3.728939288e-06 -0.0001201567606)
5(-0.0006014385373 -1.459601175e-05 -5.719779119e-06 -2.367013881e-06 -2.724355715e-05)
5(-0.0005401239933 -5.879466499e-06 -3.285678215e-06 -3.698822608e-06 -0.00030194766)
5(-7.768598607e-05 -5.570515047e-06 -1.555509078e-06 -3.751008596e-06 -2.737644209e-05)
5(-0.001181522821 -1.51600602e-05 -4.122627975e-06 -4.176959246e-06 -0.0008338348093)
5(-1.361459008e-06 -3.352229474e-06 -0.007839167219 -1.208654955e-05 -5.703850197e-05)
)


60
(
5(1.206524161e-05 -9.795133767e-06 4.50978988e-06 -4.761195659e-05 0.0001287470202)
5(-1.518038657e-05 -1.720911782e-05 -1.957143126e-05 -6.809727606e-05 -0.0003781092343)
5(-7.253645965e-06 -1.565757729e-05 -3.754166159e-05 -8.762403063e-05 -0.0002482399163)
5(-1.916819678e-05 -1.678135249e-05 -4.568236789e-05 -0.0001021955184 -0.0004088530353)
5(-1.931244869e-05 -2.318050055e-05 -7.127412283e-05 -0.0001594920841 -0.0002638403575)
5(-1.945283249e-05 -3.411100916e-05 -0.000102173158 -0.0002390629923 -0.0003402169193)
5(-3.005027491e-05 -4.687748866e-05 -0.0001034196158 -0.000195669467 -0.0003444537234)
5(-6.044824964e-05 -5.511893444e-05 -9.408344917e-05 -0.0001824656582 -0.0004783847119)
5(-4.014931659e-05 -6.035592156e-05 -9.710631667e-05 -0.0001763117963 -0.0008203526926)
5(-5.39810107e-05 -7.031098127e-05 -0.0001299426125 -0.0002016535523 -0.0004085271009)
5(-8.804618918e-05 -9.537747825e-05 -0.0001525926249 -0.0002061090595 -0.0003271830028)
5(-0.000175337212 -0.0001199681513 -0.0001632883295 -0.0002383123648 -0.0003014087714)
5(-9.996530276e-05 -0.0001111402625 -0.0001581305822 -0.0001927262797 -0.0001396940676)
5(-0.0001044496706 -0.0001121513109 -0.0001409380784 -0.0001448551545 6.344576043e-05)
5(-0.0001463359997 -0.0001206000433 -0.0001482861093 -8.298824409e-05 0.0001689673372)
5(-0.0004788868515 -0.0001625695097 -0.0001668994484 -6.53386513e-05 0.0001413038432)
5(-0.0002917854062 -0.0001980419842 -0.0001565062721 2.78412166e-05 0.000510878369)
5(-0.0002813800159 -0.0002571027251 -0.00013768442 8.827279726e-05 -0.000191410329)
5(-0.0003608251318 -0.0002860125564 -0.0001326825828 1.66353856e-05 -0.0005224862855)
5(-0.0004077011723 -0.0003600503885 -0.0002418580384 -0.0001586526832 -0.0008915835192)
5(-0.00103130744 -0.0004054489565 -0.00045222145 -0.0005044087383 -0.0006954767256)
5(-0.0007188775094 -0.0005269465189 -0.0008025310035 -0.00107710217 -0.001927416098)
5(-0.0007743222794 -0.0007833589587 -0.001189277167 -0.001758053249 -0.002974005279)
5(-0.001396116684 -0.001260465943 -0.001866524114 -0.002825128291 -0.004187831399)
5(-0.002298911457 -0.002035916348 -0.003027315554 -0.004418177116 -0.005734560046)
5(-0.00241696624 -0.003320033168 -0.004906597213 -0.006861258222 -0.009989809064)
5(-0.003675141971 -0.005265153642 -0.0076408666 -0.009912371635 -0.01206063359)
5(-0.00871259931 -0.007932750209 -0.01112501044 -0.01420059655 -0.01750115097)
5(-0.008503286674 -0.01184856744 -0.01600545364 -0.01952603171 -0.02118802871)
5(-0.01613854968 -0.01694790981 -0.02249421201 -0.02616113953 -0.0327130493)
5(-0.01820344576 -0.02357419511 -0.03012131525 -0.03334271866 -0.03233425678)
5(-0.02430966923 -0.03167833085 -0.03843812295 -0.04056806922 -0.03966940598)
5(-0.03285012741 -0.03994964421 -0.04623998668 -0.04605103777 -0.03904370068)
5(-0.04062712709 -0.04745777704 -0.05210598814 -0.04653734615 -0.04872656888)
5(-0.0479416601 -0.05159512995 -0.05167815718 -0.03985576889 -0.03279393426)
5(-0.09300820188 -0.04960926382 -0.04234984887 -0.0231000046 -0.005471369994)
5(-0.1336673857 -0.03605853234 -0.01921833053 0.006842965933 -0.01254128101)
5(-0.0549228412 -0.008851770143 0.01983601431 0.05023464785 0.05166394194)
5(-0.06089358321 0.03397934332 0.07585746013 0.1034795542 0.09215854414)
5(-0.009170300399 0.09551851931 0.1419641058 0.1583704057 0.09271583079)
5(0.01063407181 0.1693085397 0.2069568024 0.2018316015 0.1147565251)
5(0.1174339708 0.2374716005 0.2607606602 0.2193475578 0.1192941308)
5(0.1886735229 0.2884248023 0.2799510175 0.201543982 0.06894548766)
5(0.2565246744 0.2990795769 0.2497196636 0.145666238 -0.03295732866)
5(0.233527275 0.2647750695 0.1753999314 0.06811413151 -0.03212110934)
5(0.2499008058 0.1764270537 0.07218958667 -0.006739236812 -0.04150674872)
5(0.1468905338 0.05986728714 -0.0285980054 -0.05927988597 -0.08304342684)
5(0.03604073681 -0.0499903125 -0.09403206295 -0.07686698099 -0.05138748649)
5(-0.1625858382 -0.115325141 -0.1116317076 -0.06424698404 -0.03422867777)
5(-0.1624352463 -0.1295676957 -0.09039073811 -0.04140222788 -0.01967740003)
5(-0.1646119194 -0.1006529229 -0.05411281918 -0.02036743342 -0.005288291185)
5(-0.0748925898 -0.05739441358 -0.02443727394 -0.007566501062 -0.002822053314)
5(-0.03175993942 -0.02384355153 -0.008096425683 -0.002181696453 -0.0005244988995)
5(-0.02152664432 -0.006856999598 -0.001865055679 -0.0004521953354 -0.001892482012)
5(-0.004542752564 -0.001340809196 -0.0003213286745 -8.206486131e-05 -0.0001693568984)
5(-0.00389118499 -0.0001855325838 -5.100470445e-05 -2.038225904e-05 -0.0002267940443)
5(-0.001777548503 -3.399159485e-05 -2.944714793e-05 -1.099727015e-05 -3.190173512e-05)
5(-0.001646614637 -2.328834431e-05 -4.278328507e-06 -2.300019386e-06 -0.0001338262803)
5(-0.001065378452 -0.001041898407 -1.476334873e-05 -0.0005334926558 -0.001196658397)
5(-6.529338148e-06 8.42684346e-06 -0.01255205288 1.422495495e-05 -6.044653833e-05)
)


60
(
5(3.30135458e-05 -1.493776584e-05 1.888186087e-05 -4.560946186e-05 0.0005682482333)
5(-2.44932432e-05 -5.482011281e-05 -9.050916008e-05 -0.0002722949729 -0.001052986091)
5(-2.648441837e-05 -5.239053142e-05 -0.0001230749855 -0.0003213624612 -0.0008035610941)
5(-2.93910938e-05 -5.521665538e-05 -0.0001589546815 -0.0003617889667 -0.0007007215909)
5(-3.062681503e-05 -7.52514543e-05 -0.0002280921704 -0.0004594967431 -0.0008011470796)
5(-6.064903887e-05 -0.0001047372844 -0.0002731010949 -0.0005275831618 -0.0008993566315)
5(-8.016648126e-05 -0.0001219997755 -0.0002665894263 -0.0005270831481 -0.0009393403441)
5(-8.364520976e-05 -0.0001446757587 -0.0002773159244 -0.0005306419013 -0.0008585934452)
5(-0.0001099459344 -0.0001669900027 -0.0002932771922 -0.0005020661295 -0.001114345198)
5(-0.0001858217912 -0.0002003919867 -0.0003471802879 -0.0005054138661 -0.000809428317)
5(-0.0002202976104 -0.0002333022697 -0.0003791976849 -0.0005580642609 -0.0008538137257)
5(-0.000312913805 -0.0002707427245 -0.0004329677904 -0.0005896248082 -0.0003727248074)
5(-0.0004731087543 -0.0003048932185 -0.0004767388107 -0.0004425551665 0.0001210412557)
5(-0.0003687141494 -0.000360575609 -0.0004680269735 -0.0002642302127 -0.0002684126933)
5(-0.0003824382777 -0.0004054813371 -0.0004198836324 -0.0001013605431 0.0008297462271)
5(-0.0004765905335 -0.0003459813038 -0.000291516495 8.924884958e-05 0.0009578131078)
5(-0.0009875203503 -0.0003777180725 -0.0002705073678 0.0002299345872 0.001269551384)
5(-0.0005935003998 -0.0004795077459 -0.0003561579837 0.0002049376996 0.001452198899)
5(-0.001606314644 -0.0004550369698 -0.0003280913912 -2.239843042e-05 0.0003082525693)
5(-0.0007877374299 -0.0005160874858 -0.0004712518031 -0.0002586281378 0.0002069610141)
5(-0.0008867124103 -0.0007150175413 -0.0005795671214 -0.0006363404854 -0.0005037026695)
5(-0.003760711711 -0.0006949295393 -0.0008185202937 -0.001391989907 -0.003350951193)
5(-0.005344934605 -0.001000116932 -0.001629285463 -0.002453632172 -0.005703514304)
5(-0.001368027168 -0.001720561767 -0.002926466743 -0.004044590309 -0.009211930309)
5(-0.002967967393 -0.002851518121 -0.004445523059 -0.006649867338 -0.008748358197)
5(-0.004014523764 -0.004425774453 -0.006982366328 -0.01040468825 -0.01495984562)
5(-0.00606787872 -0.006885555432 -0.01111765778 -0.0157828577 -0.02372636138)
5(-0.007732308125 -0.01088298536 -0.01689531353 -0.02305595954 -0.02771929964)
5(-0.0123678103 -0.01690031788 -0.02504593412 -0.0324754124 -0.04509266355)
5(-0.01867157219 -0.02524483965 -0.03592619601 -0.04435330591 -0.04758734687)
5(-0.02611326565 -0.03635316448 -0.04975428902 -0.05804211995 -0.07082115589)
5(-0.03762592575 -0.05012064793 -0.06520842312 -0.07254392631 -0.07676333785)
5(-0.05381773644 -0.06561553855 -0.08124429481 -0.08596721145 -0.0949558859)
5(-0.06842303256 -0.08180293176 -0.09466705168 -0.09281361731 -0.08203231844)
5(-0.09104992815 -0.09437015524 -0.1019933905 -0.08967141498 -0.1276417284)
5(-0.1031114643 -0.1001556323 -0.09610691775 -0.07101529489 -0.05375465132)
5(-0.1067408758 -0.09032878393 -0.07004031825 -0.02945186585 -0.01663195318)
5(-0.1219710962 -0.06076729065 -0.01763226905 0.03705558496 -0.02676774074)
5(-0.08769271853 -0.002946884266 0.06460143979 0.1276402587 0.1334051929)
5(-0.02791369762 0.08627084568 0.171934558 0.2343445153 0.10154166)
5(0.02489261024 0.1962656389 0.2967492061 0.3366831803 0.266492651)
5(0.1407133285 0.320650867 0.4127246725 0.4108841576 0.3248852813)
5(0.2400853383 0.4342123915 0.4900281375 0.4290928545 0.2046718473)
5(0.3288006869 0.5076194326 0.5012512664 0.3796432445 0.06594245822)
5(0.4195857526 0.5057839161 0.4314175492 0.2618662814 -0.05674239083)
5(0.4167384176 0.4230126757 0.2837905761 0.1137891891 0.02806028301)
5(0.3753609846 0.2826623319 0.09386889325 -0.02698082597 -0.1387663651)
5(0.1450706425 0.07977066331 -0.06534668599 -0.1264997387 -0.1244518451)
5(-0.02736337378 -0.09831360663 -0.1691857743 -0.1564905781 -0.1253786448)
5(-0.1022683837 -0.1939422582 -0.1986034241 -0.1332425728 -0.09996738043)
5(-0.2338720784 -0.2007962124 -0.1518349674 -0.0833315453 -0.06246411757)
5(-0.3058097427 -0.152349363 -0.08787841918 -0.04004536979 -0.01428456552)
5(-0.1443201969 -0.08182699796 -0.0373900537 -0.01455139379 -0.006478579025)
5(-0.1219866328 -0.03119496967 -0.01113347014 -0.003848107911 -0.003079832736)
5(-0.0253252137 -0.007976694233 -0.002210700708 -0.000710503309 -0.001719039245)
5(-0.0132719097 -0.001237223514 -0.0003303348338 -0.0001385851522 -0.0004076351138)
5(-0.002526457676 -0.0002007860742 -7.846174915e-05 -3.209284703e-05 -0.0004064103225)
5(-0.001232086756 -3.808010472e-05 -3.656246257e-05 1.301802775e-08 -0.000684852732)
5(-0.0006699283229 0.007055784157 -7.281655253e-05 0.005330296173 -0.0008609968066)
5(1.408969842e-05 0.02485169852 0.07560249196 -0.04756492329 -0.0419065264)
)


60
(
5(7.232292804e-05 -1.267033837e-05 9.977877284e-05 0.0001592127238 0.00200264376)
5(-5.482779621e-05 -0.0001354323029 -0.0002494013341 -0.0006934945314 -0.002189050854)
5(-6.951431685e-05 -0.0001301831711 -0.0002952145014 -0.0007953999428 -0.001855354906)
5(-8.047517132e-05 -0.0001293351171 -0.0003632372637 -0.0008609374941 -0.001656869086)
5(-8.213216293e-05 -0.0001634604422 -0.0004915962612 -0.0009696932354 -0.00159723919)
5(-9.911457845e-05 -0.0002367356336 -0.0005706866124 -0.001091944544 -0.001692442243)
5(-0.000142610091 -0.0002787629352 -0.0005975270347 -0.001061036779 -0.001852538644)
5(-0.0001965553587 -0.0003426047845 -0.0006256245816 -0.001057278512 -0.001617652656)
5(-0.0002202242546 -0.000374211668 -0.0006246037893 -0.001010056519 -0.001690915723)
5(-0.0002876328636 -0.0004153306883 -0.0007215882394 -0.001048941112 -0.001194175981)
5(-0.0003057121977 -0.0005051122224 -0.0007959137019 -0.001029536742 -0.001038942762)
5(-0.0006186851818 -0.0005904152209 -0.0008782516345 -0.0009077807085 -0.000200212668)
5(-0.0005830760897 -0.0006992996794 -0.0008756397824 -0.0006940214753 0.0002748457768)
5(-0.001278109024 -0.0007571146639 -0.0008739903334 -0.000403228257 0.001405831907)
5(-0.000910011287 -0.0007899559392 -0.0008160772816 -2.287881656e-05 0.001783045599)
5(-0.0006661801832 -0.0007431391402 -0.0007127881294 0.0003045666777 0.002076487772)
5(-0.001373890146 -0.0007491532776 -0.0005508054449 0.0004365227493 0.002744313909)
5(-0.001366400323 -0.0007961860557 -0.0003352975962 0.0005516385286 0.002493265563)
5(-0.001437066719 -0.0007272786239 -0.0002067665729 0.0006477989948 0.002124026197)
5(-0.00172847917 -0.0007616547556 -0.0002030378978 0.0005885272236 0.0007169817063)
5(-0.002084861567 -0.0006008274975 -0.0002167554767 7.074835749e-05 0.0001969373369)
5(-0.00123792161 -0.0004941771707 -0.0005043360395 -0.0007136917281 -0.003848334966)
5(-0.001271068144 -0.0005808417434 -0.001000824685 -0.002100184561 -0.005661060319)
5(-0.002311127205 -0.001183522581 -0.001971369571 -0.004224621281 -0.009240329821)
5(-0.004289091078 -0.002448815199 -0.003866239358 -0.00749333686 -0.01259881652)
5(-0.00213298454 -0.004341871875 -0.007293743313 -0.01235364488 -0.02132330684)
5(-0.002467826434 -0.006499083541 -0.01251991405 -0.01963650981 -0.02765877975)
5(-0.008730407036 -0.01127149714 -0.01989230679 -0.02953764842 -0.0368123657)
5(-0.01662719711 -0.0188542758 -0.03077060396 -0.04321546199 -0.05431285128)
5(-0.02466942884 -0.02994844014 -0.04588932024 -0.06051660577 -0.07427151165)
5(-0.03642953412 -0.04529312369 -0.0656534415 -0.08186099144 -0.09481739687)
5(-0.05082956705 -0.06436181728 -0.08912709113 -0.1059448513 -0.1511148069)
5(-0.06464395957 -0.08824551732 -0.115522063 -0.1301196675 -0.1341391701)
5(-0.07954159376 -0.1140589164 -0.1417046282 -0.1486899194 -0.1552155441)
5(-0.1124863324 -0.1393200986 -0.1602011756 -0.1554415483 -0.1541344225)
5(-0.152375655 -0.1583257632 -0.1657305558 -0.1422741224 -0.1115788635)
5(-0.1856268133 -0.1601319089 -0.147233895 -0.09930332634 -0.05431470687)
5(-0.1831595179 -0.1382168717 -0.09392261214 -0.02042023559 0.01039980882)
5(-0.1720204974 -0.0843664171 0.001279070208 0.1013355184 0.1294719211)
5(-0.1144078404 0.01542116106 0.1440301382 0.2585296882 0.3147931416)
5(-0.01461747275 0.1554204748 0.3202173111 0.4283067573 0.3652361065)
5(0.1269025496 0.331460241 0.508308292 0.5849474801 0.3484808387)
5(0.239795374 0.5144189674 0.6754666325 0.6841697233 0.5319480768)
5(0.3789774584 0.6634201451 0.7680736056 0.6882498757 0.4829026342)
5(0.4302439404 0.7507718345 0.7582406144 0.5853546024 0.328642152)
5(0.6883491702 0.7243142722 0.6079594104 0.383642585 -0.01343155452)
5(0.5833309155 0.5814724346 0.3631660102 0.1541551712 -0.1898709733)
5(0.4905403134 0.3430234032 0.08188461563 -0.07814948396 -0.2804597538)
5(0.3667911533 0.07029418128 -0.1548062768 -0.2201998765 -0.3132506535)
5(0.1224192132 -0.1420639162 -0.2801503305 -0.2511445022 -0.1515458076)
5(-0.1700334275 -0.2592940508 -0.2868421961 -0.2038527347 -0.1033359668)
5(-0.518743659 -0.2862961043 -0.2105847168 -0.124608706 -0.06007028242)
5(-0.4166145731 -0.2023704625 -0.1130965286 -0.05706394429 -0.0383790961)
5(-0.358378448 -0.1055868658 -0.04387408038 -0.01901360052 -0.00829489102)
5(-0.1299906356 -0.03902387149 -0.01178515019 -0.004254498949 -0.002257930763)
5(-0.06951889379 -0.009226147351 -0.001995409047 -0.0006695728129 -0.002175759189)
5(-0.01723317739 -0.001254684643 -0.0002183115787 -0.0001223179754 -0.001206597524)
5(-0.00181162534 -0.000123250772 -5.912956312e-05 -9.5313804e-06 -0.00153164182)
5(-0.0002593518779 0.005608987162 -2.749506961e-05 0.0026234725 -0.004340717658)
5(2.536031785e-05 -1.933632844e-05 -0.02657869174 -2.045495253e-05 -8.297712341e-05)
)


60
(
5(0.0001531032483 3.321643595e-05 0.0003336305118 0.0008119866672 0.005404758267)
5(-0.0001179301372 -0.0002781780563 -0.0005492421387 -0.001408216672 -0.003876622626)
5(-0.0001131991308 -0.0002659699941 -0.0006385628461 -0.001569633477 -0.003586872415)
5(-0.0001401928548 -0.0002748490018 -0.0007551765528 -0.001623692526 -0.003125002789)
5(-0.000195583322 -0.0003305648912 -0.000889397159 -0.00175024882 -0.002957722388)
5(-0.0001995795566 -0.0004258588725 -0.001014578139 -0.001961135019 -0.002765735527)
5(-0.0002681584397 -0.0004917541664 -0.001066532468 -0.001895815109 -0.003060497032)
5(-0.0003471596874 -0.000596484689 -0.001118904943 -0.001899342644 -0.002614881033)
5(-0.0004679487362 -0.0007118665032 -0.00114027194 -0.001876593545 -0.00271844744)
5(-0.0004962236941 -0.000834629096 -0.001329650202 -0.001851821439 -0.00190599469)
5(-0.0009044550232 -0.0009656776177 -0.001468575008 -0.001825004879 -0.00158453041)
5(-0.0007090806584 -0.001116332471 -0.001562566421 -0.00165142537 9.771408614e-05)
5(-0.001252906975 -0.001265772017 -0.001577490146 -0.001300596182 0.0004809392487)
5(-0.001015678562 -0.001311069561 -0.001533451539 -0.0008565030303 0.002388774337)
5(-0.001841881682 -0.001439749914 -0.001485807972 -0.0002684955839 0.002678294212)
5(-0.00199878127 -0.001467048079 -0.001288324415 0.0004242816412 0.004719054019)
5(-0.001974976554 -0.001474553612 -0.001004856366 0.0009365653162 0.004174604344)
5(-0.002592025005 -0.001518961715 -0.0006685937079 0.001261511165 0.004646792973)
5(-0.001682924025 -0.001371835735 -0.000416395629 0.001364356763 0.004202702098)
5(-0.003330161666 -0.001091368099 -0.0001554822161 0.001306136106 0.002646655838)
5(-0.004288429561 -0.0008530267325 0.0001491121004 0.001030910809 0.001919402317)
5(-0.001074886264 -0.0002764617683 0.0004493239025 0.0004383787593 -0.001744409267)
5(-0.003120880815 0.0001521959655 0.0002027094741 -0.0007815411071 -0.00418030836)
5(-0.005043608782 0.0003600126777 -0.0003767021907 -0.002973284016 -0.008082089323)
5(-0.001930265845 0.0005127223349 -0.001750494442 -0.006391317044 -0.01411642273)
5(-0.002196604552 -0.0004076341161 -0.004863487811 -0.01166860473 -0.02137882646)
5(-0.006677944617 -0.002992063789 -0.009994688304 -0.02009841345 -0.03203820091)
5(-0.01079361897 -0.007845301309 -0.01865509928 -0.03218930339 -0.05072978486)
5(-0.00897556411 -0.01564441927 -0.03170469448 -0.04915235801 -0.06982537351)
5(-0.01840408467 -0.02829660674 -0.05066862289 -0.07229299007 -0.0886974406)
5(-0.04311654274 -0.04707365555 -0.07614803221 -0.1015254936 -0.1279514719)
5(-0.06679043206 -0.07204614225 -0.1085838916 -0.1360312029 -0.167047009)
5(-0.08898901329 -0.1042847194 -0.1457015237 -0.1733039174 -0.1958767237)
5(-0.1033524222 -0.1408684368 -0.186144752 -0.2081668038 -0.2091138581)
5(-0.1331602287 -0.1807183636 -0.2227800794 -0.232564502 -0.2482896969)
5(-0.1934202769 -0.2171550252 -0.2462300566 -0.2355047574 -0.2384229098)
5(-0.2294790409 -0.239804864 -0.2451226753 -0.2042778939 -0.1579109498)
5(-0.2648282088 -0.2390866228 -0.2034515072 -0.1246975952 -0.03594720883)
5(-0.2505768099 -0.1982371977 -0.1113407017 0.0111539666 0.0524991615)
5(-0.2154334867 -0.1037483448 0.03965508865 0.2055572456 0.2340490617)
5(-0.1191319751 0.04340468473 0.2556287905 0.4381344873 0.5120851638)
5(-0.03623207596 0.2476558585 0.5073476956 0.6886214035 0.6417647956)
5(0.08479477001 0.4896791241 0.771781266 0.8986548779 0.8195819866)
5(0.2996766705 0.7235469685 0.9712893703 1.002464974 0.8785325204)
5(0.5260277095 0.9127579244 1.074973236 0.9688016403 0.6399469872)
5(0.7627626702 0.995792719 1.00530914 0.7835815321 0.4106017091)
5(0.8323825782 0.9381905743 0.7754378061 0.4769716015 0.05999623266)
5(0.8808853938 0.7335434635 0.4362247323 0.1504258933 -0.3976567047)
5(0.5564318419 0.4274026429 0.08148900536 -0.1442365223 -0.4258544327)
5(0.1017818701 0.1378651735 -0.2297791009 -0.3383273036 -0.3546726607)
5(-0.02478445222 -0.1668288209 -0.3819251826 -0.362290319 -0.1892529221)
5(-0.513278031 -0.2746410937 -0.3698915288 -0.2732431318 -0.1975888861)
5(-0.3386014185 -0.3401496857 -0.2531564807 -0.155420506 -0.0876278399)
5(-0.2334537085 -0.2552448389 -0.1312875209 -0.06637594193 -0.02710301824)
5(-0.2521563473 -0.140315705 -0.04865356812 -0.01952666706 -0.007561430519)
5(-0.2267368502 -0.05338124658 -0.009989444096 -0.003681630066 -0.01167858294)
5(-0.07223779354 -0.01397493852 -0.001712951029 -0.0004711589795 -0.00125137479)
5(-0.05938163174 -0.001561775742 -0.0001804203385 -9.578921403e-05 -0.004539261398)
5(-0.003512772642 -9.051888719e-06 -4.606720201e-05 -3.043822348e-05 -0.005997429981)
5(-0.01788060898 0.0005458985857 -0.04447462648 -4.598786789e-05 0.0002425138071)
)


60
(