/*--------------------------------*- C++ -*----------------------------------*\
| =========                 |                                                 |
| \\      /  F ield         | OpenFOAM: The Open Source CFD Toolbox           |
|  \\    /   O peration     | Version:  2.3.1                                 |
|   \\  /    A nd           | Web:      www.OpenFOAM.org                      |
|    \\/     M anipulation  |                                                 |
\*---------------------------------------------------------------------------*/
FoamFile
{
    version     2.0;
    format      ascii;
    class       dictionary;
    location    "constant";
    object      la_r13;
}
// * * * * * * * * * * * * * * * * * * * * * * * * * * * * * * * * * * * * * //

la_r13_table
60
(

60
(
5(0.1243896859 -0.04700361864 0.2584738077 0.221407711 0.7015107957)
5(-0.01316329706 0.01029382968 0.1267440025 0.08995890526 -0.2581110914)
5(2.948154017 0.02358120979 0.03604337203 0.01699693244 8.650281219e-05)
5(7.238776345 0.0297318241 0.03227561845 0.001165908052 0.03550555106)
5(5.128603319 0.02660291545 0.03091918457 0.03007898061 -0.003291492704)
5(2.606391277 0.02445866354 0.01527781274 0.04307101059 0.03204649239)
5(0.02986650233 0.02453528716 0.03357446658 0.03482763051 0.1078625662)
5(0.01366925104 0.02893945422 0.0608204881 0.05224703164 0.02789558665)
5(2.015053857 0.03765294617 0.08899296044 0.06571822828 0.06562010192)
5(2.503240704 0.1286597468 0.1343599428 0.08219347771 0.09947777278)
5(2.43858224 0.1827012281 0.1421943062 0.1187137665 0.129912513)
5(1.060457047 0.07834250865 0.1264078252 0.1293484064 0.1712046031)
5(0.05167309954 0.1002058156 0.1403970499 0.1888575892 0.2204046647)
5(0.07883625219 0.1287393646 0.1819859396 0.1988430227 0.2545825039)
5(0.08210453795 0.1489212202 0.2114953325 0.2742150342 0.3088033124)
5(0.2099276398 0.3269294871 0.3323646404 0.3932431627 0.41348279)
5(0.2355216088 0.3394917417 0.4202326651 0.4492865232 0.5264449265)
5(0.2032512328 0.3532949847 0.4196507659 0.5470513805 0.6573669329)
5(0.1939581803 0.368724071 0.5021554196 0.6468361775 0.8398618854)
5(0.2483085363 0.4318645495 0.6289099758 0.8424275298 0.9728653353)
5(0.290093152 0.4848435632 0.70221509 0.9565044517 1.085493512)
5(0.3450802726 0.5595310425 0.8504020741 0.9372889905 1.122582638)
5(0.4256504607 0.6617475035 0.9609874134 1.192793275 1.419409985)
5(0.4793181239 0.7974726092 1.087779002 1.339359123 1.559195021)
5(0.5707083264 0.9366832846 1.244444061 1.550140316 1.780627538)
5(0.6462313995 1.103815445 1.450036106 1.786842871 1.908584312)
5(0.723366994 1.157837946 1.492476364 1.944052951 2.033475054)
5(0.7844721567 1.15003711 1.637968464 2.057308002 2.105531144)
5(0.8970033429 1.255377642 1.673229702 2.072166771 2.181963648)
5(0.9670904199 1.362463681 1.71257169 1.997529028 2.139038937)
5(1.055354513 1.449516849 1.803681001 2.10110389 2.159361602)
5(1.114309221 1.474341865 1.757580328 1.97301391 1.810564384)
5(1.149230889 1.522700841 1.775109587 1.927017107 1.997611743)
5(1.203711741 1.580911818 1.830155154 1.887031333 1.687291938)
5(1.27114419 1.596018986 1.779516525 1.845276051 0.9616019398)
5(1.328450641 1.700490404 1.969820408 1.869527945 0.49736152)
5(1.456289592 1.75447646 1.83152179 1.695530312 1.508868926)
5(1.566926452 1.907014975 1.809425286 1.759153457 0.7421949748)
5(1.771551064 2.030434701 1.818966441 1.545848272 0.9562018782)
5(2.094409005 2.159487301 2.003149901 1.964112378 -0.6920627757)
5(2.419625189 2.134815999 1.827558036 0.4629086374 -1.425851962)
5(2.542777033 1.980006931 1.665298303 -8.443042209 0.004681004956)
5(2.562046511 1.606384337 1.551755654 0.002692730632 0.004612099729)
5(2.251234732 1.090903595 1.504839081 0.003751140473 -0.8715835072)
5(1.776892872 0.5698683702 0.9074378963 0.003525839617 -0.08292275708)
5(0.8930967739 0.1853044804 0.5674450116 0.002198128654 0.006365942726)
5(0.1374412571 0.9080228451 0.185101185 -0.04711708014 0.007242438934)
5(1.027427442 0.3253365791 -0.5795379936 -0.001192095786 0.006769729841)
5(-0.5263514351 0.08209832999 -0.03113350559 -0.0008339353724 0.001574027922)
5(0.370668266 0.2077038056 -0.0002862153249 0.0008033494962 0.002217415123)
5(6.006391579 -0.001075746033 0.003204616624 0.001776294556 -0.006017487268)
5(9.842405288 0.0009220659741 0.001936825022 0.005534449852 0.003991828101)
5(0.463072929 -0.003036153334 0.003310733759 0.006821839146 0.002625325728)
5(0.0007970653604 -0.0001188717929 -2.260461002e-05 0.0005866816396 -0.005985085966)
5(0.0001694078471 -0.000750282644 0.003357879346 0.005377496441 0.004039565339)
5(0.7861251194 0.00181616118 0.004855006681 0.003886244098 0.007225440152)
5(2.797510797 0.001890265765 0.003843968288 0.008291330266 0.01708121238)
5(2.744598246 1.076860112 0.002049953352 0.03719536056 0.1210789429)
5(-1.442000469 1.410470731 0.7071005036 -0.006410577045 -0.173889828)
5(0.004540809713 -0.005470539638 -0.02032833711 -0.02508096345 -0.01683376488)
)


60
(
5(0.3318303683 0.3106482634 1.122064224 1.351766769 4.179698165)
5(0.2218054606 0.2714235387 0.6060223459 0.8630204744 1.693383077)
5(0.1787523085 0.3166951666 0.4755481594 0.7739806015 1.026918278)
5(0.1824207944 0.3813477515 0.5366355706 0.8985798441 1.230396971)
5(0.2388734806 0.4751590758 0.7136841094 1.174177075 1.652072201)
5(0.3220586695 0.6004806909 0.9439003282 1.51474192 2.269273451)
5(0.4117784248 0.7534493557 1.193474671 1.868826753 2.829460623)
5(0.5081511304 0.9333915574 1.454045635 2.247861317 3.280811079)
5(0.6237893827 1.143194772 1.738893746 2.664260978 3.781633258)
5(0.762618432 1.389989787 2.07612906 3.140272377 4.409698439)
5(0.9416577096 1.677715726 2.482365616 3.694161364 5.130137151)
5(1.1467556 2.011483704 2.959415152 4.323050381 5.955498395)
5(1.387529182 2.39741875 3.498811515 5.03619721 6.902418318)
5(1.667465957 2.841375754 4.10653086 5.848612013 7.930339479)
5(1.993107928 3.350761002 4.798139637 6.767968454 9.087571106)
5(2.367209383 3.93819143 5.596498505 7.819904868 10.43637761)
5(2.813315603 4.615999506 6.514450059 9.020758517 11.96370639)
5(3.321326838 5.395091217 7.563935549 10.3774522 13.6555927)
5(3.91141312 6.283262641 8.751118755 11.89391576 15.50923358)
5(4.581255294 7.284686182 10.06880441 13.53021055 17.47586648)
5(5.353780254 8.405790916 11.50996146 15.27152941 19.52573185)
5(6.217566261 9.608914447 13.01845624 17.0859781 21.57213856)
5(7.12911801 10.86111428 14.57031211 18.78062702 23.47530594)
5(8.104226051 12.11974115 16.07948501 20.35429904 25.18490753)
5(9.096579342 13.35722425 17.44513823 21.66706131 26.50949228)
5(10.05615789 14.47388147 18.55548424 22.62267984 27.43094972)
5(10.92429249 15.38949902 19.42288431 23.15094732 27.76936102)
5(11.63459318 15.98538049 19.72001483 23.11674453 27.46869813)
5(12.03175957 16.14633738 19.57826604 22.49799559 26.56239255)
5(12.10655447 15.76379658 18.775992 21.34334421 25.11867787)
5(11.69748134 14.77744139 17.08076301 19.2251929 22.9885828)
5(10.79611009 13.26294733 14.94082038 17.08187781 21.08883461)
5(9.304383433 11.02806511 11.9630063 14.11657443 17.4452137)
5(7.108823613 8.126145322 8.379790797 11.0716049 15.29548587)
5(4.260592825 5.019302508 4.909602685 7.926411542 12.55109637)
5(0.9678619178 1.259361694 0.6028112077 4.850925814 10.07310208)
5(-2.599787283 -1.339814215 -1.112555455 3.014618342 7.824450855)
5(-5.99306755 -4.61533742 -3.530098459 0.9291004398 9.144422416)
5(-9.126743629 -6.438285684 -5.702377642 0.1673403148 5.506516911)
5(-11.76221724 -7.974041491 -7.413420443 -0.9137904985 13.31125553)
5(-12.91073552 -7.763408593 -6.982140408 -1.439728501 10.37381367)
5(-13.03974203 -8.27787697 -7.804808735 0.5893124812 8.134716563)
5(-13.18626965 -8.837566554 -8.85614021 4.313402758 5.109527046)
5(-13.72212841 -11.29344846 -14.7660481 0.5904527756 2.485402725)
5(-15.70884408 -15.31334575 -18.79058973 -3.756770219 1.545104967)
5(-19.00306733 -20.81586091 -22.85987806 -5.510424103 0.9456777157)
5(-24.14161077 -26.96858226 -17.81125081 -6.452875038 0.66382264)
5(-29.6996562 -30.02588649 -17.30275943 -6.212253003 0.9845555235)
5(-35.94163317 -33.9601771 -15.95132291 -4.808741513 1.749326327)
5(-36.52298103 -22.18538799 -12.81045125 -3.301296173 2.195811998)
5(-33.27380666 -18.17067339 -9.006676034 -1.34106667 2.7783085)
5(-20.11818505 -11.61387622 -5.188672236 0.0720841829 3.462586634)
5(-12.18535864 -5.825388368 -2.147816507 1.305599149 2.83092452)
5(-4.396294884 -1.271214372 0.5527435187 2.050560568 3.862662278)
5(0.9033649497 1.606188578 2.25149273 2.800270145 3.898526438)
5(5.090156702 3.866142367 3.422525115 2.902862702 4.008481148)
5(7.752063616 5.255690756 4.036670304 3.113020497 4.648786606)
5(8.490433684 5.847192953 4.756824613 4.763023021 3.511044975)
5(9.967136686 6.479879253 3.091868055 3.813010119 6.140210041)
5(6.039694423 5.214011547 19.93538354 2.833007104 1.831539054)
)


60
(
5(0.5527724751 0.6754869806 2.256851158 3.401905377 9.269274114)
5(0.4376423207 0.6889162899 1.506242933 2.556884451 5.086659042)
5(0.4243342622 0.8028824987 1.347130148 2.465491933 4.049121409)
5(0.4821301432 0.977608611 1.552329161 2.811082848 4.34660922)
5(0.6040366199 1.216154526 1.97298708 3.405613443 5.25641117)
5(0.7800787365 1.518334195 2.508483365 4.121637398 6.429179289)
5(0.9871024278 1.869335471 3.066566964 4.860203534 7.428383853)
5(1.217516687 2.265600306 3.623260676 5.612831463 8.323660759)
5(1.476098696 2.714954877 4.216481788 6.41869766 9.259374938)
5(1.787286226 3.221185295 4.886898861 7.315241445 10.36471558)
5(2.150019667 3.792865083 5.657158149 8.327247099 11.65837818)
5(2.575053255 4.434335156 6.527562747 9.460658362 13.10817762)
5(3.044362929 5.155410096 7.497533549 10.71331106 14.71106323)
5(3.576996662 5.96373815 8.578056084 12.12264852 16.48559992)
5(4.182571206 6.878596089 9.797684268 13.68642092 18.45550185)
5(4.877030514 7.910553828 11.16180884 15.43777411 20.68756674)
5(5.651042566 9.073892987 12.70172376 17.40685904 23.15502978)
5(6.524256528 10.38236355 14.41437354 19.55993896 25.80801241)
5(7.518170567 11.83061875 16.29109736 21.87670767 28.58676946)
5(8.612562948 13.3899389 18.30002984 24.28991432 31.45410146)
5(9.793440849 15.06524694 20.38164783 26.70733582 34.23443499)
5(11.04629987 16.7770247 22.43584606 28.96735588 36.76718163)
5(12.31140724 18.41557699 24.33710324 30.936087 38.86219623)
5(13.53605491 19.85993104 25.9314518 32.44676012 40.31649376)
5(14.58638413 21.01297085 27.04212537 33.2268122 40.85708956)
5(15.36384364 21.69445225 27.40148587 33.04698522 40.18326843)
5(15.70870397 21.69834072 26.86024163 31.75345177 38.28144156)
5(15.4644951 20.80834904 25.1508946 29.17379037 34.96573422)
5(14.43039764 18.865419 22.09106297 25.18774153 30.15820768)
5(12.41497039 15.73708468 17.58969697 19.65035792 23.97206654)
5(9.302560252 11.29324879 11.63301042 12.70779568 16.3841459)
5(4.953277697 5.492812385 4.178843427 4.509347058 7.896159781)
5(-0.7306442777 -1.594104765 -4.449544504 -4.612361088 -1.205855914)
5(-7.592500155 -9.788826759 -14.19109973 -14.23968545 -10.45235518)
5(-15.4792706 -18.69287341 -24.24233073 -23.79825331 -19.30000584)
5(-24.06344768 -27.75862158 -34.07277481 -32.68262083 -26.81144511)
5(-32.51809439 -36.13448247 -42.82651004 -40.17762958 -33.23710533)
5(-40.40983917 -43.17312045 -49.88578029 -45.79919632 -37.67911882)
5(-46.39116817 -48.19425893 -54.54751934 -49.43562795 -40.37689312)
5(-49.81965662 -50.48150765 -56.72942299 -51.04181819 -41.41781074)
5(-49.6749599 -49.93085348 -56.91355609 -51.6384426 -41.43759227)
5(-46.5820189 -47.77173696 -56.12478215 -52.29989616 -41.04870213)
5(-40.80904527 -44.68404617 -56.50434517 -53.65358177 -41.41883781)
5(-34.05926053 -42.97165578 -59.34404669 -56.2620815 -43.44198553)
5(-27.70780968 -43.51136062 -64.92440601 -59.83017055 -45.23384175)
5(-24.80965115 -48.56414251 -73.20973351 -63.95480294 -46.33569304)
5(-25.96308819 -56.9610455 -81.04408288 -67.26128573 -45.43473676)
5(-31.55996868 -67.26171939 -85.43812598 -66.73746811 -41.90770328)
5(-38.44724276 -74.20262404 -84.69168382 -61.84115632 -36.47820332)
5(-45.64949627 -75.572842 -78.508843 -53.82299133 -30.24267367)
5(-48.14364781 -69.45595404 -67.85507926 -44.00328083 -23.40444362)
5(-44.23626718 -57.93199815 -53.48585393 -33.85539983 -16.74286264)
5(-34.7281525 -42.9946392 -38.66667919 -24.63917786 -11.21761872)
5(-21.46052244 -28.29883037 -26.10844567 -16.44022056 -7.244020443)
5(-9.047270666 -15.18660134 -14.96594662 -9.488791732 -3.193380466)
5(1.943137065 -4.409631792 -5.874531433 -3.81901254 0.2623846431)
5(9.378638039 4.268157215 1.241850705 1.327296887 3.061170706)
5(14.63147254 10.38275035 6.975146655 6.289710421 5.954902011)
5(15.70438261 12.81387976 7.602771028 6.612772567 8.590383384)
5(8.371679431 0.4046322764 19.01893694 5.933014719 4.121615247)
)


60
(
5(0.842853452 1.194381321 3.942080873 6.699141076 16.77281858)
5(0.7165943003 1.264104902 2.871803755 5.256954267 10.46625987)
5(0.74744232 1.514492686 2.729575791 5.128285775 8.843032774)
5(0.8763444989 1.850203856 3.142157922 5.69423545 9.188335628)
5(1.10889567 2.277640212 3.856773521 6.616845457 10.45004712)
5(1.426262403 2.799373718 4.724469618 7.711084437 12.04748571)
5(1.786487672 3.392246033 5.613661236 8.827596801 13.42643602)
5(2.177863288 4.037353579 6.490593941 9.940548461 14.65876919)
5(2.613454649 4.746242715 7.400456293 11.10719803 15.96060196)
5(3.120587942 5.529732413 8.403698749 12.38445056 17.47663122)
5(3.696203742 6.392801911 9.524110522 13.7958719 19.22859194)
5(4.338964258 7.342742512 10.7722535 15.35410338 21.18947596)
5(5.052007976 8.390017382 12.14295735 17.07969696 23.37771274)
5(5.833485699 9.548867308 13.64912728 18.99405589 25.77204379)
5(6.714636629 10.83657779 15.32242227 21.13198514 28.4409701)
5(7.703374865 12.28391509 17.19992841 23.50082285 31.42108852)
5(8.81054784 13.89376782 19.29040325 26.14304207 34.69195806)
5(10.03748345 15.68051153 21.61807757 28.97218761 38.18158248)
5(11.41509293 17.65367681 24.11061106 32.00406545 41.8654267)
5(12.89886574 19.76618317 26.75546686 35.13700944 45.57824463)
5(14.5030757 21.96746173 29.46390174 38.20207056 49.11173781)
5(16.18785719 24.19617286 32.08494101 41.06660183 52.19293349)
5(17.86675558 26.30890734 34.43792305 43.39447845 54.5944758)
5(19.40980077 28.12543414 36.28230231 44.9974597 56.05804905)
5(20.70453798 29.43445324 37.42231189 45.58189845 56.30905334)
5(21.5582996 30.08300574 37.57817711 44.86554503 54.93494283)
5(21.83045559 29.80791491 36.38270872 42.51766343 51.73927738)
5(21.27514042 28.23425728 33.59285789 38.33799228 46.5688728)
5(19.57863239 25.23035001 28.9931726 32.19075349 39.21097509)
5(16.63423188 20.58431877 22.37342843 23.87144202 29.93547465)
5(12.09785714 14.14919669 13.66377339 13.61023048 18.44097969)
5(5.896891724 6.025609667 3.099759987 1.519497814 5.57176769)
5(-1.847139407 -3.895083433 -9.269575163 -12.03090956 -8.463554374)
5(-11.16473131 -15.2555143 -22.85128345 -26.35235978 -22.92870199)
5(-21.60830213 -27.49946412 -37.08093345 -40.81654787 -37.30496273)
5(-32.15600997 -39.97062955 -51.05974227 -54.54511765 -50.4379758)
5(-42.85520448 -51.39037584 -63.73627343 -66.5965099 -61.67249173)
5(-52.04187313 -60.88781236 -74.05000954 -76.3023756 -70.73679742)
5(-58.52448249 -67.25501255 -81.0281452 -82.71691523 -76.35749695)
5(-61.05127964 -69.39042544 -84.33205237 -85.83265796 -79.4128926)
5(-58.62022732 -67.40749144 -83.8410507 -86.77690713 -79.78382041)
5(-49.98610482 -60.99038574 -80.90462666 -87.06032833 -80.25715004)
5(-36.32093975 -51.63933932 -77.92600026 -88.29926388 -82.2432767)
5(-19.60067315 -41.46440633 -77.10510484 -91.65640027 -86.10298888)
5(-1.757160514 -34.11414635 -80.3863162 -98.19193595 -91.61012509)
5(13.30163153 -31.66830656 -88.26802667 -106.5905894 -97.48090675)
5(22.34864118 -34.99111033 -100.2735651 -116.093465 -101.600065)
5(23.01089093 -44.97890434 -111.848034 -123.2294554 -101.5486889)
5(16.54547693 -57.22345248 -120.4139438 -123.5197614 -94.99970338)
5(5.599682281 -67.72019078 -121.0148752 -115.8831744 -84.64292466)
5(-7.956961379 -72.43320803 -112.1514561 -101.8044938 -72.04281739)
5(-18.17168252 -68.29359609 -95.51652523 -83.47692262 -56.94564444)
5(-19.85494641 -55.35275946 -72.68763569 -63.40013608 -42.9208462)
5(-14.61363478 -37.86602042 -50.63311443 -45.68072791 -31.08517495)
5(-2.813068752 -20.06280764 -30.54099247 -29.40110113 -20.35503406)
5(8.381956598 -4.264488442 -13.80728387 -15.72130147 -10.45403121)
5(18.66011015 8.431742649 0.03199086583 -3.221227427 -1.871265826)
5(25.64729591 18.26496935 11.33358126 6.910132091 5.898913505)
5(23.15330358 15.89668638 10.62089495 12.01457723 10.04705271)
5(11.60615384 -18.1214356 -14.56896574 101.9738802 82.51182165)
)


60
(
5(1.222749683 1.932477166 6.286193207 11.45536206 26.87866128)
5(1.093854235 2.07794113 4.821876916 9.149684212 18.02926152)
5(1.194034231 2.505929475 4.693388685 8.86975904 15.50458736)
5(1.421855998 3.038807439 5.327901553 9.598825842 15.65565287)
5(1.783951884 3.687244219 6.361406519 10.80990129 17.12756796)
5(2.268235166 4.459393619 7.570411222 12.22262163 18.97952198)
5(2.808378498 5.312376084 8.787552554 13.65449319 20.61205052)
5(3.387868477 6.223204651 9.980604905 15.0834772 22.0823035)
5(4.022953139 7.203954627 11.20248808 16.5757096 23.6621997)
5(4.734597213 8.261519889 12.51616395 18.16566727 25.46736643)
5(5.530403137 9.411636484 13.96224568 19.91345221 27.60680954)
5(6.405061014 10.6568708 15.5516181 21.85210451 29.97799461)
5(7.35217234 12.01419294 17.28356682 23.96117577 32.59867411)
5(8.394746863 13.49748714 19.16471959 26.29876353 35.55426108)
5(9.529986356 15.13860214 21.24728678 28.91052961 38.79859239)
5(10.78567621 16.96038702 23.55241469 31.81174705 42.4327144)
5(12.20469259 18.97822621 26.13102171 34.99308226 46.40025145)
5(13.75697463 21.2013456 28.96165555 38.49887324 50.66242385)
5(15.488269 23.6350979 32.01759995 42.15648118 55.13450352)
5(17.35515368 26.24046324 35.24960122 45.95761066 59.56951308)
5(19.35396002 28.96106257 38.55115713 49.64219124 63.82610961)
5(21.45958014 31.68480246 41.69322837 53.02768527 67.64080885)
5(23.51251957 34.28712446 44.53236676 55.82405975 70.52260594)
5(25.40903297 36.59616062 46.8108721 57.68435008 72.284608)
5(27.07868199 38.27533723 48.12779558 58.43779602 72.35063916)
5(28.17970829 39.06514824 48.24396103 57.51610959 70.50434448)
5(28.52043878 38.8216369 46.80674659 54.57539627 66.41478037)
5(27.92508007 37.11246869 43.42518516 49.41125761 59.7166905)
5(26.12724564 33.69851881 37.87790723 41.83877095 50.49748775)
5(22.82819535 28.32982893 30.00212386 31.69051056 38.78572798)
5(17.7316372 20.8800109 19.65337317 18.8847894 24.63977949)
5(10.86337343 11.35017683 7.042982063 3.811956445 8.087891114)
5(2.398187037 -0.1722766726 -7.73726242 -13.04486209 -9.980524954)
5(-7.612104162 -13.20094465 -23.94602878 -31.04220196 -29.11751583)
5(-18.5819767 -27.30964834 -40.78132477 -49.36386587 -48.10180598)
5(-29.98512337 -41.54264108 -57.40701871 -66.95231521 -65.90698185)
5(-40.70485502 -54.09239657 -72.33908521 -82.59507522 -81.42461299)
5(-49.4229572 -64.23416148 -84.38692015 -95.36148334 -94.12956285)
5(-54.61613579 -70.54748754 -92.32747197 -103.9844545 -103.0473992)
5(-54.61630028 -71.27191264 -94.87156376 -108.0442515 -107.7263464)
5(-48.01352617 -65.45832632 -91.99376379 -108.2379573 -109.3921778)
5(-34.22415022 -53.25710962 -84.58856013 -106.0968139 -110.4475704)
5(-12.70905047 -35.73687548 -74.61905516 -103.7478904 -112.2448166)
5(14.12613132 -15.37638551 -65.20642096 -103.8162197 -117.3802059)
5(43.42597466 5.10183887 -59.6240089 -109.2813604 -126.0683605)
5(70.85428433 20.87161924 -60.26308828 -119.6400014 -137.6877811)
5(91.82520863 28.18200857 -68.73066063 -134.1743314 -149.5536674)
5(104.1779641 25.35356532 -83.80737318 -149.4783546 -157.9395159)
5(101.9468773 13.66625109 -100.6678802 -160.971958 -159.1408608)
5(91.64653131 -3.546383187 -114.3081065 -162.2687036 -151.1656248)
5(72.83003886 -23.01717108 -117.8295867 -152.5114638 -134.3249266)
5(48.98030714 -37.50672652 -110.8298963 -133.3237535 -112.7991297)
5(28.89790896 -39.62529715 -91.36868002 -106.3285246 -90.24043936)
5(14.94300737 -31.13646716 -65.24067683 -77.3200811 -64.84694198)
5(11.40493745 -15.98849251 -39.53029295 -50.78492175 -44.0353812)
5(18.21911089 1.565478849 -16.25278719 -27.17713718 -26.69679553)
5(28.22169118 17.00138474 4.729897729 -7.426593334 -9.601806775)
5(36.71720215 29.14789836 18.78118842 9.210291046 6.202831722)
5(32.05597089 23.87255294 16.73862259 14.32511506 14.04274645)
5(17.50778723 17.30233801 22.09126253 14.46885677 12.18507088)
)


60
(
5(1.710381638 2.948408502 9.369981561 17.86324532 39.7029568)
5(1.591644563 3.173680483 7.421474062 14.33733202 27.76622576)
5(1.761189188 3.809365457 7.287557353 13.72886436 23.93456664)
5(2.120606193 4.556986082 8.139086372 14.51187631 23.8457915)
5(2.649673154 5.442299541 9.479442113 15.9316865 25.26287903)
5(3.320380664 6.48037377 11.01179712 17.60072325 27.15564001)
5(4.070190208 7.607612941 12.53867661 19.28946969 28.90825628)
5(4.84479252 8.794659951 14.02113562 20.95298046 30.44973543)
5(5.695005347 10.04891083 15.5248295 22.68828691 32.18525906)
5(6.617849819 11.38097651 17.1311566 24.57004733 34.23317981)
5(7.643841154 12.80621501 18.87608284 26.5928488 36.60919169)
5(8.729740957 14.33249524 20.75834337 28.81059651 39.32120983)
5(9.916573214 15.98091493 22.81464317 31.28091896 42.31889083)
5(11.1941361 17.76945118 25.03713914 33.95979821 45.65128458)
5(12.59566537 19.7200465 27.47704071 36.96211762 49.44050631)
5(14.11688837 21.87999992 30.17550209 40.29211431 53.6557861)
5(15.80072994 24.26602976 33.17529739 43.98701676 58.23874418)
5(17.66933282 26.89983388 36.44593286 47.99213429 63.17249027)
5(19.71004389 29.76762609 40.00697997 52.2236725 68.35079859)
5(21.95572354 32.8435228 43.76141202 56.62899232 73.51627796)
5(24.35120374 36.05333344 47.56817361 61.01746296 78.57078756)
5(26.81206007 39.30396315 51.2860879 64.92225287 83.0087904)
5(29.30805281 42.41042626 54.67233278 68.27577381 86.40213994)
5(31.65318415 45.15407538 57.43484732 70.66955266 88.6372109)
5(33.71461919 47.32471403 59.14488799 71.63542446 89.22906906)
5(35.26139877 48.64082404 59.53613194 70.64643462 87.30994146)
5(36.00424557 48.64540859 58.24215247 67.62702915 82.70982665)
5(35.66166482 47.17514553 54.75266788 62.32305982 75.4534939)
5(34.13797637 43.85580852 48.94403598 54.10457139 65.19369714)
5(30.9611653 38.46787881 40.55253656 42.89081732 51.63661725)
5(26.21877417 30.86504712 29.5651643 28.86864104 34.94039406)
5(19.59802814 21.04796807 16.00962286 12.2792619 15.87170351)
5(11.33224347 9.276724121 0.321030239 -6.442661708 -5.42981502)
5(1.532496591 -3.930320318 -17.02385713 -26.59732519 -27.18880093)
5(-9.086425237 -18.02551643 -35.01903035 -47.26802476 -49.58046748)
5(-19.74341266 -31.92129516 -52.61644548 -67.35924919 -70.62667073)
5(-29.20634263 -44.39010794 -68.22578522 -85.06467874 -88.93966238)
5(-36.28201751 -53.83920125 -80.16192835 -98.82379211 -103.9106582)
5(-39.13890498 -58.20950271 -87.07852734 -107.8319637 -114.6834792)
5(-35.77236003 -55.75443101 -87.59177842 -111.247851 -120.5613887)
5(-25.32808806 -45.80936605 -80.48315307 -109.0989194 -122.0534834)
5(-5.782824676 -27.45021958 -66.57935036 -102.3835916 -120.8131068)
5(21.41880889 -2.310722629 -47.05298352 -93.66630302 -120.0374552)
5(55.68096159 28.26253667 -26.30665935 -86.41624116 -123.6754757)
5(93.17533463 61.99099229 -7.687551057 -85.06506881 -132.187286)
5(131.1238539 92.93052375 4.875372751 -90.84204782 -146.1366033)
5(163.0968267 114.517068 7.127444682 -104.4004794 -165.6154987)
5(187.5095047 123.8364653 -2.661414043 -124.3617389 -185.0473906)
5(199.2545289 118.0332063 -21.48806101 -144.9283883 -197.9802)
5(196.3274197 101.2284841 -45.10021189 -160.0343762 -201.0360305)
5(180.2303114 73.93766868 -65.70991553 -163.0898335 -192.6324663)
5(151.9015604 44.580502 -77.44596807 -152.9850324 -168.2711203)
5(118.6717435 17.0524204 -75.78803288 -130.2811173 -137.8671728)
5(87.48304322 2.368430082 -61.48262649 -99.84961794 -103.8268343)
5(60.64806135 0.5301263559 -39.16224177 -65.84426131 -71.45853793)
5(46.51347409 10.03041016 -12.19796608 -34.04029844 -45.75258795)
5(42.47619006 24.52911444 10.888096 -5.66723672 -15.27182492)
5(43.69423975 37.94712085 30.36487978 16.6616148 6.685412648)
5(46.7652844 33.65144978 25.55611074 20.59924398 18.44315405)
5(34.07335186 21.70902235 18.91038749 8.950345265 7.943893658)
)


60
(
5(2.326904471 4.282212124 13.28501181 26.03919626 55.32308943)
5(2.225877177 4.590822188 10.73310265 20.91121027 39.72040047)
5(2.504709863 5.458153389 10.53685872 19.7782629 34.28635181)
5(2.998933104 6.432744765 11.58535147 20.45784751 33.35560258)
5(3.720761287 7.566241375 13.20994396 21.94547887 34.59392909)
5(4.59068269 8.882381411 15.03082029 23.77248695 36.38863034)
5(5.561048588 10.28463133 16.83964152 25.65132029 38.08105173)
5(6.55937746 11.74496695 18.58522122 27.50663957 39.63014868)
5(7.61699188 13.27346809 20.34298862 29.4140074 41.42057787)
5(8.773637936 14.8667155 22.19300935 31.47962516 43.64080465)
5(10.00670961 16.54949642 24.20474793 33.76263881 46.18416355)
5(11.32156685 18.33773397 26.35249887 36.20009376 49.09819969)
5(12.74217946 20.25018467 28.6629677 38.89072577 52.40142486)
5(14.25688345 22.31635851 31.18912122 41.89818455 56.08912235)
5(15.88573494 24.56014731 33.94511538 45.21178309 60.23652474)
5(17.67515069 27.0287559 36.99242371 48.89957848 64.90718919)
5(19.62274205 29.74313835 40.35150116 52.98644089 70.1104244)
5(21.77607978 32.75546661 44.04807476 57.44480492 75.63700526)
5(24.14375083 36.02152001 48.03366235 62.21679407 81.44039303)
5(26.7162265 39.53285249 52.26331118 67.14642429 87.37324494)
5(29.49173082 43.24761142 56.61222812 72.03939426 93.06059572)
5(32.38839364 47.03220521 60.86665617 76.6204183 98.20697945)
5(35.29956936 50.66706876 64.79170324 80.70230706 102.3977189)
5(38.15077161 54.01772296 68.06863687 83.69515571 105.2625059)
5(40.73944028 56.75891479 70.38802433 85.03101059 106.0829114)
5(42.69918601 58.61986312 71.32407049 84.62678329 104.4541671)
5(44.01163618 59.16334794 70.46439323 82.13575566 100.288656)
5(44.39068887 58.2043748 67.41249696 76.88505908 93.25969999)
5(43.39867826 55.49791781 62.03386175 68.33753438 82.68591936)
5(40.90522932 50.72290651 53.89076799 56.81053434 68.21731165)
5(37.02099752 43.7745421 43.07946296 42.9710216 50.71470839)
5(31.39360682 34.65152997 29.76841115 26.23863069 30.82950177)
5(24.13382318 23.63022679 14.18073685 6.947300739 8.138535249)
5(15.68559451 11.08992784 -2.954540629 -13.98265474 -15.9190266)
5(6.625692814 -1.865724029 -20.71008826 -35.40973599 -40.19532917)
5(-1.91721932 -14.13738194 -37.64236476 -55.95276252 -63.79252702)
5(-9.02079119 -25.17809588 -52.40045968 -73.92600177 -84.0862803)
5(-12.90493349 -32.31456923 -63.07563607 -87.3681703 -100.4436634)
5(-12.46724909 -34.30106416 -67.70878386 -94.76494195 -110.2980713)
5(-5.103293083 -28.80452771 -64.41220447 -95.20592728 -114.879688)
5(9.422625897 -14.95976621 -52.18853201 -88.96012731 -113.805856)
5(32.78912472 9.203255645 -31.05727855 -75.6098395 -107.8152585)
5(64.31046068 42.87294006 -2.274804515 -58.02493509 -100.0290152)
5(101.7452997 83.50475657 31.75956526 -38.89147995 -96.06779547)
5(144.1695963 127.8921546 66.25106852 -24.06560321 -99.12236771)
5(188.1037548 171.047659 95.52327307 -18.62242094 -107.6909013)
5(229.8963269 207.1134641 113.025261 -22.71363935 -128.1125067)
5(264.6744447 230.1023539 114.8144492 -37.68125978 -153.7072178)
5(287.5056935 239.2158307 103.5118987 -63.05785943 -181.2424697)
5(296.7744454 228.8950808 77.83608182 -89.89256624 -200.2731946)
5(293.2638433 202.2300221 44.02361361 -111.6931467 -207.5020986)
5(272.3288432 165.1474567 10.04394956 -122.4536448 -196.3271077)
5(241.6143383 125.031039 -15.48223654 -117.6507672 -169.5656391)
5(201.8162517 88.4633129 -27.75949182 -96.83389102 -135.7240887)
5(160.7402637 59.04592881 -24.52785312 -65.32635355 -94.39427567)
5(121.5900684 43.30057298 -6.767206396 -32.44009523 -52.26864553)
5(95.92920332 41.3287769 14.13813248 -1.449694423 -21.23127439)
5(81.76271425 47.3495137 36.3132519 25.81908427 11.41787949)
5(88.14160047 54.06383533 36.56425764 30.56436279 17.92738963)
5(89.23085358 52.61975309 17.018203 -5.538867349 10.60995332)
)


60
(
5(3.080672531 5.98365988 18.04525246 35.99780984 73.7671886)
5(3.01011858 6.367328096 14.77753932 28.87003035 53.8381094)
5(3.410241255 7.482941779 14.47328992 26.98155048 46.44170337)
5(4.066289128 8.687909284 15.6804142 27.41264873 44.49585581)
5(4.988792172 10.06509746 17.54492794 28.86904116 45.22773623)
5(6.094828297 11.65289259 19.6132978 30.74189115 46.70628436)
5(7.280289558 13.33820792 21.65909738 32.69978651 48.15407002)
5(8.503108023 15.0616121 23.64064574 34.65284513 49.61387888)
5(9.786710788 16.84664616 25.62119876 36.68783952 51.35244516)
5(11.16500267 18.69534712 27.68375439 38.87081461 53.56125737)
5(12.62687972 20.62470761 29.90120972 41.29263668 56.20777205)
5(14.1698239 22.654328 32.29586031 43.95676646 59.25729528)
5(15.79438198 24.81071329 34.83741109 46.81259172 62.74649272)
5(17.52606301 27.1292382 37.58272672 50.02398688 66.72155786)
5(19.39473363 29.64609646 40.61839745 53.62709184 71.18592092)
5(21.40131243 32.40065043 43.96493956 57.63549263 76.21992006)
5(23.65055951 35.43792113 47.66303227 62.04178869 81.80541384)
5(26.07354536 38.7647909 51.74340148 66.88161629 87.97303578)
5(28.80026241 42.42321156 56.14672946 72.10229839 94.39523645)
5(31.66991481 46.37229195 60.849431 77.54543214 100.9815532)
5(34.80793889 50.53095137 65.65490204 83.02095136 107.3490126)
5(38.15697174 54.82747555 70.47641684 88.21732703 113.2192982)
5(41.51824871 59.06836085 74.99986756 92.80453469 118.2213037)
5(44.96405155 63.0734568 78.91899299 96.40385415 121.7659887)
5(48.00565074 66.52246001 81.89399954 98.67704848 123.320624)
5(50.67553219 69.06072713 83.47229644 99.2563399 122.6924951)
5(52.84114372 70.46189115 83.35265557 97.46123886 119.2224267)
5(53.94184207 70.39572842 81.20904982 92.49962989 111.8566694)
5(53.8202917 68.68079583 76.57181509 84.89287714 101.7946222)
5(52.50935297 64.9174858 69.32703928 74.56456816 87.99432203)