/*--------------------------------*- C++ -*----------------------------------*\
| =========                 |                                                 |
| \\      /  F ield         | OpenFOAM: The Open Source CFD Toolbox           |
|  \\    /   O peration     | Version:  2.3.1                                 |
|   \\  /    A nd           | Web:      www.OpenFOAM.org                      |
|    \\/     M anipulation  |                                                 |
\*---------------------------------------------------------------------------*/
FoamFile
{
    version     2.0;
    format      ascii;
    class       dictionary;
    location    "constant";
    object      la_r15;
}
// * * * * * * * * * * * * * * * * * * * * * * * * * * * * * * * * * * * * * //

la_r15_table
60
(

60
(
5(-0.0004310207053 -0.0001650135186 -0.0005467247735 -0.0002931706677 -0.0005305379067)
5(-0.0001606750698 -2.2572667e-05 -0.00017424562 -0.0001045591099 -0.0001264584298)
5(0.03236328711 -5.09534568e-05 -6.778349436e-05 -3.538336833e-05 -3.748782137e-10)
5(0.0524544211 -6.103440849e-05 -7.579313775e-05 -1.311169094e-05 -4.917631542e-05)
5(0.01986602109 -5.182904714e-05 -7.349160245e-05 -3.296129741e-05 -2.553792969e-05)
5(0.002782531327 -4.362854298e-05 -2.115180464e-05 -3.401742455e-05 -1.4870674e-05)
5(-6.92676436e-05 -3.999917043e-05 -2.861885841e-05 -2.110510403e-05 -4.208163982e-05)
5(-3.217884152e-05 -4.362808745e-05 -5.751552707e-05 -3.026845016e-05 -8.95582378e-06)
5(-0.02689710929 -5.27169054e-05 -6.49669708e-05 -3.63493331e-05 -2.112633751e-05)
5(-0.07914650767 -9.236586579e-05 -0.0001033304563 -3.872997114e-05 -2.856361408e-05)
5(-0.09881342962 -0.0001406599101 -0.0001080385458 -4.919947373e-05 -3.252687817e-05)
5(-0.01059917932 -8.683468409e-05 -8.996154596e-05 -5.160890253e-05 -3.453329362e-05)
5(-8.568824409e-05 -0.0001058352236 -9.195921385e-05 -7.025852354e-05 -4.238025249e-05)
5(-0.0001258108726 -0.0001320446744 -0.0001154630855 -7.17874722e-05 -4.65499432e-05)
5(-0.0001289540103 -0.0001520523067 -0.0001323464854 -9.955959081e-05 -5.712041523e-05)
5(-0.0002073980879 -0.0004589984704 -0.0002324794244 -0.0001605040151 -8.103756107e-05)
5(-0.0004729005067 -0.0004922313145 -0.0003382003297 -0.0001915986388 -0.0001093469364)
5(-0.0003870839408 -0.0005236854331 -0.0003185992093 -0.0002537883324 -0.0001554188651)
5(-0.0003630380871 -0.0005544899068 -0.000431770327 -0.0003517347402 -0.0002650742842)
5(-0.0005308808979 -0.0007121868363 -0.0006534766744 -0.0005757285448 -0.0003720323737)
5(-0.0007327331669 -0.0009838285969 -0.0008999155665 -0.0008375941514 -0.000490045473)
5(-0.001071788027 -0.001426631132 -0.001478635403 -0.001035382415 -0.0006535260741)
5(-0.001687288253 -0.002230525372 -0.002197167124 -0.001877903537 -0.00120116905)
5(-0.002485535544 -0.003689963993 -0.003367215468 -0.002966612171 -0.001878642039)
5(-0.004121531506 -0.006787591975 -0.005470761678 -0.005030725555 -0.003194670383)
5(-0.006361066207 -0.01262836524 -0.009330315387 -0.008594772738 -0.004994611799)
5(-0.009720197376 -0.01700746936 -0.01357548851 -0.01362913483 -0.007740749269)
5(-0.01467586528 -0.02029709382 -0.02148446908 -0.02054910535 -0.01131126314)
5(-0.02372445494 -0.0309416535 -0.03041804231 -0.02822060559 -0.01621156542)
5(-0.03514553834 -0.04602881507 -0.04231919721 -0.03493619289 -0.01999186254)
5(-0.05217632722 -0.06472575483 -0.05935370916 -0.04661536955 -0.02393889832)
5(-0.07154006438 -0.08102936919 -0.06866386231 -0.04628978647 -0.01800725722)
5(-0.09164474565 -0.09869816093 -0.07836211953 -0.04411711821 -0.01881455188)
5(-0.1123655874 -0.1072647434 -0.07829658254 -0.02828321611 -0.000596072059)
5(-0.1230275086 -0.08614025874 -0.04896159947 0.00124982429 0.06723769589)
5(-0.1095028025 -0.04252473501 0.002782865703 0.04420602676 0.1027535495)
5(-0.05853656864 0.05114189118 0.08493232746 0.08638866957 0.04647012516)
5(0.04453999621 0.179235757 0.179231462 0.1335074431 0.02680811305)
5(0.205732836 0.3264855264 0.2851014375 0.1326038675 0.04985470217)
5(0.4079213792 0.4611833781 0.3686728057 0.115151942 0.001389605718)
5(0.5954712099 0.4878876393 0.2599205752 0.105305311 0.001986805161)
5(0.7021127829 0.4350791303 0.1570209607 0.268276541 1.119179782e-06)
5(0.6742167294 0.2176096363 -0.0007018296294 1.396939477e-06 3.743606025e-06)
5(0.5228787435 0.02159031661 -0.1070088067 2.324194727e-06 0.7459741152)
5(0.1903171852 -0.166816964 -0.1353115535 1.882475355e-06 0.1915172206)
5(-0.148444412 -0.2579698091 -0.08981901522 2.112746412e-06 2.319892909e-06)
5(-0.3742161787 -0.196008096 -0.001505506485 0.1899127901 1.341877458e-06)
5(-0.1867465266 -0.04630180545 0.01779377589 7.858218207e-07 6.698591201e-07)
5(-0.2783022294 -0.02332293635 0.005640801323 2.95793649e-07 2.33882499e-07)
5(-0.1474017346 -0.000544135547 -5.901939322e-08 1.571319239e-07 7.27144665e-08)
5(-0.06198244751 -4.843018343e-08 2.308682487e-07 5.409408431e-08 7.595991554e-09)
5(-0.01042199953 3.698845429e-08 3.336469549e-08 2.452027862e-08 5.116066895e-09)
5(-0.0001972040195 -2.520619434e-07 1.696076289e-08 7.9266096e-09 1.264815016e-09)
5(2.167561128e-08 -2.007038104e-08 -2.054523522e-09 -1.908916896e-10 7.654147887e-11)
5(-2.258018271e-09 -6.339003595e-09 2.703829324e-10 2.155382613e-10 3.598251783e-11)
5(-1.056319798e-06 -1.124199063e-10 7.186508262e-11 -7.685575918e-12 4.818985147e-12)
5(-3.114862286e-07 -2.287983246e-12 2.729183707e-12 1.094982305e-12 4.847905296e-13)
5(-1.713258654e-08 -1.246456801e-09 -1.364864551e-13 -1.965596886e-13 1.239010032e-14)
5(-8.815480056e-11 4.623377869e-10 -3.421064211e-10 -8.868562819e-13 1.580576693e-14)
5(-2.425800771e-19 -4.846178929e-18 7.417733207e-09 -2.43554487e-16 -6.910085133e-16)
)


60
(
5(-0.001042624875 -0.0006242362076 -0.001392793155 -0.0009879134305 -0.001470319442)
5(-0.0006864700935 -0.0005958526539 -0.0007896187529 -0.000688040286 -0.0007193044126)
5(-0.0005543683895 -0.0005986859067 -0.0005998864223 -0.0005876119269 -0.000493284082)
5(-0.0005387643442 -0.0006311398682 -0.0005944487365 -0.0005970218768 -0.0004736158392)
5(-0.0006043588371 -0.0006938791269 -0.0006901970465 -0.0006696722486 -0.0005635813527)
5(-0.0007081262505 -0.0007772182472 -0.0008133501171 -0.0007707598714 -0.0006975812696)
5(-0.0008075269642 -0.0008682821745 -0.0009152483827 -0.0008671142228 -0.0008033483081)
5(-0.0008883928614 -0.0009678485347 -0.001008759222 -0.0009676526241 -0.0008843313896)
5(-0.000968172952 -0.001078213098 -0.001109130022 -0.001081470417 -0.000970204953)
5(-0.001069078301 -0.00120494245 -0.001235664473 -0.001218347355 -0.00109522229)
5(-0.001187713619 -0.00135472211 -0.001398659638 -0.001387608407 -0.001253860827)
5(-0.001334156465 -0.001530820529 -0.001599166622 -0.001599196626 -0.001461923986)
5(-0.001487219784 -0.001743955828 -0.001843285301 -0.001877958923 -0.001738854331)
5(-0.001665913411 -0.002007282161 -0.002155014523 -0.002248269636 -0.002100554963)
5(-0.001878940337 -0.002358154287 -0.002563204155 -0.002756754353 -0.002596433019)
5(-0.002165276419 -0.002842192764 -0.003135142933 -0.003478642641 -0.003333530668)
5(-0.002586066149 -0.003565521246 -0.003999566195 -0.004575416356 -0.004457697322)
5(-0.003189449436 -0.004677127088 -0.005313013655 -0.006232193822 -0.006054607816)
5(-0.004165319151 -0.00638267855 -0.007354493546 -0.008792135464 -0.008591306339)
5(-0.005688209275 -0.009060702035 -0.01054647637 -0.01282030616 -0.01258259471)
5(-0.008230618427 -0.01342073837 -0.01574593018 -0.01929308246 -0.01898434625)
5(-0.01233745245 -0.02044904584 -0.02418014729 -0.02977754593 -0.02912556914)
5(-0.01888410394 -0.03181929171 -0.03777527787 -0.04664093865 -0.04584276723)
5(-0.03000532279 -0.05026569014 -0.05996232974 -0.07374124706 -0.07223554608)
5(-0.04810729288 -0.07939181496 -0.09497064247 -0.1160595797 -0.114244959)
5(-0.07677847606 -0.1250551237 -0.1497166325 -0.1813326762 -0.1787302146)
5(-0.1219368533 -0.1943993655 -0.2330333696 -0.2782685198 -0.2732526596)
5(-0.1899423907 -0.2970994134 -0.3547938821 -0.4157072124 -0.4020545386)
5(-0.2915251866 -0.4432524876 -0.5255951156 -0.6010881289 -0.5756145447)
5(-0.4338598214 -0.6406088331 -0.7522588168 -0.8348279591 -0.7862636301)
5(-0.630731873 -0.8928700081 -1.035080128 -1.108009431 -1.013346614)
5(-0.8807362445 -1.194592825 -1.350019657 -1.383453209 -1.221703288)
5(-1.174027325 -1.505290144 -1.651466015 -1.605633352 -1.361470717)
5(-1.482718478 -1.778536174 -1.865062869 -1.689683688 -1.308050755)
5(-1.75719523 -1.935077067 -1.892457032 -1.508749508 -1.014340018)
5(-1.901257968 -1.825198926 -1.585036124 -0.9456328851 -0.3663419384)
5(-1.82334879 -1.344800224 -0.81665535 0.03163739576 0.6372411426)
5(-1.318207242 -0.3614650016 0.4765611789 1.409810478 1.848823809)
5(-0.3218858198 1.168309283 2.257120235 3.088231552 3.042849727)
5(1.195771475 3.077911297 4.245131508 4.599754422 3.869555644)
5(3.112247663 5.07276734 5.99597711 5.575613872 3.932945484)
5(5.352491865 6.820520809 6.895424178 5.474997838 3.106041999)
5(7.057833089 7.551462588 6.596170652 4.158396482 1.77879779)
5(7.544982674 6.912784974 4.961915977 2.174341292 0.2122765892)
5(6.9364673 4.859543083 2.411061228 -0.01253394171 -0.8464148239)
5(4.721647368 2.131639833 -0.09725338411 -1.469616286 -1.212884538)
5(2.05752551 -0.8161722837 -2.127708951 -1.925877404 -0.9993740697)
5(-0.9458944543 -2.748269848 -2.821510228 -1.605639197 -0.5844557167)
5(-2.415215611 -3.226125108 -2.350981071 -0.9678931496 -0.257866355)
5(-3.268653669 -2.64477902 -1.391060501 -0.4384098189 -0.0895719619)
5(-2.48899637 -1.539712639 -0.6237508192 -0.1514402518 -0.02551385594)
5(-1.453245335 -0.6622840266 -0.205995072 -0.04147409538 -0.006248085781)
5(-0.5731260313 -0.205776264 -0.05192201336 -0.009329681554 -0.001353051899)
5(-0.1574503611 -0.04372393721 -0.009567596716 -0.001754917524 -0.0002673566002)
5(-0.02710298506 -0.006864726788 -0.001368880862 -0.0002732070247 -4.308755965e-05)
5(-0.002561883419 -0.0006184688757 -0.0001506443566 -3.203095073e-05 -5.628139434e-06)
5(-0.0001444071587 -4.479889794e-05 -8.894690545e-06 -2.510754636e-06 -4.245714363e-07)
5(-4.000211175e-06 -1.330970291e-06 -3.027229337e-07 5.866687547e-07 -1.499513744e-08)
5(-1.312062655e-08 -4.564189041e-06 -1.418518571e-08 -2.774664381e-06 -2.298259027e-10)
5(2.001984468e-11 1.417166352e-07 -0.001364836939 -3.447352235e-07 -2.611091562e-14)
)


60
(
5(-0.002120643541 -0.001446143351 -0.002976588898 -0.002383725418 -0.003263946146)
5(-0.001713196736 -0.001565339451 -0.002016824677 -0.001882130164 -0.001946929122)
5(-0.001562741742 -0.001680867341 -0.001729567377 -0.001737486305 -0.001546533805)
5(-0.001610632854 -0.001823679248 -0.001796857981 -0.001817258192 -0.001569628959)
5(-0.001819969746 -0.00202562847 -0.002066916658 -0.002041047187 -0.001828514562)
5(-0.002118393179 -0.002273783488 -0.002404233409 -0.002322197456 -0.002184401401)
5(-0.002396762779 -0.002529882581 -0.002696382731 -0.002576588784 -0.002457777858)
5(-0.002632909102 -0.002781383757 -0.002934952406 -0.002814746093 -0.002661592755)
5(-0.002850609408 -0.003029321288 -0.003162515112 -0.003051820905 -0.002847796833)
5(-0.003079482526 -0.003268312464 -0.00340195802 -0.003311584108 -0.003117526197)
5(-0.003280401119 -0.003502590333 -0.003665659606 -0.003598250633 -0.003428579096)
5(-0.003480632903 -0.003700284033 -0.003926670057 -0.003939408189 -0.003839463647)
5(-0.003597806655 -0.00386453908 -0.004189951005 -0.004341079117 -0.004378661165)
5(-0.003604556969 -0.004029496769 -0.004495305469 -0.004878395738 -0.005067930469)
5(-0.003611675881 -0.004197958765 -0.004924867123 -0.00559781213 -0.00617055996)
5(-0.003547456235 -0.004479299287 -0.005520963034 -0.006667657812 -0.007552640821)
5(-0.003482594335 -0.00488930208 -0.006447750001 -0.008294421372 -0.009678545507)
5(-0.003419629362 -0.005765092367 -0.007887358886 -0.01073767275 -0.01252834072)
5(-0.003671767984 -0.007333541056 -0.0104104927 -0.01456381916 -0.01705077463)
5(-0.004584409569 -0.01015500783 -0.01464988557 -0.02062464093 -0.02403740732)
5(-0.006146127168 -0.01501645272 -0.0217786414 -0.03060579719 -0.0354602294)
5(-0.01073688219 -0.0237900037 -0.03385864443 -0.04735184203 -0.05448364713)
5(-0.01773035236 -0.03896826756 -0.05407294844 -0.07491947506 -0.08452386954)
5(-0.03217987398 -0.06448348041 -0.08793189986 -0.1198456294 -0.1336400005)
5(-0.05534415756 -0.1064306864 -0.1433553242 -0.1915191053 -0.2117121138)
5(-0.09590376584 -0.1741714928 -0.2318199514 -0.304889995 -0.3313152401)
5(-0.1610698366 -0.2797856662 -0.3682757646 -0.4721824743 -0.5114721016)
5(-0.2611821466 -0.4386424804 -0.5680714176 -0.7146409017 -0.7605517885)
5(-0.4150488478 -0.6688165563 -0.8547523616 -1.046096775 -1.104357066)
5(-0.6371014744 -0.9853001515 -1.244978973 -1.477444482 -1.543042537)
5(-0.9396987879 -1.400667016 -1.735896083 -1.99834687 -2.019882626)
5(-1.334536847 -1.915456623 -2.311903368 -2.570839392 -2.530462945)
5(-1.822652253 -2.490023164 -2.922682302 -3.115769662 -2.917205405)
5(-2.374111806 -3.051764548 -3.46426787 -3.451661385 -3.098737134)
5(-2.897188671 -3.498267517 -3.781184931 -3.424885005 -2.778377616)
5(-3.31991052 -3.643691663 -3.60871215 -2.831313843 -1.900814635)
5(-3.563341535 -3.263007187 -2.763370799 -1.466515077 -0.27683267)
5(-3.034854733 -2.163120589 -0.9928966329 0.7743757441 2.102175616)
5(-2.08480416 -0.2522053801 1.81325179 3.776970932 5.009695715)
5(-0.1145927359 2.529244293 5.191185468 7.067732635 7.51465933)
5(2.742261746 6.073147745 8.767198061 9.97947933 9.293496169)
5(5.828229909 9.483911519 11.76923953 11.708391 9.102182326)
5(9.1000371 12.03264928 13.21142963 11.44775728 7.372914266)
5(11.55715839 12.85140674 12.15293871 8.554108438 4.396314573)
5(12.12350716 11.33364232 8.709126258 4.367229178 0.8601772057)
5(9.958120822 7.631675036 4.155898213 0.1309307503 -1.966410913)
5(6.804996996 2.819762625 -0.7927960176 -3.094983461 -3.047191301)
5(2.216695175 -1.619873729 -3.974042724 -4.2896675 -2.936691467)
5(-1.631597165 -4.304959986 -5.098794933 -3.665985673 -1.960994982)
5(-3.853734093 -4.996293385 -4.19265545 -2.455333014 -1.004219284)
5(-4.120740584 -3.958261362 -2.58090131 -1.207931999 -0.3940616646)
5(-3.247693728 -2.304316193 -1.189103015 -0.4516025105 -0.1218934587)
5(-1.779935182 -0.9789846239 -0.3953772639 -0.1272036436 -0.03007987173)
5(-0.6547732212 -0.2847299973 -0.09107781668 -0.02587285427 -0.0058814063)
5(-0.1527086505 -0.05516659689 -0.01478849189 -0.00416535354 -0.0009978943561)
5(-0.01917933602 -0.006681119908 -0.001504304464 -0.0004862978856 -0.000119844692)
5(-0.001434808855 -0.0003631980258 -0.0001022727021 -3.392164911e-05 -9.097845752e-06)
5(-2.824987099e-05 -5.583223242e-05 -3.039289342e-06 -3.396980594e-05 -3.960124557e-07)
5(1.124413297e-06 -0.02651394923 -1.999926439e-06 -0.0146708684 -1.121698915e-06)
5(6.941872423e-10 -6.171823633e-07 -0.004539629392 9.649650209e-07 -2.266358628e-13)
)


60
(
5(-0.003861619908 -0.002900291507 -0.005668503909 -0.004954146386 -0.006432316746)
5(-0.0035556011 -0.003406374095 -0.004330749176 -0.004213061157 -0.004312568744)
5(-0.003504303679 -0.003810164243 -0.003988103966 -0.004063713091 -0.003696779646)
5(-0.003716040936 -0.004201158208 -0.004259876533 -0.004320775035 -0.003840962475)
5(-0.004225922026 -0.004693286813 -0.004890027145 -0.004839731008 -0.004411455478)
5(-0.004911503931 -0.005271779255 -0.005624890657 -0.005455677724 -0.005159639355)
5(-0.00554737654 -0.005850432278 -0.006267709421 -0.00602394662 -0.005729077845)
5(-0.006081549264 -0.006383659398 -0.006782384145 -0.006487224715 -0.006100297252)
5(-0.006533606181 -0.006846212533 -0.007198697798 -0.00688566809 -0.006426268018)
5(-0.006971444334 -0.007245392039 -0.007558042834 -0.007256325513 -0.0068427935)
5(-0.007330577357 -0.007510877765 -0.007815180216 -0.007602508881 -0.007296838467)
5(-0.007463899309 -0.007621004132 -0.007998087809 -0.007942663106 -0.007882799138)
5(-0.007345566085 -0.007534283501 -0.008119893375 -0.008361711069 -0.008862794869)
5(-0.00686521709 -0.007228918014 -0.008143184171 -0.008887325317 -0.009839158828)
5(-0.006243881183 -0.006661828297 -0.00816862421 -0.00952759351 -0.01152268364)
5(-0.005107892093 -0.005836775401 -0.008193125992 -0.0105057319 -0.01349309873)
5(-0.003591260462 -0.005120212716 -0.008468762112 -0.01209847199 -0.01635705539)
5(-0.001853922116 -0.004643734756 -0.009251834975 -0.01462183701 -0.02007521275)
5(-0.0001156156335 -0.00437786426 -0.01060498223 -0.01850484491 -0.02563383958)
5(0.002212119534 -0.004950598279 -0.01362105533 -0.0246357127 -0.03426416089)
5(0.003370312682 -0.007820700298 -0.01954101486 -0.03489929377 -0.04795647985)
5(0.001189632679 -0.01405269054 -0.0304960443 -0.05334409639 -0.07218974573)
5(-0.003290468581 -0.02720513666 -0.05148499203 -0.08519583511 -0.1092840559)
5(-0.01185236093 -0.0523827613 -0.08921323652 -0.1391386894 -0.1736542439)
5(-0.03565362359 -0.09759489596 -0.1527854117 -0.2284973181 -0.2798879355)
5(-0.075452257 -0.1733610281 -0.2594143253 -0.3712207078 -0.4443369485)
5(-0.1468343595 -0.295237471 -0.4299664182 -0.5924893528 -0.6950423004)
5(-0.2587953554 -0.4861707322 -0.6868433317 -0.9166736619 -1.060824262)
5(-0.4431593198 -0.7719890584 -1.061547875 -1.373033614 -1.54628249)
5(-0.7130995999 -1.17524543 -1.582092616 -1.978836236 -2.194364116)
5(-1.090011717 -1.715290015 -2.259902144 -2.735825481 -2.966851656)
5(-1.604658293 -2.401918741 -3.084618716 -3.60499713 -3.816438497)
5(-2.253940024 -3.202117327 -3.995727395 -4.5057044 -4.604481356)
5(-2.999693854 -4.068901459 -4.889637503 -5.225292086 -5.094670588)
5(-3.812207843 -4.872206657 -5.570073128 -5.57241186 -5.164534069)
5(-4.500176653 -5.396952432 -5.72994413 -5.235889369 -4.202696978)
5(-4.92770041 -5.327844385 -5.118819256 -3.847836886 -2.275809387)
5(-4.963237864 -4.454493153 -3.262133979 -1.227948369 0.8819966866)
5(-4.109515079 -2.41531183 -0.1303953549 2.650132978 5.148932368)
5(-2.158014279 0.8887825533 4.182051708 7.520065974 9.916432378)
5(0.6761239186 5.107896589 9.393557504 12.58448659 14.03283454)
5(4.870888341 9.85651183 14.41161408 16.51956586 15.66389168)
5(9.013828461 14.27158006 17.84744045 18.13551673 15.80641131)
5(13.04702528 17.1578315 18.78811387 16.53624443 12.53689847)
5(14.76116692 17.2398933 16.75704487 11.76982434 6.678607453)
5(14.78698141 14.39217217 11.29961321 5.466684384 0.4335140055)
5(12.28381034 10.09398796 4.132727095 -0.5235833787 -3.848618203)
5(7.83474895 3.296429233 -1.561717488 -5.167071369 -5.797494221)
5(1.881046945 -2.664326164 -5.590313412 -6.626976664 -5.121451548)
5(-1.998317507 -5.691829381 -7.019407748 -5.816567204 -3.434699966)
5(-4.336083867 -5.912316514 -5.445830078 -3.626599237 -1.777689113)
5(-4.572650468 -4.603438517 -3.173037883 -1.763904148 -0.7062627771)
5(-3.721356301 -2.476304389 -1.357573315 -0.6337212019 -0.2106740006)
5(-1.800783717 -0.9509027284 -0.4023383222 -0.1640104368 -0.04764418889)
5(-0.6667630945 -0.2410502116 -0.07751361004 -0.02911427531 -0.007982058268)
5(-0.1259458195 -0.0353368351 -0.009611948864 -0.003403425686 -0.00104718613)
5(-0.009797568 -0.003081458987 -0.0005782000759 -0.0002512724878 -7.337339701e-05)
5(-0.0006296471497 8.798927344e-05 -2.189334724e-05 0.0001981671531 -2.742459374e-06)
5(4.590523299e-06 0.1345224813 -0.001237370084 0.1208199269 9.936485694e-06)
5(1.744471986e-05 189.8221891 0.01783875475 178.0027007 5.876145785e-09)
)


60
(
5(-0.006470082735 -0.005259528783 -0.009874473171 -0.009259969783 -0.01164241394)
5(-0.006543015264 -0.006528521346 -0.008237194254 -0.008297548682 -0.00848067499)
5(-0.006790818064 -0.007487931814 -0.007957607945 -0.008239498937 -0.007613532514)
5(-0.007334722655 -0.008330730013 -0.008632529477 -0.008853187392 -0.007968166137)
5(-0.008340973559 -0.009327142536 -0.00989762603 -0.009890360235 -0.009092263669)
5(-0.00966124502 -0.01050232588 -0.01130892424 -0.01106521752 -0.01043934722)
5(-0.01088846623 -0.01163184202 -0.01255059524 -0.01210114954 -0.01148326379)
5(-0.01193509533 -0.01265665921 -0.01352367926 -0.01294067347 -0.01212571512)
5(-0.01282474426 -0.01345555594 -0.01419609869 -0.01356918187 -0.01268950828)
5(-0.01353736959 -0.01397817858 -0.01466779441 -0.01400390691 -0.01311495243)
5(-0.0140573619 -0.01426958241 -0.01492605413 -0.01432413984 -0.0139955551)
5(-0.01418075633 -0.01411083178 -0.0149458271 -0.01460892534 -0.01486141452)
5(-0.01362066036 -0.0135387518 -0.01464003226 -0.0149491648 -0.01620152829)
5(-0.01225281644 -0.01244322138 -0.01411579868 -0.01527077778 -0.01772372509)
5(-0.010354949 -0.01078453617 -0.01318037777 -0.01573789833 -0.01983731258)
5(-0.007446883254 -0.008341187591 -0.01194990749 -0.01655025776 -0.02229736342)
5(-0.00387986776 -0.0053519819 -0.01066110604 -0.0174281409 -0.02622314685)
5(0.001136134785 -0.002165147189 -0.009231471857 -0.01849015522 -0.02917194973)
5(0.006696023879 0.001501806917 -0.007691976648 -0.0203306728 -0.03456194876)
5(0.01330410103 0.005038410351 -0.007124471878 -0.02407267739 -0.04153444757)
5(0.02010421023 0.008244490586 -0.008631413641 -0.03166097738 -0.05496896939)
5(0.02606531016 0.008798909766 -0.0145401333 -0.04541959747 -0.07648106064)
5(0.03179013468 0.003712905194 -0.02811404006 -0.07293923558 -0.1130824023)
5(0.03150676848 -0.01410165368 -0.0588196627 -0.1243047105 -0.1882995665)
5(0.01562608391 -0.05263502434 -0.1202663063 -0.2168156363 -0.3019412642)
5(-0.009091558335 -0.123706192 -0.2308604928 -0.3722811374 -0.4943471738)
5(-0.07568679198 -0.2408801035 -0.4130615648 -0.6218191619 -0.8013557024)
5(-0.1903300738 -0.4393688509 -0.6966431835 -0.9986382468 -1.244680048)
5(-0.3865778173 -0.7445972359 -1.124338582 -1.54890816 -1.875997294)
5(-0.6606247488 -1.196876147 -1.734944077 -2.298142253 -2.707735959)
5(-1.092048238 -1.829312534 -2.553776991 -3.25934655 -3.749767984)
5(-1.693399238 -2.639051925 -3.57004654 -4.429964967 -4.970747322)
5(-2.451397081 -3.641046144 -4.772281569 -5.706186832 -6.153436103)
5(-3.369986442 -4.787419232 -6.055866578 -6.90721888 -7.148503042)
5(-4.38710721 -5.933996002 -7.151765889 -7.748703711 -7.582002743)
5(-5.460309003 -6.894084698 -7.807254912 -7.84898882 -7.013630946)
5(-6.336047364 -7.3217441 -7.687980909 -6.790026757 -5.147318317)
5(-6.631385684 -6.911130971 -6.295356109 -4.266948088 -1.688361036)
5(-6.287897039 -5.378319519 -3.314633543 0.01071085294 3.52798447)
5(-4.835193768 -2.313287479 1.507655815 5.955955904 9.99039269)
5(-2.148528497 2.206384637 7.677216803 12.69709594 16.23022288)
5(1.838575217 7.939462692 14.40499746 19.17183368 21.08805734)
5(6.486597086 13.89624442 20.3835185 23.73136846 23.14290341)
5(11.69239435 18.67692848 24.00570315 24.4450697 21.07927414)
5(15.83603394 21.40046497 24.0241378 21.23044211 16.19563809)
5(18.04942899 20.63920333 19.38085544 14.10433526 8.721498659)
5(17.60505717 16.47841332 11.48785196 6.398249165 0.4322296555)
5(13.43808356 9.757137699 2.710525791 -2.242983343 -5.656471049)
5(8.290537039 2.272594677 -4.417765161 -7.61177455 -8.183683534)
5(2.869605915 -3.31026433 -8.174924677 -8.62394508 -7.410453122)
5(-2.201710537 -6.206721887 -8.355278487 -7.080000657 -4.794691033)
5(-4.331331498 -7.056636391 -6.097754488 -4.265218762 -2.354386362)
5(-4.100773445 -4.918314112 -3.228713416 -1.971373217 -0.8924217013)
5(-3.331148719 -2.525154141 -1.257739548 -0.6494677022 -0.2561251116)
5(-2.286922602 -0.9224473614 -0.3300834082 -0.1415960662 -0.04971009188)
5(-0.7361290075 -0.2106665159 -0.05215323263 -0.01990666335 -0.00551009686)
5(-0.17338734 -0.02372022372 -0.003757281199 -0.00168433831 -0.0004982246412)
5(-0.01386571669 -0.0009834749246 -0.0001493811257 5.267093568e-05 -1.814117887e-05)
5(0.0007084294348 0.08015162376 3.549794864e-05 0.04634585507 5.760897785e-06)
5(0.001445991304 4.680940914e-05 -0.03952572008 -1.200662147e-05 3.298672843e-09)
)


60
(
5(-0.01015491425 -0.0088160485 -0.01604650501 -0.01599418007 -0.01970651423)
5(-0.01101592328 -0.01136814483 -0.0142994374 -0.01485798843 -0.01522230611)
5(-0.0117939769 -0.01324012414 -0.01431104079 -0.01501960138 -0.01403514597)
5(-0.01292123535 -0.01483075008 -0.01569670305 -0.01622058843 -0.01494873015)
5(-0.01473509762 -0.01662312402 -0.01790901251 -0.01808290973 -0.01690731168)
5(-0.01698921781 -0.0186633021 -0.02034803584 -0.02015164202 -0.01909129748)
5(-0.01917311428 -0.02063571448 -0.02246510956 -0.02190504746 -0.02097023026)
5(-0.0209541046 -0.02239781029 -0.02405514301 -0.02321140856 -0.0218003544)
5(-0.02251773066 -0.02376889975 -0.02510530969 -0.02409880296 -0.0225021583)
5(-0.02362287344 -0.02461594621 -0.02574943265 -0.02458434166 -0.02333493657)
5(-0.02443516023 -0.02482377372 -0.02589830361 -0.02487123866 -0.02433596144)
5(-0.02407402418 -0.02427850228 -0.02550218318 -0.02498785036 -0.02580925581)
5(-0.02299449643 -0.02290138606 -0.02460815118 -0.02520381021 -0.02752988006)
5(-0.02060493609 -0.02042709529 -0.02318253546 -0.02546845253 -0.02996895562)
5(-0.01703119218 -0.01702220828 -0.02128377387 -0.02574519313 -0.03319721522)
5(-0.01162487482 -0.0124350724 -0.01856069721 -0.02561686913 -0.03659033195)
5(-0.004370279819 -0.006714902519 -0.01490253687 -0.02530117014 -0.0407710808)
5(0.004922253248 0.0002320653535 -0.01021549928 -0.02478825394 -0.04292347373)
5(0.0158427524 0.009023241455 -0.004671820937 -0.02408588232 -0.04867460859)
5(0.02832096206 0.01951706992 0.001697180168 -0.02243750779 -0.04901442166)
5(0.04237611059 0.03047890915 0.008626876381 -0.02145708258 -0.05627544315)
5(0.06102785105 0.04207171578 0.01457188993 -0.02467941557 -0.07279124009)
5(0.07909841932 0.05101786924 0.0133079281 -0.03935254671 -0.1022003016)
5(0.091488419 0.0519174344 -0.001673408937 -0.07813941161 -0.1635118619)
5(0.09754200038 0.03676989922 -0.04348379373 -0.1570788898 -0.2834732912)
5(0.09015840477 -0.01069169754 -0.1348968351 -0.3022914645 -0.4758780205)
5(0.0528803094 -0.1137491294 -0.3022253076 -0.5520414943 -0.7994800023)
5(-0.04144756334 -0.2980289603 -0.588802891 -0.9472486989 -1.291957175)
5(-0.2246268915 -0.6005616353 -1.038029253 -1.541642432 -2.023689951)
5(-0.5047648043 -1.068908634 -1.701060016 -2.387332423 -3.006787295)
5(-0.9651400892 -1.74223669 -2.61928471 -3.514062496 -4.297521457)
5(-1.599850503 -2.653430104 -3.822984631 -4.901302071 -5.82073948)
5(-2.456115981 -3.82909074 -5.281394959 -6.50359362 -7.455230822)
5(-3.52500197 -5.191732258 -6.882806949 -8.150601204 -9.11765389)
5(-4.794726834 -6.660740269 -8.44956189 -9.548891552 -10.13592424)
5(-6.1963029 -8.064860901 -9.684105689 -10.32236481 -10.19127433)
5(-7.334801727 -9.112366633 -10.19961733 -10.01221491 -8.753814463)
5(-8.288408764 -9.461172453 -9.473755843 -7.982815215 -5.385537144)
5(-8.426402609 -8.554063666 -6.992311395 -3.897295051 0.06123568442)
5(-7.704766086 -6.024686233 -2.544677002 2.28855822 7.447773346)
5(-5.541999058 -1.85725045 3.944925701 10.1895851 17.33980579)
5(-2.059057716 3.973468538 11.75879535 19.00556675 23.92481122)
5(2.687719951 10.87988324 19.89405067 26.59593598 30.36258989)
5(8.367844047 17.49756025 26.21663073 30.4721536 30.51592531)
5(13.60633744 22.68599771 29.50264802 29.83174969 27.82115758)
5(17.80031832 24.84358064 27.59827437 24.11122446 18.50142835)
5(24.29884592 23.27220769 21.12552875 14.68324913 6.593741221)
5(19.04232258 18.01809178 11.43769573 4.86508244 -1.547708831)
5(14.61958165 10.46091341 2.132454191 -4.086424053 -8.293543025)
5(14.90994269 3.607644634 -5.905221272 -10.04588823 -10.65831645)
5(3.585395845 -3.622167426 -9.489168631 -10.58900389 -9.091387804)
5(-1.222090371 -5.723572231 -9.061937731 -7.872194612 -5.550337976)
5(-5.489437503 -7.307190158 -6.017505778 -4.451925539 -2.623261716)
5(-4.676958471 -5.258376743 -3.107337907 -1.844719935 -0.9091197785)
5(-4.793040206 -2.807195096 -1.120009834 -0.5397458393 -0.2118657363)
5(-1.846620045 -1.039928644 -0.2257921847 -0.09658534448 -0.03234892015)
5(-1.305658342 -0.2489167632 -0.03313827353 -0.009372580216 -0.002466078915)
5(-0.3144516742 -0.0242862736 -0.001639686151 -0.0004227932457 -0.0001210598507)
5(-0.08015004752 0.0006537095028 -0.0001466170907 -4.687313194e-05 -8.842304275e-07)
5(-0.05598997722 0.005493317666 -0.1514899416 -2.237761351e-05 1.658587899)
)


60
(
5(-0.01514112975 -0.01388200585 -0.02470361828 -0.02597347597 -0.03157791554)
5(-0.01732074069 -0.0183641753 -0.02308217909 -0.02476781729 -0.02545914473)
5(-0.01904509292 -0.02166356502 -0.02371572069 -0.0253495848 -0.02400502718)
5(-0.02102279902 -0.02436097197 -0.02622292051 -0.02743305254 -0.02533829599)
5(-0.02401388399 -0.02733137798 -0.0299250225 -0.03045534867 -0.02858165693)
5(-0.02758831039 -0.03069371447 -0.0337682177 -0.03368443547 -0.03193083777)
5(-0.0311086183 -0.03388208332 -0.03710407372 -0.03645167196 -0.03474700082)
5(-0.03407145022 -0.03668269884 -0.03960986811 -0.03855653471 -0.03596784292)
5(-0.03647570433 -0.03888290425 -0.04120072189 -0.03986569562 -0.03708797199)
5(-0.03830007028 -0.04005410657 -0.04199949114 -0.04051787719 -0.03880977898)
5(-0.03905918616 -0.04015680117 -0.04200495717 -0.04065514056 -0.04013642796)
5(-0.0382808035 -0.03882085828 -0.04104172144 -0.04071498396 -0.04220405593)
5(-0.03653705538 -0.03619937264 -0.03936624378 -0.04075674549 -0.04475758762)
5(-0.03277363282 -0.03230646881 -0.03669708771 -0.04080496473 -0.04828771605)
5(-0.02694152382 -0.02692197445 -0.0331273168 -0.04080107624 -0.05307160201)
5(-0.01828801391 -0.01913193921 -0.0281239622 -0.03997304204 -0.05878164999)
5(-0.006453248605 -0.008941257803 -0.021947332 -0.03833996019 -0.06377214173)
5(0.007924050714 0.003297665375 -0.01328159686 -0.035348733 -0.06731941535)
5(0.02375990871 0.01790598591 -0.002156413223 -0.03007390092 -0.06375015048)
5(0.04781029257 0.03713655759 0.01383219637 -0.02034293771 -0.06679707309)
5(0.07485412028 0.06148210261 0.03358854058 -0.007847666937 -0.05650708872)
5(0.101930602 0.08902229965 0.05529586615 0.006363844798 -0.05487504268)
5(0.1411269943 0.1177769358 0.07682162986 0.01435198107 -0.06564897007)
5(0.1722700517 0.141977993 0.08938843127 0.003475034737 -0.1003948098)
5(0.2116131334 0.1523681654 0.07741548629 -0.04766028204 -0.1839055577)
5(0.231752627 0.1421736302 0.02174325582 -0.1693315412 -0.360142593)
5(0.2136480448 0.07460726287 -0.1158583434 -0.3931335736 -0.6854819356)