/*--------------------------------*- C++ -*----------------------------------*\
| =========                 |                                                 |
| \\      /  F ield         | OpenFOAM: The Open Source CFD Toolbox           |
|  \\    /   O peration     | Version:  2.3.1                                 |
|   \\  /    A nd           | Web:      www.OpenFOAM.org                      |
|    \\/     M anipulation  |                                                 |
\*---------------------------------------------------------------------------*/
FoamFile
{
    version     2.0;
    format      ascii;
    class       dictionary;
    location    "constant";
    object      la_r17;
}
// * * * * * * * * * * * * * * * * * * * * * * * * * * * * * * * * * * * * * //

la_r17_table
60
(

60
(
5(5.245579464e-07 -1.40605601e-06 -1.421245397e-05 -7.507361973e-06 -5.558627328e-06)
5(1.505514558e-06 -2.23714559e-07 -2.045997298e-06 -9.81435756e-07 8.375048807e-07)
5(5.84325597e-05 7.374318692e-07 1.498349928e-06 6.176629092e-07 -1.587368737e-10)
5(0.0003824884365 1.362496623e-06 3.842316813e-06 1.174952897e-06 5.667851912e-06)
5(0.0004925024557 1.049144845e-06 3.263026679e-06 1.553192634e-06 2.496962769e-06)
5(0.0009711213377 7.065729591e-07 2.264229877e-07 1.189937759e-06 4.853357292e-07)
5(1.121125332e-06 7.087495136e-07 -5.117716831e-09 5.488603385e-07 3.556404181e-06)
5(3.007975842e-07 1.016734588e-06 2.149725435e-06 1.370853118e-06 3.399509015e-07)
5(0.001140752246 1.236922453e-06 5.691046896e-06 1.71160029e-06 1.531368336e-06)
5(0.001856874772 3.816730885e-06 9.829447401e-06 1.379538299e-06 1.892710363e-06)
5(0.002041893762 2.948809065e-06 7.100269975e-06 1.578301761e-07 4.870453861e-08)
5(0.0006204697213 -1.543367783e-06 7.452486108e-07 -1.762092732e-06 -2.623258312e-06)
5(-1.268393747e-06 -2.250073202e-06 -2.79827791e-06 -2.864420783e-06 -2.611302527e-06)
5(-1.972029343e-06 -2.12982956e-06 -2.958564676e-06 -1.744020657e-06 -1.774339919e-06)
5(-1.339973826e-06 -1.539982266e-06 -1.951496419e-06 -1.299611551e-06 -9.947755906e-07)
5(6.553480862e-05 -6.364407476e-05 -8.567667972e-06 -1.460044855e-05 -3.627210822e-06)
5(5.605430199e-05 -7.612659304e-05 -1.587535617e-05 -8.921878584e-06 -4.388401184e-07)
5(1.8999991e-05 -7.148411808e-05 -1.173370063e-06 -4.751253316e-07 -2.828544546e-07)
5(-3.44265907e-07 -3.807469588e-05 -6.881151062e-07 -3.800648878e-07 -2.141153192e-06)
5(-3.430725387e-07 -2.300803686e-07 -5.471395691e-07 -4.816770033e-07 -2.833820499e-06)
5(-3.304763145e-07 -6.921224254e-07 -2.43806069e-07 -4.027554233e-07 -3.141694289e-07)
5(-9.895476628e-08 -3.516109537e-07 1.645600505e-06 -3.333387755e-07 -9.296534017e-08)
5(-3.154747294e-07 -4.299545551e-07 7.471183486e-07 -2.180006963e-07 -3.081544362e-07)
5(-1.279383877e-07 -4.201911475e-07 6.129232737e-08 -2.802521599e-07 -1.116858117e-07)
5(3.423199153e-06 2.100570347e-05 -2.740060349e-07 -1.359535216e-08 3.330084302e-07)
5(2.486426139e-06 5.637510138e-05 5.952352196e-07 -6.765519314e-08 -6.719612866e-08)
5(-1.983271139e-07 4.147925366e-05 8.928802083e-07 -4.766851097e-07 -2.49858964e-07)
5(-1.929562304e-07 -3.325973002e-07 -4.960665274e-07 -7.935282593e-07 1.008120047e-07)
5(3.3615959e-07 -9.426017461e-08 -6.255570528e-07 -1.486315475e-06 2.281921118e-06)
5(-7.181177024e-07 2.984735972e-07 2.265606023e-06 -2.776475125e-06 7.297028862e-07)
5(-1.012993013e-06 1.008945215e-06 8.905219334e-07 2.821703091e-06 -2.492972451e-06)
5(4.909284146e-07 1.836497302e-06 -3.021240631e-06 4.915735165e-06 -6.615617111e-06)
5(-3.334564799e-06 3.076797222e-06 -9.211635239e-06 8.451763388e-07 -1.445151325e-05)
5(9.628579532e-08 4.036636877e-07 -1.792870874e-05 -1.780536045e-06 -4.776622328e-06)
5(1.251377548e-06 -6.515383752e-06 -3.299620711e-05 -6.411986152e-06 -0.0001001744799)
5(-1.024202823e-06 -5.267276795e-06 -1.974206864e-05 -1.259784293e-05 -0.0001378724707)
5(-9.6768874e-06 -8.998149392e-06 -1.490547458e-05 -5.460794231e-06 -4.348699749e-05)
5(-1.757497716e-05 -2.082052252e-05 -3.180247135e-05 -5.323515997e-05 -0.0001153645224)
5(-2.102408361e-05 -1.248225362e-05 -0.000143542682 -6.713039717e-05 -0.00022027056)
5(-3.882820778e-05 -1.524994849e-05 2.397703662e-05 -5.673679008e-05 -1.625150902e-05)
5(-3.09843387e-05 -5.86298171e-05 0.0002172832708 -0.0002192437812 -2.780690838e-05)
5(1.08366316e-05 -0.0001283009893 0.0001584377232 -0.001800862369 5.008466951e-11)
5(2.651281853e-05 4.970955654e-06 -5.661726827e-05 1.00968532e-10 2.84589731e-10)
5(-6.237430462e-06 0.0001567210258 -0.0003220377108 1.611085234e-10 -7.577254999e-05)
5(-4.067510262e-05 0.0002286448481 -0.0006611927847 1.455451191e-10 -7.41413111e-06)
5(-2.970842558e-05 -1.193475571e-05 -8.18513235e-05 1.837949545e-10 1.765864313e-10)
5(1.449979919e-05 -0.0004197227261 -0.0003918638345 -6.624414584e-06 1.024781251e-10)
5(2.32161714e-05 -3.182107204e-05 -9.708294673e-05 7.065908453e-11 5.194413813e-11)
5(-2.223066202e-05 -1.27194525e-05 -7.330568282e-06 2.689964684e-11 1.840932592e-11)
5(-3.098072907e-05 -6.194922182e-06 -6.506783143e-12 1.442137069e-11 5.849818591e-12)
5(-5.562620063e-05 -5.041056819e-12 2.470458223e-11 5.026766054e-12 6.295345095e-13)
5(-0.0001016227074 4.250092252e-12 3.577215563e-12 2.318571426e-12 4.374994718e-13)
5(-1.178965441e-06 -2.987419134e-11 1.827728875e-12 7.6653081e-13 1.136903409e-13)
5(2.821066707e-12 -2.364286751e-12 -2.234261039e-13 -1.820289401e-14 6.337945374e-15)
5(-2.864693014e-13 -7.444173691e-13 2.950753905e-14 2.137458127e-14 2.351793265e-15)
5(-1.302966898e-10 -1.351875294e-14 7.458882557e-15 -3.427922008e-15 -5.080295757e-15)
5(-3.792521592e-11 -6.915419379e-16 -7.298286094e-16 -3.951197479e-15 -1.051111374e-14)
5(-2.558792327e-12 -8.285581128e-13 -4.302911094e-15 -1.999365058e-14 -8.477623916e-14)
5(-3.963501613e-13 1.053840483e-11 -1.301044767e-12 -4.10312311e-14 -3.463731141e-14)
5(-1.031153571e-15 -3.691710443e-15 2.210237375e-12 -4.095953949e-14 -9.14171502e-14)
)


60
(
5(4.504286075e-06 -4.278177693e-08 -1.827573221e-05 1.11872337e-06 -2.114336827e-05)
5(2.307056171e-05 2.142910997e-05 2.4783463e-05 3.389309527e-05 3.703105138e-05)
5(2.539815654e-05 3.256676968e-05 3.214504827e-05 4.199900591e-05 3.873156447e-05)
5(2.818486623e-05 4.162770341e-05 4.155201205e-05 5.014773272e-05 4.261767475e-05)
5(3.512325958e-05 5.270372864e-05 5.821851413e-05 6.299741064e-05 5.285068313e-05)
5(4.757101288e-05 6.668007391e-05 7.824374759e-05 7.888772444e-05 6.636898886e-05)
5(5.976506017e-05 7.936059763e-05 9.37109406e-05 9.093207829e-05 7.763675944e-05)
5(6.461374993e-05 8.165265522e-05 0.0001003723642 9.263564422e-05 8.058475547e-05)
5(5.553730095e-05 6.132566028e-05 8.586765333e-05 7.238635842e-05 6.702717304e-05)
5(2.762707248e-05 1.105620373e-05 4.021064893e-05 2.069219054e-05 2.988901493e-05)
5(-3.251341204e-05 -6.432289031e-05 -3.781213748e-05 -5.751342602e-05 -3.234573743e-05)
5(-0.0001027738735 -0.0001447072196 -0.0001301305284 -0.0001382943751 -0.000100935988)
5(-0.000170421113 -0.0001984099952 -0.0002011540919 -0.0001860070301 -0.0001445124204)
5(-0.0001989546278 -0.0002092569538 -0.0002219592216 -0.0001895295822 -0.00015086937)
5(-0.0001895913049 -0.000180386566 -0.0001976526016 -0.0001565956652 -0.0001262122851)
5(-0.0001530888012 -0.0001378843511 -0.0001536251239 -0.0001131991638 -9.004926003e-05)
5(-0.0001101511465 -9.803378438e-05 -0.0001057853417 -7.523572532e-05 -5.605968987e-05)
5(-7.957815759e-05 -6.620579484e-05 -7.092427536e-05 -4.959508564e-05 -3.907699726e-05)
5(-5.590820066e-05 -4.674622318e-05 -4.862095343e-05 -3.420455483e-05 -2.549026166e-05)
5(-4.383697198e-05 -3.695438018e-05 -3.676113766e-05 -2.538469613e-05 -1.88451792e-05)
5(-3.146485298e-05 -2.901707712e-05 -2.774092514e-05 -1.980578856e-05 -1.260618845e-05)
5(-2.596820572e-05 -2.357617999e-05 -2.150772682e-05 -1.601285323e-05 -1.405968469e-05)
5(-3.532126852e-05 -2.08255448e-05 -1.869279056e-05 -1.390638025e-05 -1.091753416e-05)
5(-2.696452788e-05 -1.833706555e-05 -1.713771783e-05 -1.391722281e-05 -1.350759041e-05)
5(-2.044289194e-05 -1.80193245e-05 -1.787957594e-05 -1.527049908e-05 -1.270128023e-05)
5(-2.098939894e-05 -1.971699384e-05 -1.973038032e-05 -1.811493019e-05 -1.066277778e-05)
5(-1.680506007e-05 -2.370202187e-05 -2.34860064e-05 -2.277591273e-05 -1.212141758e-05)
5(-2.609194966e-05 -2.879975946e-05 -2.985538294e-05 -2.937828721e-05 -3.264419382e-05)
5(-2.812186281e-05 -3.599483095e-05 -3.880747268e-05 -3.879764758e-05 -2.911050129e-05)
5(-3.553877439e-05 -4.668238108e-05 -5.030996509e-05 -4.991678257e-05 -4.564864408e-05)
5(-3.761929843e-05 -6.114021796e-05 -6.70255958e-05 -6.470168695e-05 -5.247245624e-05)
5(-4.894883305e-05 -7.997987241e-05 -8.458734374e-05 -7.864898096e-05 -5.438503174e-05)
5(-7.243881525e-05 -9.779598501e-05 -0.0001019706645 -9.038997549e-05 -9.004443224e-05)
5(-8.107795878e-05 -0.0001159671853 -0.0001149867033 -9.718059287e-05 -9.200990573e-05)
5(-0.0001320728194 -0.0001308660324 -0.0001198835017 -8.812517621e-05 -5.96824677e-05)
5(-9.551695232e-05 -0.0001295196771 -0.000109047 -5.931211536e-05 -0.0001244066738)
5(-0.0002071507514 -0.0001047296151 -6.706201216e-05 -4.43438731e-06 -0.0001610027207)
5(-6.428982753e-05 -4.98898118e-05 1.375324983e-05 7.359747639e-05 -0.0001538213025)
5(3.509187458e-05 5.952537113e-05 0.0001353378639 0.0001809965356 -7.368967118e-05)
5(3.770314139e-05 0.0001831828354 0.00026778129 0.0002851174986 0.0001452878012)
5(9.191975927e-05 0.0003523548463 0.000413373019 0.0003591217897 -3.685811923e-05)
5(-0.0001683465287 0.0005029430044 0.0004949865518 0.0003642786144 6.647642807e-05)
5(0.000306769614 0.0006009470357 0.0005145174659 0.0002894673067 -0.0001611641827)
5(0.000521687685 0.0006009690918 0.0004155503107 0.0001589166709 -0.000154588538)
5(0.0004653793526 0.0004544510556 0.0002334637113 1.418955431e-05 -0.0001776948365)
5(0.000160951634 0.0002497200424 3.325530031e-05 -8.103579094e-05 -6.038487688e-05)
5(-0.001274756393 -1.464419415e-05 -0.0001380135169 -0.0001143741851 -4.776481552e-05)
5(-0.0009282452845 -0.0002015882179 -0.0002076577717 -9.754659639e-05 -5.028019291e-05)
5(-0.001077504242 -0.0002707196686 -0.0001758370324 -5.92426652e-05 -1.748637396e-05)
5(-0.0004906929748 -0.0002295471341 -0.000105023514 -2.662271806e-05 -7.74703684e-06)
5(-0.0003703097439 -0.0001337104586 -4.606286412e-05 -9.416699344e-06 -3.531618397e-06)
5(-0.000259254394 -5.661671833e-05 -1.52391862e-05 -2.620359632e-06 -5.76380521e-07)
5(-0.0001258772819 -1.732756976e-05 -3.885736653e-06 -6.022394644e-07 -2.637547074e-07)
5(-3.137559145e-05 -3.484352354e-06 -6.865950509e-07 -1.156896653e-07 -1.4862052e-08)
5(-3.812995041e-06 -5.589209654e-07 -9.906501139e-08 -1.853729551e-08 6.40254117e-10)
5(-8.881852971e-08 -4.292496575e-08 -1.111210309e-08 -2.209026847e-09 -2.75737076e-10)
5(-8.243419859e-09 -3.466841997e-09 -5.527939365e-10 -3.089996355e-10 -4.840246289e-11)
5(-3.512846819e-10 -1.441154401e-09 -1.951550033e-11 -2.592439192e-08 5.246623004e-13)
5(1.283558686e-12 -5.126768613e-08 -3.670761948e-10 -2.259689202e-08 -5.058522312e-12)
5(-1.650025542e-14 3.797340965e-11 -3.410847901e-05 -1.06610586e-10 -4.308025254e-13)
)


60
(
5(8.832634495e-06 4.797411115e-06 -3.075503136e-05 -2.243807167e-06 -0.0001223843495)
5(8.05708121e-05 8.219657488e-05 9.27815246e-05 0.0001047539384 7.616363995e-05)
5(0.0001028316795 0.0001239220219 0.0001255742594 0.000134170197 0.0001035131073)
5(0.0001198312393 0.0001546542208 0.000153188249 0.0001516415151 0.0001113467205)
5(0.0001498800796 0.0001885636322 0.0001921533223 0.0001754748594 0.0001258129301)
5(0.000189414874 0.0002279013989 0.0002368709775 0.0002064145534 0.0001491320034)
5(0.0002259900763 0.0002615081017 0.0002735494174 0.000231240034 0.0001742824824)
5(0.0002408810633 0.0002653389158 0.0002849750007 0.0002380231304 0.0001892549682)
5(0.0002099099925 0.0002048868041 0.00024581206 0.0001984545078 0.0001757120846)
5(9.69341471e-05 4.748116396e-05 0.0001216456623 8.798071424e-05 0.000111085521)
5(-0.0001275247299 -0.0002023224865 -9.754419152e-05 -9.675246705e-05 -9.512165678e-06)
5(-0.0004099647623 -0.0004988257639 -0.0003783621116 -0.0003105341688 -0.0001619678595)
5(-0.0006949362798 -0.0007446496353 -0.000633257419 -0.0004863824472 -0.0002958520329)
5(-0.0008880368634 -0.0008501138611 -0.0007678431687 -0.0005580732426 -0.0003655220652)
5(-0.0008897988079 -0.0008066258279 -0.0007435033907 -0.0005259755816 -0.0003438680817)
5(-0.0007641755144 -0.0006576881488 -0.0006170250624 -0.0004222900677 -0.0002827760184)
5(-0.000600887002 -0.0004951802382 -0.0004613318357 -0.0003072392966 -0.0002061083661)
5(-0.0004398603201 -0.0003501969524 -0.0003313901631 -0.0002142640818 -0.0001459484359)
5(-0.0003217186226 -0.000249881334 -0.0002321482479 -0.0001509613437 -0.0001022356081)
5(-0.0002339858293 -0.0001827011727 -0.0001643396518 -0.0001106894091 -7.548870124e-05)
5(-0.0002166984174 -0.0001435051609 -0.0001224028712 -8.525924e-05 -5.812106703e-05)
5(-0.0001442307305 -0.0001147098265 -9.641149947e-05 -6.680384737e-05 -3.705127329e-05)
5(-0.0001587305121 -9.585564616e-05 -7.99420483e-05 -5.53796159e-05 -3.754081817e-05)
5(-9.724867495e-05 -8.207780499e-05 -6.910839375e-05 -5.013038967e-05 -3.488863714e-05)
5(-0.0001137266143 -7.382498378e-05 -6.329656049e-05 -4.918322934e-05 -3.7465638e-05)
5(-8.574363051e-05 -7.050211347e-05 -6.324172041e-05 -5.406809789e-05 -4.83823741e-05)
5(-7.786584695e-05 -7.285617207e-05 -6.942803238e-05 -6.194810813e-05 -4.5184346e-05)
5(-0.0001057937148 -7.863034695e-05 -7.847161924e-05 -7.596167382e-05 -7.477663208e-05)
5(-8.435579915e-05 -9.14828211e-05 -9.497412907e-05 -9.473254633e-05 -7.711169086e-05)
5(-0.000102187371 -0.00010992986 -0.0001200456997 -0.0001202649467 -9.70249173e-05)
5(-0.0001134221285 -0.0001345498202 -0.0001495440232 -0.0001501597863 -0.0001288693036)
5(-0.0001413130741 -0.0001686461577 -0.0001843235285 -0.0001839890444 -0.0001539294043)
5(-0.0001580071226 -0.0002049321196 -0.0002223306115 -0.0002199835235 -0.0001647179771)
5(-0.0001563176844 -0.0002402343191 -0.0002568341736 -0.0002336010703 -0.0002430343016)
5(-0.0002258126222 -0.0002667752868 -0.00027703739 -0.0002269581749 -0.0002034052369)
5(-0.0004642607626 -0.0002739603365 -0.0002587155436 -0.0001841031998 -3.544312458e-05)
5(-0.0006269372746 -0.0002334253293 -0.0001910903949 -8.499671656e-05 -0.0002570283677)
5(-0.0003131336199 -0.0001370645968 -4.850015274e-05 8.202969651e-05 6.71111135e-05)
5(-0.0003190938588 2.037559022e-05 0.0001970106971 0.0003155035943 0.0002541696815)
5(-0.0001901580772 0.0002749327978 0.0004871293964 0.0005829691272 0.000155921761)
5(-0.0001559108435 0.0006270316911 0.0008066386031 0.0008372884764 0.00037650086)
5(0.0003326057059 0.0009636694763 0.001118082981 0.001012599099 0.000480590365)
5(0.0006518953074 0.001253750025 0.001305362935 0.00103251805 0.000292685795)
5(0.0009115466545 0.001375914206 0.001241526838 0.0008112970574 -0.0003352709033)
5(0.00076629247 0.001280680991 0.0009483281425 0.0004621392822 -0.0001526252907)
5(0.001223951335 0.000916504075 0.0005122923258 8.952281502e-05 -0.0001602800866)
5(0.0006930972993 0.0003899952341 6.654970041e-06 -0.0002138174428 -0.0004667588234)
5(0.0002736519297 -0.0001131924489 -0.0003434691369 -0.0003431223839 -0.0002877165667)
5(-0.0009553843356 -0.0004439624522 -0.0004875442727 -0.0003091762595 -0.0001889370729)
5(-0.0007541964578 -0.0005569134953 -0.0004173102915 -0.0002106634149 -0.0001102700364)
5(-0.0007486015752 -0.000450011804 -0.0002619559765 -0.0001069560144 -2.467282388e-05)
5(-0.0001936080569 -0.0002628328989 -0.0001209391905 -3.969836693e-05 -1.250816783e-05)
5(-4.972171053e-05 -0.000112047228 -4.040534023e-05 -1.13851696e-05 -2.626028838e-06)
5(-9.055758327e-05 -3.204094244e-05 -9.047767952e-06 -2.257394358e-06 -5.638861767e-07)
5(-1.489992556e-05 -6.096406396e-06 -1.484168643e-06 -3.788842017e-07 -7.614207213e-08)
5(-8.419016535e-06 -7.244150889e-07 -1.423881904e-07 -4.373746891e-08 -1.101985004e-08)
5(-5.121914958e-07 -2.724473967e-08 -9.835274308e-09 2.53688845e-09 -8.231978876e-10)
5(-1.268465421e-08 1.316202719e-06 -2.542334608e-09 1.261688196e-06 -1.354618807e-10)
5(3.416653536e-08 -0.0002653793624 -8.751380306e-09 -0.000145023786 -3.266698986e-08)
5(-4.250050159e-14 -2.453693755e-08 -6.094388708e-05 3.178792382e-08 -9.226878873e-13)
)


60
(
5(8.42085921e-06 6.671393788e-06 -8.546020262e-05 -8.290595277e-05 -0.000391013175)
5(0.0001991731798 0.0002070503662 0.0002167298795 0.000201590608 8.206255394e-05)
5(0.000273902422 0.0003138605157 0.000303771852 0.0002786876958 0.0001716658173)
5(0.0003270714046 0.0003822241219 0.0003623266726 0.0003111881493 0.0001975595601)
5(0.0003959303071 0.0004512182783 0.0004294400708 0.0003489375868 0.0002274852751)
5(0.0004863402552 0.0005291757612 0.0005031993819 0.0003994668788 0.0002741687115)
5(0.0005675912181 0.0006006641144 0.0005708108362 0.0004546713075 0.0003288040866)
5(0.0006030953378 0.000617614532 0.0006058575672 0.0004870769215 0.0003710504654)
5(0.0005263741527 0.0005069817685 0.0005499482751 0.0004475146954 0.0003738609581)
5(0.0002771586304 0.0002058401062 0.0003347855022 0.0002843818917 0.0002960769695)
5(-0.000203997658 -0.0003262708806 -8.816292618e-05 -2.46438123e-05 0.0001170193398)
5(-0.0009172290781 -0.001000164735 -0.0006617931755 -0.0004355017256 -0.0001502103549)
5(-0.001672123108 -0.001638613245 -0.001229528411 -0.000833019255 -0.0004147367704)
5(-0.00226254029 -0.002032041128 -0.001623252088 -0.001086259497 -0.0006088829843)
5(-0.002407031118 -0.002096220063 -0.001715554782 -0.001140352907 -0.0006633811784)
5(-0.002251805808 -0.00189926459 -0.00155409691 -0.001018214344 -0.0006142548127)
5(-0.001850544752 -0.001507530626 -0.001241289378 -0.0008037882396 -0.0004861056366)
5(-0.001406554832 -0.001100462429 -0.0009145290215 -0.0005904408595 -0.0003760341326)
5(-0.001009271914 -0.0007926817781 -0.0006603569259 -0.0004210265653 -0.0002644998726)
5(-0.0007933728346 -0.0005852764496 -0.0004795766646 -0.0003062658386 -0.000190873663)
5(-0.0006273062482 -0.0004374218328 -0.0003570263728 -0.0002323696648 -0.000149077111)
5(-0.0003733976526 -0.000343206576 -0.0002793488238 -0.0001824333634 -9.071169569e-05)
5(-0.0002803155399 -0.0002751599838 -0.0002238721315 -0.0001487074654 -0.0001017537471)
5(-0.0003215280303 -0.0002292109809 -0.0001881002137 -0.000128024726 -9.716797871e-05)
5(-0.0002199776326 -0.0002005451153 -0.0001653871721 -0.0001188059913 -8.747155281e-05)
5(-0.0002222019505 -0.0001818343844 -0.0001528849359 -0.000118565062 -0.0001005266241)
5(-0.0001883668634 -0.0001734029993 -0.0001536221715 -0.0001283217471 -0.000125980309)
5(-0.000268091559 -0.000175376657 -0.0001640552712 -0.0001470698861 -0.0001217712301)
5(-0.000213865542 -0.0001892450381 -0.0001859950668 -0.0001782405066 -0.0002208716675)
5(-0.0002054833476 -0.000214625492 -0.0002215770462 -0.0002189083475 -0.0002007838493)
5(-0.000253539298 -0.0002506230959 -0.0002708608597 -0.0002712557826 -0.0002979572459)
5(-0.0002667932299 -0.0003015818645 -0.000332158893 -0.0003310193523 -0.0003019412308)
5(-0.000284820432 -0.0003578312229 -0.000398122497 -0.0003983762207 -0.0003775373002)
5(-0.0003607011031 -0.0004248383204 -0.0004609436203 -0.0004414368948 -0.000370378477)
5(-0.0004077943525 -0.0004871518491 -0.0005115069886 -0.000461082262 -0.000636775907)
5(-0.0005217475569 -0.0005262197853 -0.0005103050506 -0.0004306645547 -0.0003746037104)
5(-0.0005539750019 -0.0004964001387 -0.0004510969429 -0.0003030561668 -0.0002858875586)
5(-0.0004885990156 -0.0004050924516 -0.0002611553914 -7.199947758e-05 -0.0006093352453)
5(-0.0002707418387 -0.0001796021337 5.071175047e-05 0.0002800731818 0.0002575877399)
5(-0.0001172039714 0.000191290648 0.0004811859795 0.0007508867533 -0.0001861091108)
5(-0.0001031751108 0.0006457639332 0.00104878808 0.001259931253 0.000816644573)
5(0.0004023900499 0.001200661131 0.001624052215 0.001693051489 0.001416505156)
5(0.0007414094826 0.001757104021 0.002059973999 0.001913644901 0.0007122434835)
5(0.0009884691852 0.002174570739 0.002247443675 0.001831334912 4.747649372e-05)
5(0.001621334063 0.00225237008 0.002109660938 0.001385547468 -0.0005121138796)
5(0.001616276631 0.001976632351 0.001530945045 0.0007574110477 0.0004559595922)
5(0.001583820985 0.00151998358 0.0006835341972 0.000100703142 -0.0006919071663)
5(0.0002728862374 0.0006001271426 -1.968803256e-05 -0.000449242478 -0.0005381602264)
5(3.986695903e-05 -0.0002623454844 -0.0005788642006 -0.000664112798 -0.0006520648139)
5(-0.0003217841661 -0.000726648244 -0.0008185896355 -0.000611547992 -0.0005463144839)
5(-0.001067436062 -0.0007909141535 -0.0006710033955 -0.0003980452829 -0.0003479808245)
5(-0.001513535867 -0.000632004295 -0.0004006827568 -0.0001935466027 -6.599392897e-05)
5(-0.0005783318249 -0.0003476209049 -0.0001720589099 -7.112534746e-05 -2.456344665e-05)
5(-0.000629705313 -0.0001328291154 -5.01148914e-05 -1.840006289e-05 -2.654566752e-06)
5(-0.0001074191936 -3.306504519e-05 -9.431283497e-06 -3.199392657e-06 -5.948460672e-07)
5(-4.722971512e-05 -4.599141259e-06 -1.177057034e-06 -3.667609115e-07 -6.205671509e-08)
5(-1.781297713e-06 -4.291361545e-07 -6.144810146e-08 -6.384691141e-08 -5.932783361e-09)
5(-1.956971186e-07 -5.359721836e-06 5.93755012e-08 -8.14115967e-06 8.271046041e-10)
5(4.370774368e-08 0.001162792862 -1.082507717e-05 0.001261354029 2.696759626e-07)
5(4.358682999e-09 177.7620421 2.561659374e-08 177.8808171 -1.867078085e-10)
)


60
(
5(-8.645257163e-06 -1.214055322e-05 -0.0002454306916 -0.0003468658372 -0.0009152645547)
5(0.0004038985258 0.0004219431511 0.0003928049264 0.0002881362164 9.389318047e-06)
5(0.0005840579759 0.0006404605727 0.0005809149281 0.0004675850659 0.0002292453802)
5(0.0006976843799 0.0007578575128 0.0006836460757 0.0005347171413 0.0003056939332)
5(0.0008252782233 0.0008675195046 0.0007861114649 0.0005960213796 0.0003718308076)
5(0.000982924323 0.001004476027 0.000897498908 0.000684101937 0.0004628550253)
5(0.001122763628 0.00112950693 0.001016771752 0.0007873834146 0.0005686563218)
5(0.00119737771 0.00119049001 0.001101345013 0.0008751935189 0.0006562407874)
5(0.001095932067 0.001049730867 0.001051900065 0.0008679384163 0.0006964807227)
5(0.00066781829 0.0005742839477 0.0007647582969 0.0006792490568 0.0006148774198)
5(-0.000188810588 -0.0002785095563 0.0001406379691 0.0002456590628 0.0003909454821)
5(-0.001448241771 -0.001480927757 -0.0007848821102 -0.0004002704627 -2.136093042e-06)
5(-0.002950255925 -0.002724631907 -0.001833322266 -0.001108348394 -0.0004525271703)
5(-0.004241340158 -0.00367099988 -0.002659850131 -0.001678332627 -0.0008542768915)
5(-0.00488939606 -0.004054382852 -0.003083280252 -0.001950060344 -0.001071955046)
5(-0.004830693718 -0.003883368896 -0.003019235876 -0.001890224139 -0.001097655523)
5(-0.004203283929 -0.003306679152 -0.002582517166 -0.001614624023 -0.0009300130022)
5(-0.003295522194 -0.00256831931 -0.002021707517 -0.001274169425 -0.0007712318147)
5(-0.002522366472 -0.001925495458 -0.001519892847 -0.0009586357291 -0.0005790922518)
5(-0.001868547825 -0.001410184246 -0.001113515468 -0.0007125404084 -0.0004457197399)
5(-0.001378193748 -0.001053860383 -0.0008291063951 -0.0005323229993 -0.0003170989288)
5(-0.001101361646 -0.0008100269118 -0.0006322005753 -0.0004132200183 -0.0002499683679)
5(-0.0009106262984 -0.0006428354735 -0.0005032605449 -0.0003336358653 -0.0002479077426)
5(-0.0008074552585 -0.0005182922093 -0.0004122716595 -0.0002792366319 -0.0001460472611)
5(-0.0005193967297 -0.0004350045448 -0.0003483945235 -0.0002458401427 -0.0001761629353)
5(-0.0006197911771 -0.0003901073761 -0.0003122069025 -0.0002307344893 -0.0001860718299)
5(-0.0004404846129 -0.0003523224791 -0.000298560318 -0.0002347073655 -0.0001601018466)
5(-0.0003831533384 -0.0003387004176 -0.0003002403694 -0.0002529979174 -0.0002027989001)
5(-0.000303521192 -0.0003435328762 -0.0003202972377 -0.0002925389914 -0.0002437404117)
5(-0.000483684351 -0.00036797394 -0.0003624695127 -0.0003502229468 -0.0003290322608)
5(-0.0004661090367 -0.0004157673618 -0.0004288389218 -0.0004217079394 -0.0003966744437)
5(-0.00040883811 -0.0004714366667 -0.0005045490204 -0.0005175398201 -0.0006103457371)
5(-0.0004768262582 -0.0005500717833 -0.000602488523 -0.0006217928422 -0.0005114856532)
5(-0.000555604806 -0.0006515484686 -0.0007167085054 -0.0007186060554 -0.0006492065139)
5(-0.0007203101502 -0.000745606996 -0.0007947076406 -0.0007764664286 -0.0007347823683)
5(-0.0007899171901 -0.0008275435272 -0.0008358023189 -0.0007653001302 -0.0006564852921)
5(-0.0008669757473 -0.0008383752957 -0.0008099421955 -0.0006397437124 -0.0005081952754)
5(-0.0009968487052 -0.0007601134526 -0.0006447982416 -0.0003854575196 -0.0003067724989)
5(-0.0009061691678 -0.0005777346934 -0.0003125190529 6.269354384e-05 3.95990716e-05)
5(-0.0006773649952 -0.0001851540786 0.0002656315672 0.0007130648994 0.0009063123123)
5(-0.0001127759025 0.000377188945 0.00100454743 0.00145597016 0.0007697301389)
5(0.000397290792 0.001140855322 0.001849766736 0.002236998292 0.0006882568394)
5(0.0007451081558 0.001962423675 0.00267674563 0.002848429048 0.002097666434)
5(0.001201591817 0.002652945916 0.003227162721 0.003040743403 0.002198622029)
5(0.001210078282 0.003145780009 0.003390045782 0.002790268686 0.001714306272)
5(0.002700444219 0.003141382472 0.002835225713 0.002014474215 -2.750536082e-05)
5(0.002104116156 0.002631555819 0.001829839134 0.001113864064 -0.0007641890758)
5(0.002051346997 0.001664786186 0.0006158558016 -2.791955104e-05 -0.001191846699)
5(0.001778107925 0.0005109376943 -0.0004500655441 -0.000804817683 -0.001516975595)
5(0.0006589470886 -0.0003829274175 -0.001075183106 -0.001023373106 -0.0005516468106)
5(-0.0007515454196 -0.0008974311722 -0.001176373789 -0.0008818050244 -0.0004154236139)
5(-0.002971832742 -0.001106512169 -0.0008857602454 -0.000549608816 -0.000154053095)
5(-0.002151793267 -0.0008030770386 -0.0004769135675 -0.0002572619073 -0.0001709452898)
5(-0.001908363548 -0.0004164528752 -0.0001864053243 -8.623357982e-05 -2.776352505e-05)
5(-0.0005766566186 -0.0001488931108 -4.893724641e-05 -1.842887318e-05 -4.645671894e-06)
5(-0.0003361184626 -3.340165741e-05 -7.465674191e-06 -2.591699345e-06 -8.874209121e-07)
5(-7.182418983e-05 -3.225407137e-06 -4.603381781e-07 -2.450883652e-07 -3.912151997e-08)
5(-4.142081818e-06 -4.196515305e-06 -6.896918309e-09 -4.76524843e-06 -1.995348819e-09)
5(4.421050527e-07 0.0005850528345 2.506331641e-08 0.0003618451927 1.384250562e-07)
5(5.059399285e-07 -3.284891788e-07 -0.0001596984437 -1.811387217e-07 1.118139258e-10)
)


60
(
5(-5.659806991e-05 -8.558160254e-05 -0.0006001708689 -0.0009325851886 -0.001792843717)
5(0.0007177835269 0.0007411051936 0.000597324337 0.0003120830495 -0.0001775194071)
5(0.001067101006 0.001125201861 0.0009597871168 0.0006797802566 0.0002642512556)
5(0.001270690683 0.001314936753 0.001132938244 0.0008183063885 0.0004335102198)
5(0.001477150685 0.001471686441 0.001269814419 0.0009295736693 0.0005746445122)
5(0.00170641193 0.001657525813 0.001434109765 0.001084345291 0.0007361238848)
5(0.001937663213 0.001855287127 0.001624303667 0.001262231857 0.0009225899612)
5(0.002062684722 0.001987807294 0.001787604497 0.001435090897 0.001070579947)
5(0.001960778232 0.001876670058 0.001792459483 0.001499054567 0.001162169929)
5(0.00135256514 0.001302617721 0.001484150215 0.00131742165 0.001104921515)
5(0.0001260563707 0.0001043137901 0.0006805008656 0.0007864710001 0.0008338237122)
5(-0.001953336888 -0.001676954423 -0.0006360181468 -0.0001100469792 0.0003087389654)
5(-0.004345660621 -0.003716666105 -0.002234775193 -0.001199790231 -0.0003653995891)
5(-0.006727242373 -0.005548859302 -0.003711767363 -0.002204676258 -0.001041430156)
5(-0.008123949782 -0.006650838652 -0.004654122167 -0.002859540287 -0.001480044285)
5(-0.008441547063 -0.006762840171 -0.004912112477 -0.003059365692 -0.00168957013)
5(-0.007765792191 -0.006045295888 -0.004539127643 -0.002810941264 -0.001550703801)
5(-0.006689056118 -0.004913773095 -0.003762648389 -0.002333520096 -0.001374605193)
5(-0.005269140091 -0.003795501558 -0.002909770589 -0.001817618562 -0.001029352042)
5(-0.003727896295 -0.002868718519 -0.002186439568 -0.001380678173 -0.0008791917577)
5(-0.002809854288 -0.00214545306 -0.001636489311 -0.001050306145 -0.0006679897681)
5(-0.002166590496 -0.001635227123 -0.001246184277 -0.000819222071 -0.0004559115953)
5(-0.001789388849 -0.001280460425 -0.0009776925607 -0.0006491728571 -0.0003712841656)
5(-0.001304313808 -0.001035774616 -0.0007922410303 -0.0005329471065 -0.0003107101838)
5(-0.00109520939 -0.0008619239667 -0.0006615620962 -0.0004611792141 -0.000235921928)
5(-0.0009715737833 -0.0007389336865 -0.0005797499933 -0.0004167288254 -0.0002725659541)
5(-0.0009851538754 -0.0006536044764 -0.000530420319 -0.0004003270599 -0.0002827186649)
5(-0.0008421620825 -0.0006068823706 -0.0005123025688 -0.0004114068322 -0.0003619964974)
5(-0.0006389727222 -0.0005850232906 -0.000519380917 -0.0004488873581 -0.0003636330343)
5(-0.00070793298 -0.0005935427264 -0.0005618982355 -0.0005138439698 -0.00045279151)
5(-0.0006129594139 -0.0006358320006 -0.0006354459542 -0.0006135024255 -0.000560151643)
5(-0.0007313548772 -0.0007077818853 -0.0007403184468 -0.0007282271696 -0.0007079078351)
5(-0.0008187170531 -0.000812333982 -0.0008740895674 -0.0008682998666 -0.0008393548095)
5(-0.0008116191771 -0.0009254707949 -0.001013516516 -0.001011988157 -0.0005826504608)
5(-0.0009516174576 -0.001053420741 -0.001148984371 -0.001126060048 -0.001035657534)
5(-0.0009902831413 -0.001179602396 -0.001243778521 -0.001177951499 -0.001189523547)
5(-0.00136261318 -0.00126377694 -0.001269198056 -0.001125812564 -0.0009213421788)
5(-0.001359478082 -0.001281270211 -0.001155198092 -0.0008742624983 -0.0005045315418)
5(-0.001325170019 -0.001118644885 -0.0008210961352 -0.0003977038607 -0.0004645359123)
5(-0.0009756947659 -0.0007308638695 -0.0002570524165 0.0003414569247 0.0001291061109)
5(-0.0005235978006 -0.0001558675009 0.0006167267222 0.001299200673 0.001180379651)
5(-0.0003401179193 0.0006864569549 0.001677892176 0.002465382113 0.001813786951)
5(0.0001946521333 0.001728274178 0.002887023189 0.003536621355 0.002872730812)