/*--------------------------------*- C++ -*----------------------------------*\
| =========                 |                                                 |
| \\      /  F ield         | OpenFOAM: The Open Source CFD Toolbox           |
|  \\    /   O peration     | Version:  2.3.1                                 |
|   \\  /    A nd           | Web:      www.OpenFOAM.org                      |
|    \\/     M anipulation  |                                                 |
\*---------------------------------------------------------------------------*/
FoamFile
{
    version     2.0;
    format      ascii;
    class       dictionary;
    location    "constant";
    object      la_r12;
}
// * * * * * * * * * * * * * * * * * * * * * * * * * * * * * * * * * * * * * //

la_r12_table
60
(

60
(
5(-0.7778007279 -0.2212975648 -1.772449417 -1.470841649 -3.238230311)
5(-0.1890100546 -0.05516242746 -0.6347846746 -0.5450834322 -0.2185084672)
5(-0.161012211 -0.1127982247 -0.2184826902 -0.1771356685 -0.0005005314198)
5(2.94237599 -0.1335517715 -0.2290251065 -0.04586653649 -0.2917516444)
5(2.963925398 -0.1175721953 -0.2270045195 -0.1656280647 -0.1808872969)
5(0.4909732279 -0.1035714079 -0.07619033584 -0.1830631924 -0.1363395365)
5(-0.1206374208 -0.09638460071 -0.1070029388 -0.1222059444 -0.3340244062)
5(-0.05479247067 -0.1045945594 -0.2032662989 -0.1727047978 -0.09572256668)
5(-0.8675977038 -0.1273025637 -0.1961845413 -0.2092028684 -0.196900724)
5(-1.534971032 -0.1775971081 -0.3009040464 -0.2208124797 -0.2641964709)
5(-1.993342698 -0.2223222086 -0.3393207754 -0.273105411 -0.3207558631)
5(-0.7524933404 -0.2145699869 -0.3170942318 -0.3163541661 -0.3405479249)
5(-0.1474378159 -0.2597706594 -0.3459041835 -0.4256972474 -0.4428925666)
5(-0.2162383475 -0.317976128 -0.4276369335 -0.4385989698 -0.4923072282)
5(-0.2160637733 -0.3532049912 -0.4762937605 -0.5752346238 -0.591911457)
5(-0.3651654284 -0.5630261705 -0.6529045761 -0.74905177 -0.749837121)
5(-0.4328424796 -0.6257335524 -0.8074889734 -0.8775548896 -0.9545562259)
5(-0.4313164686 -0.6897717915 -0.8681965106 -1.080129315 -1.186883499)
5(-0.4473686929 -0.7564204182 -1.030988879 -1.266562787 -1.509889868)
5(-0.5635700812 -0.9111936949 -1.283304225 -1.641184561 -1.752759441)
5(-0.6515931337 -1.016887653 -1.421643259 -1.875349012 -1.946400999)
5(-0.7685462961 -1.162446373 -1.720923275 -1.813296452 -1.987678915)
5(-0.9488272878 -1.371609261 -1.940017209 -2.290622682 -2.492704164)
5(-1.063788724 -1.663151613 -2.199046159 -2.579782927 -2.750147256)
5(-1.270431556 -1.968011994 -2.532470363 -3.006439994 -3.16533329)
5(-1.450734708 -2.3137991 -3.003640344 -3.529617481 -3.435294313)
5(-1.653866126 -2.446758109 -3.131091876 -3.920483721 -3.717944963)
5(-1.817927214 -2.505524064 -3.530032257 -4.263451314 -3.928478415)
5(-2.144252291 -2.814260382 -3.704796234 -4.411418858 -4.169508582)
5(-2.387027778 -3.162866996 -3.905458759 -4.340603694 -4.173805523)
5(-2.714535619 -3.490145141 -4.297850949 -4.748828759 -4.362076059)
5(-2.971455278 -3.641510662 -4.293490711 -4.520471813 -3.674261678)
5(-3.149728772 -3.84359117 -4.471591656 -4.506903283 -4.210893257)
5(-3.370014384 -4.034193192 -4.730955809 -4.421578486 -3.539585728)
5(-3.542773709 -3.965981236 -4.534685073 -4.2716315 -2.450479461)
5(-3.552211087 -4.059592894 -4.977926162 -4.235331471 -1.844841772)
5(-3.494828191 -3.56463543 -4.010677063 -3.66507704 -3.183198147)
5(-3.196724028 -3.37251561 -3.631480012 -3.68187437 -1.64297997)
5(-2.875306766 -2.954731835 -3.396958512 -3.25544157 -2.400744413)
5(-2.613152994 -2.636177376 -3.585834469 -3.833192651 0.4530276018)
5(-2.2344923 -2.3174525 -3.301471417 -2.575227911 0.803416247)
5(-1.844460104 -2.2557681 -3.331009633 2.896344217 -0.006896539526)
5(-1.817585007 -2.301225274 -3.476163066 -0.005002301366 -0.006670954923)
5(-2.039888657 -2.500477837 -4.727125446 -0.006974439654 -0.01702841652)
5(-2.735922333 -2.711144838 -4.919173817 -0.005754734312 -0.0331108451)
5(-3.180767163 -3.317453734 -3.582506063 -0.007923735387 -0.01088824362)
5(-3.759405351 -5.255456966 -9.080570481 -0.05333724978 -0.01181922102)
5(-6.255589003 -2.538826043 -0.6223197326 -0.01114481191 -0.01437196735)
5(-4.348101627 -2.367186277 -0.04536135196 -0.01309674305 -0.01848149385)
5(-5.958581011 -0.8804529247 -0.01072214804 -0.01152392015 -0.019019056)
5(-15.97706507 -0.00566917372 -0.006265900318 -0.01504768755 -0.02523662425)
5(-29.45607382 -0.005425320516 -0.008560388469 -0.01345932623 -0.02244313349)
5(-2.954403671 -0.026565935 -0.006044322177 -0.01169851478 -0.01938096041)
5(-0.001987280803 -0.01507506393 -0.0159048751 -0.01972514375 -0.02640111198)
5(-0.003913152575 -0.02251392624 -0.009787005557 -0.01284556689 -0.01853088115)
5(-6.324116898 -0.009795924657 -0.005783861906 -0.02163732593 -0.01271755353)
5(-27.73433323 -0.008184333382 -0.005153321233 -0.01055739798 -0.01220666554)
5(-46.77912206 -10.33702992 -0.01442667769 -0.040944281 -0.1323285076)
5(-48.96802686 -27.91300176 -11.35434568 -0.04673342621 -0.6913727231)
5(0.05006771408 0.08816148256 0.1175725584 0.1508015236 0.1826509369)
)


60
(
5(-1.621449317 -1.570094418 -4.341216697 -4.729848985 -9.319900533)
5(-1.131220307 -1.429404116 -2.589600577 -3.223325952 -4.699956107)
5(-0.9414577133 -1.407248279 -1.989647567 -2.705978393 -3.169080124)
5(-0.9205498125 -1.463663709 -1.931007904 -2.706802026 -2.987724222)
5(-1.041283734 -1.610408314 -2.197033822 -2.998343082 -3.546200383)
5(-1.213135546 -1.825785095 -2.621255202 -3.457505476 -4.405400135)
5(-1.381963879 -2.089904586 -2.993149201 -3.987479007 -5.048850726)
5(-1.589908141 -2.405276765 -3.372324389 -4.559168417 -5.802405839)
5(-1.824878415 -2.786441575 -3.852371097 -5.246957631 -6.513625328)
5(-2.144549803 -3.268144593 -4.462938055 -6.149410137 -7.527461325)
5(-2.530623312 -3.868661021 -5.279514554 -7.255990939 -8.85753999)
5(-2.999717897 -4.595609539 -6.319021991 -8.587322563 -10.51068413)
5(-3.569495803 -5.475373311 -7.537836476 -10.13551572 -12.33295847)
5(-4.253178272 -6.52015343 -8.952593616 -12.01075071 -14.45920232)
5(-5.097641757 -7.771864511 -10.62237141 -14.1187332 -16.88606029)
5(-6.105784914 -9.253549955 -12.58410175 -16.57970432 -19.66708193)
5(-7.303185054 -10.98423723 -14.89102474 -19.42972472 -22.8250603)
5(-8.717141911 -13.00963783 -17.54424137 -22.63836595 -26.37798661)
5(-10.39275386 -15.32391616 -20.57762696 -26.29005234 -30.32674764)
5(-12.32249438 -17.95233603 -23.95954286 -30.25944075 -34.67621249)
5(-14.5794728 -20.98912683 -27.81076355 -34.64648599 -39.2518529)
5(-17.14249554 -24.35940507 -31.96478507 -39.52829259 -44.18430654)
5(-19.9995217 -28.04497548 -36.49631584 -44.32621971 -49.0202638)
5(-23.3092017 -32.04542244 -41.36255171 -49.37674292 -53.98035773)
5(-26.91264661 -36.37309348 -46.3737988 -54.46198144 -58.75996288)
5(-30.92689727 -41.02993744 -51.57658634 -59.51377842 -63.47028955)
5(-35.27857864 -45.87707411 -57.09919812 -64.53779409 -67.77617512)
5(-39.97801806 -50.93112994 -62.31843052 -69.27504331 -71.50357239)
5(-44.84828976 -56.02024545 -67.74200066 -73.742321 -74.88754312)
5(-50.0776879 -60.93434698 -72.83280889 -78.02980196 -77.56153658)
5(-55.36406919 -65.68820298 -77.21468214 -80.92765218 -79.3781524)
5(-60.76095464 -70.36918477 -81.40399197 -84.01360917 -81.61050424)
5(-66.05541023 -74.23517057 -84.42266491 -85.41776817 -80.06983275)
5(-70.86494359 -77.15430324 -85.92233796 -85.87586414 -80.18762173)
5(-74.85908135 -79.39442335 -86.87367279 -84.69049754 -77.60148872)
5(-78.22774497 -79.42872443 -84.51480607 -81.85030683 -73.61392896)
5(-79.76819918 -79.44757609 -84.25779903 -78.6378899 -68.72809756)
5(-80.26648236 -76.28881619 -80.21565589 -73.01752044 -67.34384622)
5(-78.55211784 -71.98729369 -74.12368217 -67.83641478 -57.83179386)
5(-74.25354655 -66.45550083 -66.66988709 -61.26936125 -61.87618663)
5(-69.49593343 -61.07858956 -61.5780397 -56.41233341 -53.71483255)
5(-64.24197865 -55.99067215 -57.27861205 -56.38593894 -47.61136058)
5(-59.72704312 -52.9967202 -55.20743166 -60.83083838 -43.20121284)
5(-56.54476619 -50.92907067 -50.95476917 -56.72555933 -40.22464279)
5(-56.2402964 -52.6898319 -53.68189579 -54.19205771 -38.24814405)
5(-60.60450108 -56.30945914 -57.10278486 -51.98705207 -35.79120909)
5(-68.12119788 -62.36243631 -69.29358284 -49.57698775 -32.72391188)
5(-77.40524222 -70.23338978 -70.71396781 -46.20811682 -29.37656798)
5(-80.83643179 -68.33870834 -66.51084846 -41.83512248 -25.81992302)
5(-84.98230109 -80.56195751 -60.24524977 -36.79140246 -22.96938836)
5(-82.01766353 -73.9449652 -53.04207669 -32.14416367 -20.92212063)
5(-89.04192736 -64.78918223 -46.37468213 -28.02353456 -18.63334034)
5(-77.0608338 -54.22747099 -39.4466179 -24.95291962 -18.78260942)
5(-62.29048359 -46.72233901 -33.2288006 -22.05878638 -16.21150842)
5(-52.32934775 -36.40907054 -28.44070685 -19.58780012 -15.55008756)
5(-38.39779768 -29.78875513 -24.55242593 -17.956021 -14.8242803)
5(-27.53905414 -23.95537097 -20.36272862 -16.48220925 -15.19469668)
5(-13.06484493 -18.06578917 -17.36506073 -15.82279449 -13.94701467)
5(-28.8559667 -17.18568752 -6.431691722 -10.04876945 -14.59269674)
5(-1.639029058 -2.905334715 -44.37146032 -6.169777318 0.0641677986)
)


60
(
5(-2.558268507 -2.960749048 -7.248845004 -9.147843446 -16.80169351)
5(-2.065893397 -2.863227479 -5.089438841 -7.004012932 -10.47940391)
5(-1.879633142 -2.881928358 -4.361489281 -6.280538735 -8.310143759)
5(-1.899820633 -3.022227828 -4.383540883 -6.358482795 -8.100917443)
5(-2.090692172 -3.307271943 -4.860972655 -6.950915175 -8.991596636)
5(-2.393623014 -3.725867123 -5.55225779 -7.838265166 -10.35016427)
5(-2.747132448 -4.244472262 -6.313582323 -8.853724114 -11.65877174)
5(-3.150068769 -4.885847906 -7.163382928 -10.02626851 -12.96304811)
5(-3.643685192 -5.675705184 -8.187963173 -11.43539352 -14.45680463)
5(-4.26196703 -6.638808872 -9.467888481 -13.14141762 -16.38552871)
5(-5.032728867 -7.805369299 -11.06085735 -15.19120306 -18.71516868)
5(-5.967631143 -9.193876307 -12.95433125 -17.59192853 -21.42851626)
5(-7.095685834 -10.84126034 -15.17214352 -20.36091615 -24.53283904)
5(-8.427624111 -12.77483265 -17.7328434 -23.52700811 -28.02900318)
5(-10.00786664 -15.03186546 -20.69985921 -27.1422369 -31.99686089)
5(-11.84947281 -17.64091029 -24.09112813 -31.25317515 -36.46495686)
5(-14.02770079 -20.63203941 -27.97341515 -35.8853546 -41.48669524)
5(-16.54239165 -24.04650499 -32.33076218 -41.03079157 -46.95852933)
5(-19.42232853 -27.89826172 -37.21915188 -46.6751755 -52.88483235)
5(-22.70745373 -32.17485921 -42.56290166 -52.76334121 -59.12838351)
5(-26.34861969 -36.87543706 -48.3584171 -59.20278925 -65.68265357)
5(-30.46966544 -41.98300621 -54.5110965 -65.82621596 -72.26459135)
5(-34.92426372 -47.42378356 -60.95418905 -72.59072133 -78.71313947)
5(-39.77883211 -53.09233202 -67.535359 -79.29560967 -84.89381791)
5(-44.89952272 -58.91572875 -74.16495992 -85.71398194 -90.65589431)
5(-50.32388218 -64.82411852 -80.58406225 -91.78511111 -95.60843326)
5(-55.91316741 -70.64959131 -86.67216425 -97.13387463 -99.94566566)
5(-61.46291349 -76.27036556 -92.30077242 -101.8265926 -103.1801688)
5(-67.19191275 -81.48155474 -97.2284376 -105.4895228 -105.4381719)
5(-72.56656554 -86.19633859 -101.4550634 -108.2087416 -106.6540726)
5(-77.79552544 -90.37704867 -104.6703327 -109.7181002 -106.4500321)
5(-82.48038909 -93.65760823 -106.7290707 -109.999351 -105.2148249)
5(-86.57178175 -95.81638583 -107.5879182 -109.0250144 -102.5058576)
5(-89.81068664 -96.94873432 -107.13951 -106.5649986 -98.70286974)
5(-91.90454859 -96.63532225 -104.969775 -102.6265833 -93.3719985)
5(-92.05117019 -94.723284 -101.3970071 -97.32167111 -87.61921233)
5(-91.56994678 -91.13280255 -96.14298151 -90.90700556 -80.36268948)
5(-89.2128961 -85.92726745 -89.36404998 -83.45572252 -73.01534472)
5(-85.12426156 -79.38024178 -81.40437483 -75.48822437 -65.50102949)
5(-79.29923785 -71.55996564 -73.07865046 -67.81994209 -58.32969563)
5(-72.03248204 -63.55486566 -65.44227846 -61.2290031 -52.55521789)
5(-65.04950145 -56.24944951 -59.20071364 -56.53846248 -48.4645569)
5(-58.42572853 -51.04844893 -55.77585858 -54.13953289 -46.34920316)
5(-54.04477795 -49.14385048 -55.69490778 -54.28808311 -46.24891138)
5(-52.93291623 -51.23406596 -59.02532493 -56.3411789 -47.01958438)
5(-55.73283408 -56.77338313 -64.80000768 -59.66683659 -47.8558048)
5(-62.65665441 -65.34022388 -71.25230389 -62.17584225 -47.81789845)
5(-72.13364906 -74.65849242 -76.69314304 -62.67876658 -45.95807753)
5(-82.22417405 -82.86508636 -78.83185937 -60.78253308 -42.7889734)
5(-89.00156983 -85.026843 -76.19573731 -56.54054432 -38.95522698)
5(-90.74365015 -83.53967738 -70.14333813 -50.86433199 -34.29626773)
5(-85.53275279 -77.05836099 -61.36750796 -44.63386395 -30.72722962)
5(-74.55396254 -65.33127747 -51.88144103 -39.37601984 -26.78442201)
5(-64.72810599 -52.22590345 -43.36510974 -33.57522053 -27.61979248)
5(-44.47488578 -42.53004369 -36.14491484 -28.54882968 -22.29354868)
5(-39.23581557 -32.30076979 -30.34533224 -25.37136735 -20.8698395)
5(-27.60321547 -25.36176127 -27.08039096 -22.63886852 -19.12611953)
5(-20.90773782 -20.61816059 -22.10872237 -21.50427441 -17.94147613)
5(-7.816856992 -11.07623432 -7.870228238 -12.46714311 -17.28643692)
5(6.108348034 5.397142307 -24.13134373 3.943752954 1.671854347)
)


60
(
5(-3.645865766 -4.65614543 -10.86597263 -15.02596378 -26.67910585)
5(-3.15396727 -4.619113095 -8.259854928 -12.09986412 -18.41558573)
5(-2.980385553 -4.704934224 -7.403106429 -11.13218044 -15.46574997)
5(-3.054435911 -4.945650154 -7.538859938 -11.30590026 -15.20092976)
5(-3.354566614 -5.40404326 -8.279468691 -12.2203839 -16.42901891)
5(-3.82291743 -6.072532751 -9.344906249 -13.56920234 -18.31714904)
5(-4.383572769 -6.909891109 -10.55502563 -15.13136692 -20.17233115)
5(-5.039052812 -7.931723459 -11.92379901 -16.92412942 -22.07308704)
5(-5.828727899 -9.164409358 -13.53883733 -19.03456041 -24.26076633)
5(-6.809658575 -10.65614467 -15.51212052 -21.55152803 -26.96320617)
5(-8.015063306 -12.42708789 -17.8793214 -24.50298209 -30.20920823)
5(-9.453842094 -14.51463624 -20.66156539 -27.90824075 -33.98637786)
5(-11.14809825 -16.93754777 -23.86622017 -31.80777566 -38.27724716)
5(-13.13622154 -19.74934869 -27.52828494 -36.24938196 -43.08581039)
5(-15.47243111 -22.98128014 -31.70512736 -41.26762468 -48.53099944)
5(-18.18871241 -26.68951752 -36.47294296 -46.91052425 -54.63843911)
5(-21.28707264 -30.91283695 -41.85141829 -53.23098714 -61.41021949)
5(-24.87324321 -35.66945726 -47.85749478 -60.18072757 -68.8600543)
5(-28.92233842 -40.98202401 -54.49424897 -67.80448012 -76.75979657)
5(-33.4723194 -46.83640286 -61.70640829 -75.90642032 -85.13178099)
5(-38.57113928 -53.20359654 -69.48325567 -84.46225754 -93.77496262)
5(-44.11731222 -60.05286459 -77.65640111 -93.28127075 -102.5042371)
5(-50.12930949 -67.25478584 -86.1167433 -102.1452253 -110.9901531)
5(-56.57313351 -74.73830935 -94.64745889 -110.864421 -119.0415944)
5(-63.40299301 -82.3488922 -103.1682819 -119.1970226 -126.706015)
5(-70.37926456 -89.98575337 -111.4186481 -126.9602032 -133.2696674)
5(-77.49904488 -97.44273281 -119.2020609 -133.8956032 -138.712702)
5(-84.62732847 -104.5134059 -126.1819031 -139.7212083 -143.1627592)
5(-91.49281285 -111.0973489 -132.307015 -144.3485653 -145.6811473)
5(-98.1588433 -116.9166658 -137.3399355 -147.6304497 -147.4600764)
5(-104.1985361 -121.7651611 -141.0411469 -149.4092602 -147.0270758)
5(-109.6851588 -125.6686994 -143.297353 -149.6200968 -145.3515791)
5(-114.3512703 -128.290868 -144.1377668 -148.249602 -142.1177468)
5(-117.9332319 -129.4139115 -143.2441018 -145.0042913 -137.2860185)
5(-120.323631 -128.9970941 -140.6763333 -140.2115963 -130.4888975)
5(-121.4194129 -126.8695034 -135.9984352 -133.8108679 -122.7349093)
5(-120.8168905 -122.7743152 -129.412746 -125.7452363 -113.9223978)
5(-118.3146891 -116.8321389 -121.1356725 -116.307951 -103.4237271)
5(-114.2283231 -109.0926932 -111.5055863 -105.9483262 -93.55687148)
5(-108.2953982 -100.0573784 -101.2240304 -95.48318261 -83.11606307)
5(-101.1498981 -90.17101138 -90.71839784 -85.90516312 -74.88918674)
5(-93.04250076 -80.4802249 -81.47448361 -78.43813615 -68.66646834)
5(-85.22225244 -72.29690778 -75.07691096 -73.95208756 -65.38168086)
5(-78.98921548 -67.18657433 -72.6697313 -73.14078542 -65.34285287)
5(-75.22301662 -66.29801593 -74.87247257 -75.9119253 -67.6696472)
5(-75.03997318 -70.12512036 -81.30404565 -81.25090824 -71.02491955)
5(-78.70051431 -78.69288189 -90.48916425 -87.75359476 -74.17522077)
5(-85.69827346 -89.42668155 -100.9714981 -92.7838107 -75.40122772)
5(-95.94674859 -99.76475003 -108.3824067 -94.27331236 -72.51473471)
5(-101.6383989 -107.9389347 -109.7334577 -91.32010185 -68.72916602)
5(-105.9336225 -111.005476 -105.644054 -85.20966918 -63.34210348)
5(-107.2967993 -105.2617092 -95.76994032 -74.55138394 -52.58368266)
5(-96.06570702 -91.77957662 -82.16052947 -63.70892221 -46.64831953)
5(-81.20775037 -73.86298783 -68.05280868 -53.68079201 -42.15873135)
5(-53.03086593 -56.26043496 -54.83956277 -44.29949946 -36.49922978)
5(-41.93387328 -38.06191884 -42.62029773 -39.02615781 -30.68080209)
5(-14.97362009 -26.47220412 -33.22404212 -31.12804479 -27.71849838)
5(3.985790169 -11.52763842 -24.59790462 -27.32227218 -25.19801769)
5(18.62084043 10.83055716 1.359878661 -17.2997278 -14.28281886)
5(24.62160894 166.6418941 37.88648092 -290.8140909 -269.1882529)
)


60
(
5(-4.89948283 -6.698412755 -15.2603684 -22.52163861 -39.04350682)
5(-4.419704371 -6.753043431 -12.1851515 -18.64978647 -28.6569377)
5(-4.276792621 -6.921700272 -11.1940808 -17.36089706 -24.76036498)
5(-4.410394349 -7.268912432 -11.45076732 -17.58532993 -24.26434405)
5(-4.834778957 -7.917395414 -12.48902021 -18.77566197 -25.71041953)
5(-5.494621913 -8.867695649 -13.94852132 -20.53820197 -27.97543274)
5(-6.288159875 -10.042116 -15.62061534 -22.59605432 -30.23740778)
5(-7.216672989 -11.46747373 -17.50777447 -24.96068304 -32.60587802)
5(-8.340628856 -13.16877958 -19.70626145 -27.70423953 -35.35771184)
5(-9.708307174 -15.1794221 -22.33894829 -30.93843988 -38.74863582)
5(-11.35766295 -17.5566712 -25.4585977 -34.70249564 -42.80446937)
5(-13.30721504 -20.3049357 -29.07320376 -39.03400684 -47.51413859)
5(-15.58972134 -23.4751343 -33.20825982 -43.94384165 -52.85076632)
5(-18.20861824 -27.11555339 -37.87696215 -49.50298589 -58.91067464)
5(-21.2533859 -31.27011107 -43.17291516 -55.7791489 -65.67298001)
5(-24.7665422 -35.99309124 -49.1345356 -62.8320671 -73.27364159)
5(-28.78928805 -41.31333477 -55.86891896 -70.65958213 -81.66116106)
5(-33.31282429 -47.2889452 -63.35928323 -79.27881583 -90.81223729)
5(-38.46666978 -53.92297564 -71.56868923 -88.6625566 -100.6433553)
5(-44.16554201 -61.1963562 -80.49469458 -98.67948818 -110.9990632)
5(-50.46999423 -69.07372041 -90.04473578 -109.2014196 -121.7203665)
5(-57.469947 -77.48886492 -100.0618466 -120.0281899 -132.5173083)
5(-64.84191858 -86.34827366 -110.384256 -130.8487463 -143.0819498)
5(-72.66647133 -95.56677609 -120.8625798 -141.4764007 -153.3318066)
5(-80.95812155 -104.9370394 -131.2195751 -151.7530331 -162.4939914)
5(-89.406515 -114.1576302 -141.2204775 -161.331118 -170.9717418)
5(-97.95695486 -123.1449375 -150.6111827 -169.9032352 -178.2362298)
5(-106.3984844 -131.6299599 -159.0708197 -177.2241526 -183.7731465)
5(-114.763752 -139.4763792 -166.4577742 -183.1808854 -187.7757569)
5(-122.3663435 -146.517743 -172.5497609 -187.4316916 -189.8750457)
5(-129.5650389 -152.5743425 -177.2147735 -189.9590588 -190.2785137)
5(-136.1283046 -157.3113965 -180.260841 -190.8351516 -188.4568102)
5(-141.6477062 -160.7034707 -181.5585174 -189.7995907 -185.4546976)
5(-146.1743606 -162.6812968 -181.0917166 -186.6832948 -179.8688462)
5(-149.3427099 -163.0388521 -178.6009496 -181.6309102 -172.7347441)
5(-151.2044272 -161.6331223 -174.1522555 -174.5392876 -163.379257)
5(-151.8117027 -158.1021768 -167.7509757 -165.4529813 -152.8370838)
5(-150.6724148 -152.7539824 -159.1932831 -154.9620206 -141.2605942)
5(-148.2153679 -145.7344018 -148.8214765 -143.1266549 -127.9415545)
5(-144.1379741 -137.0510139 -137.0996953 -130.4826812 -115.4218356)
5(-138.9402419 -127.1401241 -124.9824003 -118.1613306 -103.3419975)
5(-132.4861911 -116.9166252 -113.5655971 -107.4378181 -92.93346311)
5(-125.3738125 -107.5360127 -104.4792661 -99.50859527 -87.63050525)
5(-118.7080256 -100.1730347 -98.83399784 -95.45154628 -86.10486986)
5(-113.0173617 -96.42105051 -98.13495125 -96.39474701 -88.66025945)
5(-109.2540886 -96.83199442 -102.3350507 -101.6552752 -94.20969859)
5(-107.7457742 -101.3423933 -111.2482983 -110.2407637 -101.1739378)
5(-108.6593512 -109.4549762 -122.6898234 -119.7047954 -106.7084082)
5(-111.5633106 -118.546474 -133.6215418 -126.7441991 -108.9223808)
5(-114.8953055 -127.2516664 -141.2942914 -129.571107 -105.8854281)
5(-117.2241027 -132.0070988 -141.7943276 -126.0168611 -98.11655873)
5(-116.7889924 -129.4068655 -134.2544602 -116.6521896 -87.3325908)
5(-108.6496848 -117.7696789 -118.8873081 -101.2288257 -80.85368759)
5(-95.82013155 -97.86451089 -96.58750935 -84.1093272 -63.26707998)
5(-72.66717663 -71.14248438 -73.34642685 -67.7309708 -53.36750871)
5(-45.05244173 -40.9368306 -51.59152389 -52.83444626 -46.88362946)
5(-12.51039746 -14.54969065 -27.6355784 -40.29199993 -39.04636404)
5(20.73237093 14.31888527 -9.7445391 -27.62381731 -32.56420635)
5(44.39331245 38.42674629 21.10979846 2.585273474 -19.68851891)
5(40.48721587 44.3529025 37.82702281 27.31380835 20.86193628)
)


60
(
5(-6.328976374 -9.122986371 -20.48105441 -31.7204131 -53.91914228)
5(-5.881271718 -9.288490549 -16.91365847 -26.71551889 -41.15795236)
5(-5.772185565 -9.544928806 -15.79002637 -24.97790628 -36.10776521)
5(-5.982906372 -10.0170658 -16.17233297 -25.16801098 -35.2638099)
5(-6.551518637 -10.86860487 -17.48905598 -26.5657426 -36.69432362)
5(-7.417762064 -12.10534634 -19.33195221 -28.6718452 -39.1486849)
5(-8.470922513 -13.6304289 -21.44785278 -31.14812706 -41.6770008)
5(-9.692829584 -15.46928888 -23.83878137 -33.98907553 -44.36742874)
5(-11.16386993 -17.63763494 -26.59076142 -37.29325612 -47.56918902)
5(-12.92791193 -20.1856286 -29.8552698 -41.16734934 -51.52874501)
5(-15.02642061 -23.1314823 -33.65887534 -45.65433149 -56.28947611)
5(-17.48390279 -26.52943811 -38.04041871 -50.78841544 -61.83615356)
5(-20.31800313 -30.40561674 -43.00541731 -56.61960021 -68.12786867)
5(-23.60115667 -34.8149589 -48.61182198 -63.20022641 -75.2652374)
5(-27.3141421 -39.81815995 -54.93859443 -70.61936506 -83.28276064)
5(-31.55824718 -45.46306245 -62.05772696 -78.91868269 -92.30082508)
5(-36.40002241 -51.8184304 -70.01304576 -88.13699288 -102.1768468)
5(-41.86538987 -58.89504756 -78.79959879 -98.27942937 -112.9584726)
5(-47.97483294 -66.7300396 -88.47055016 -109.2590344 -124.5998828)
5(-54.75171801 -75.3047161 -98.93632764 -121.0074867 -136.8018321)
5(-62.2249836 -84.57085013 -110.0937225 -133.3590745 -149.5173325)
5(-70.29081427 -94.46324416 -121.8314973 -146.0039032 -162.3001122)
5(-79.03722778 -104.8548109 -133.9253976 -158.7944946 -174.9463669)
5(-88.17759569 -115.6031546 -146.1817388 -171.4742992 -187.2737281)
5(-97.8378018 -126.5437679 -158.3434442 -183.6624948 -198.7899841)
5(-107.6486215 -137.4860882 -170.1299595 -195.0126136 -209.0043155)
5(-117.4703984 -147.9581266 -181.1722463 -205.3628067 -217.7647907)
5(-127.22363 -157.9739874 -191.2273442 -214.3583363 -224.9558156)
5(-137.0422553 -167.3041782 -200.1249111 -221.7504903 -230.474454)
5(-145.9516771 -175.7422614 -207.609578 -227.3371555 -233.9046588)
5(-154.4389639 -182.9500675 -213.5406092 -231.1914095 -235.1267583)
5(-162.044208 -188.8843592 -217.8300955 -233.0511939 -234.7150138)
5(-168.9095898 -193.6723594 -220.2998724 -232.8046467 -231.4537437)
5(-174.6266389 -196.9131286 -220.7436043 -230.3891381 -227.0116185)
5(-179.4588185 -198.5382864 -219.0092718 -225.8260498 -219.2213339)
5(-183.1959852 -198.5928309 -215.5537791 -219.0930801 -209.4859877)
5(-185.5434178 -196.881619 -210.1971182 -210.3988334 -197.8375196)
5(-187.0716787 -193.6720163 -202.6960421 -199.8823334 -184.9504356)
5(-187.3895563 -188.712658 -193.2590192 -187.7387317 -170.2196669)
5(-186.7821052 -181.9898259 -182.2650327 -174.3308596 -154.7297842)
5(-184.8804358 -174.3000337 -170.4891656 -160.3858388 -139.8899023)
5(-181.4498468 -165.8614667 -158.8522677 -147.4101387 -126.4207862)
5(-177.1378797 -157.7563032 -148.5901814 -136.3075282 -116.3842666)
5(-171.3982952 -150.4318761 -141.4481901 -128.8315428 -111.3433794)
5(-164.9544924 -144.3763392 -138.1755691 -126.2388495 -111.5912117)
5(-158.1611333 -140.6569829 -139.2465419 -129.115821 -117.2800262)
5(-152.7113636 -140.0698579 -144.5053546 -136.8928225 -126.474828)
5(-146.6953826 -141.2174048 -152.9873823 -148.1032638 -136.919225)
5(-141.8865929 -144.2040467 -162.904717 -159.3739892 -144.9582567)
5(-139.2559865 -148.3167142 -171.3726874 -167.1939338 -147.8677513)
5(-135.9188252 -149.5985608 -174.2625274 -168.5412059 -145.2608094)
5(-131.6042877 -149.1769406 -168.9177021 -161.7480125 -134.0743986)
5(-122.9210275 -138.4270066 -154.8109071 -145.5445668 -118.2808395)
5(-109.4367903 -120.6798828 -128.5089432 -124.8412522 -99.80070453)
5(-91.08412703 -94.20995126 -95.05121318 -97.15512134 -82.02803734)
5(-67.4766444 -56.49050644 -54.7215259 -69.77842013 -73.64834219)
5(-35.17609444 -19.99929295 -19.10698796 -42.74769343 -50.12280113)
5(-10.99458346 25.78895788 16.77137909 -17.91266123 -37.91483688)
5(28.61479908 61.86743027 56.35074189 27.2997096 -9.819591431)
5(11.29740724 57.5405584 88.01651538 56.83266828 44.48303426)
)


60
(
5(-7.941897213 -11.94129613 -26.56471691 -42.68696155 -71.25364702)
5(-7.546120726 -12.23612455 -22.44775013 -36.36257577 -55.88203847)
5(-7.492948511 -12.61200832 -21.18598804 -34.03701223 -49.47869113)
5(-7.785445797 -13.20567405 -21.68554461 -34.07072933 -48.00909598)
5(-8.51740589 -14.26336713 -23.2781483 -35.55609812 -49.25593474)
5(-9.607991529 -15.8022775 -25.46865071 -37.90073321 -51.7007361)
5(-10.93157514 -17.68953084 -27.99837211 -40.6942974 -54.35358573)
5(-12.46967544 -19.94088341 -30.85604613 -43.94030134 -57.24225278)
5(-14.3010711 -22.57958182 -34.1235551 -47.70309785 -60.77236294)
5(-16.47543371 -25.6338845 -37.9645284 -52.12902732 -65.19791137)
5(-19.03375607 -29.14413893 -42.40806355 -57.24620298 -70.5559723)
5(-21.98463399 -33.14960519 -47.49785299 -63.10267335 -76.83298918)
5(-25.38220089 -37.6910893 -53.23160422 -69.73587588 -84.00603532)
5(-29.24936932 -42.84264365 -59.70032064 -77.24312109 -92.10457009)
5(-33.63742663 -48.63794362 -66.94936135 -85.67010219 -101.2863983)
5(-38.63140976 -55.16377959 -75.0987308 -95.10673017 -111.5055803)
5(-44.22345442 -62.44242767 -84.16168442 -105.564419 -122.8381259)
5(-50.58180164 -70.5713728 -94.19341367 -117.0749459 -135.1474912)
5(-57.56851137 -79.52835362 -105.1711629 -129.5400495 -148.4167428)
5(-65.37777744 -89.31967555 -117.0349195 -142.8829165 -162.4424929)
5(-73.92440506 -99.9048343 -129.7048594 -156.8949554 -176.925573)
5(-83.10469392 -111.131054 -143.0001257 -171.3734155 -191.7889756)
5(-93.04783206 -122.9557265 -156.7731052 -186.0353705 -206.2132972)
5(-103.5386659 -135.2293994 -170.7162847 -200.5662071 -220.5953695)
5(-114.3389308 -147.6646923 -184.5816418 -214.6714605 -234.0069457)
5(-125.4848158 -159.9749198 -198.0771344 -228.0504222 -246.4878039)
5(-136.8248129 -172.0380344 -210.8763498 -240.3593195 -257.3043391)
5(-148.2518108 -183.6557462 -222.7842674 -251.1042792 -266.1636159)
5(-159.02712 -194.5648683 -233.3007223 -260.1425773 -273.3644192)
5(-168.9808887 -204.4625478 -242.3363796 -267.5593154 -277.9612561)
5(-178.9252476 -213.2401773 -249.7528603 -272.8545786 -281.2332945)
5(-188.2080993 -220.9482107 -255.4932984 -275.9499485 -282.4710219)
5(-196.3968768 -227.273677 -259.3695418 -277.0020795 -279.8938631)
5(-203.5175542 -232.0113584 -261.4676966 -276.0265067 -275.8695985)
5(-210.1082528 -235.4912304 -261.8516681 -272.892499 -269.8364071)
5(-216.2287814 -237.6777548 -260.2435626 -267.7349192 -260.9250138)
5(-221.4612877 -238.745758 -256.7690876 -260.6794856 -249.7158953)
5(-226.0044836 -238.5325729 -251.4846134 -251.3171533 -236.1893123)
5(-230.2233973 -237.1037592 -244.8016746 -239.9277649 -221.6065271)
5(-233.3456587 -234.5160789 -236.8496443 -227.3854779 -204.9087195)
5(-235.9822183 -231.2914668 -227.8285493 -214.476594 -187.0930995)
5(-236.9436739 -226.7505872 -218.7925934 -201.2861311 -170.7152538)
5(-236.1786667 -221.3271002 -210.3003852 -189.2982184 -156.5870083)
5(-233.1567142 -215.2892339 -203.5660945 -179.7549913 -148.0585695)
5(-227.6146969 -208.7486051 -198.6613369 -174.1428036 -144.4812838)
5(-220.1626017 -201.9068563 -196.2235196 -173.7949552 -148.088758)
5(-210.9242739 -195.8927319 -196.2044883 -178.8696094 -156.2463554)
5(-201.6213127 -190.0118674 -198.157865 -188.1212025 -169.2703187)
5(-191.1173621 -184.7460312 -201.2077293 -199.4755814 -182.5306284)
5(-181.8521341 -180.8452091 -204.2377367 -209.382043 -192.9464537)
5(-171.7091154 -176.2742432 -204.5848507 -213.8405188 -195.9629807)
5(-160.6389992 -170.2257604 -199.4213712 -210.2075279 -189.9645492)
5(-148.4997534 -159.196656 -186.9808731 -194.169713 -173.970014)
5(-134.943163 -143.7634351 -161.0549543 -167.8212592 -152.8792456)
5(-118.1211138 -121.7628795 -128.0721139 -129.6973681 -124.7770234)
5(-97.24102171 -88.83475924 -81.27768833 -85.22423148 -90.64003606)
5(-73.22436761 -51.1840347 -25.29310647 -39.89770135 -67.55505892)
5(-48.03491742 -5.904409363 27.61986943 8.846872666 -27.82313463)
5(-28.29433049 30.65572874 80.39249845 62.24132059 32.98614808)
5(-40.00759091 -8.953167534 7.354729238 89.63948497 83.81388041)
)


60
(
5(-9.739339643 -15.16470632 -33.49837085 -55.39127893 -90.99783806)
5(-9.41700597 -15.61809473 -28.82481262 -47.53033293 -72.76191742)
5(-9.429468338 -16.12422689 -27.40777921 -44.48427753 -64.81349523)
5(-9.82663396 -16.84390417 -27.99633079 -44.22980708 -62.46938841)
5(-10.73875883 -18.11156452 -29.8139862 -45.6906601 -63.32521996)
5(-12.06790934 -19.96397531 -32.32291411 -48.15516986 -65.57460295)
5(-13.67411059 -22.21497544 -35.24783869 -51.18777927 -68.15820641)
5(-15.55059316 -24.87983941 -38.53206062 -54.72932583 -71.14597892)
5(-17.74186208 -27.97194712 -42.28799678 -58.88920335 -74.88603518)