/*--------------------------------*- C++ -*----------------------------------*\
| =========                 |                                                 |
| \\      /  F ield         | OpenFOAM: The Open Source CFD Toolbox           |
|  \\    /   O peration     | Version:  2.3.1                                 |
|   \\  /    A nd           | Web:      www.OpenFOAM.org                      |
|    \\/     M anipulation  |                                                 |
\*---------------------------------------------------------------------------*/
FoamFile
{
    version     2.0;
    format      ascii;
    class       dictionary;
    location    "constant";
    object      N2;
}
// * * * * * * * * * * * * * * * * * * * * * * * * * * * * * * * * * * * * * //

N2_table
60
(

60
(
5(0.706342976 0.704523315 0.70164197 0.699889226 0.697292213)
5(0.7067109014 0.7051638205 0.7021370559 0.7002891868 0.6978523234)
5(0.7076678329 0.7048862805 0.702426591 0.7006045825 0.699048043)
5(0.7082992587 0.7048041021 0.7023234168 0.7008730853 0.6979173558)
5(0.7078403693 0.7048726043 0.7023790016 0.7006150143 0.698252634)
5(0.7071717442 0.7049494824 0.7028206033 0.7006363408 0.6984906773)
5(0.7070245996 0.7049970035 0.7027652866 0.7007870944 0.6982265209)
5(0.7072730472 0.7049959865 0.7025792474 0.7007162608 0.6986353372)
5(0.707091854 0.7049692929 0.7026381854 0.7006900087 0.6984591195)
5(0.7071107869 0.7049392892 0.7025381264 0.7007201273 0.6984192311)
5(0.7070836612 0.7049391454 0.7025501288 0.7007105027 0.6984161159)
5(0.7071045402 0.7049355696 0.7026175754 0.7007070448 0.6984634845)
5(0.7071672198 0.7049250141 0.7026321731 0.7006712792 0.6984341925)
5(0.7071004108 0.7049133231 0.7026124201 0.7007112688 0.6984627306)
5(0.7071479543 0.7049316908 0.7026364099 0.7006837333 0.698463347)
5(0.7071211149 0.7049185385 0.7026151348 0.7006810623 0.6984636166)
5(0.7071145373 0.7049195535 0.7026087938 0.7006761035 0.6984413614)
5(0.7071119106 0.7049174675 0.7026006836 0.7006556502 0.6984273857)
5(0.7071128577 0.704910206 0.7025939542 0.700652254 0.6984238718)
5(0.7070863636 0.7048789517 0.7025697371 0.7006126586 0.6984228427)
5(0.707084834 0.7048883748 0.7025842265 0.7006098599 0.6984195935)
5(0.7070727643 0.7048830983 0.7025685072 0.7006786992 0.6984618066)
5(0.7070433729 0.7048648186 0.7025683045 0.7006375458 0.6984239432)
5(0.7070423392 0.7048311426 0.7025598572 0.7006401042 0.6984269462)
5(0.7070208676 0.7048179719 0.7025401662 0.7006163877 0.6984103525)
5(0.7070070619 0.7048110815 0.7025050383 0.7005832339 0.6984125452)
5(0.7069873462 0.7048097655 0.7025177916 0.7005648773 0.6984106351)
5(0.7069794433 0.7047965614 0.7024933411 0.7005543544 0.6984118127)
5(0.706940486 0.704772835 0.7025004941 0.7005626807 0.6984089965)
5(0.7069181724 0.7047426277 0.7025013047 0.7005893636 0.6984233254)
5(0.7068824456 0.7047153279 0.7024744568 0.7005674776 0.6984252098)
5(0.7068576556 0.704706585 0.7024925483 0.7006051039 0.69851271)
5(0.7068373408 0.7046831359 0.7024776818 0.70061124 0.6984603888)
5(0.7068053801 0.7046544279 0.7024510384 0.7006316949 0.6985649087)
5(0.7067724876 0.704644164 0.7024608795 0.7006472402 0.6985854404)
5(0.7067444221 0.7046027078 0.7024025572 0.7006565247 0.6986127837)
5(0.7067161495 0.7046311895 0.7024972641 0.7007197161 0.6986489179)
5(0.7066917006 0.7045963218 0.7025041238 0.700725092 0.6988525343)
5(0.7066573936 0.7045973005 0.7024949256 0.7007764208 0.6987377499)
5(0.7066034131 0.704586381 0.702467405 0.7007921105 0.6992587403)
5(0.706587622 0.7046202952 0.7025512824 0.7008575788 0.6992592612)
5(0.706593204 0.7046394923 0.7026104889 0.7010858729 0.6992591969)
5(0.706587762 0.704701493 0.7026876557 0.7015442877 0.6992580551)
5(0.7065791624 0.7046996335 0.702558449 0.7015312404 0.6992454002)
5(0.7065799962 0.7047578274 0.7026871377 0.7015905445 0.6992604062)
5(0.7066377802 0.7047774387 0.7028607126 0.7015549292 0.6992893881)
5(0.7066949684 0.7048986349 0.7034434015 0.7015495575 0.6993112297)
5(0.7067915173 0.7051759097 0.7036564438 0.7015738299 0.6993160553)
5(0.7068461294 0.7051960991 0.7036789081 0.7015907023 0.6993198452)
5(0.7069415299 0.7059233471 0.7036969895 0.7016350274 0.6993587729)
5(0.7071050928 0.7059838455 0.7037199013 0.7016217892 0.6993746401)
5(0.7077697963 0.7059787462 0.7037444217 0.7016418357 0.6994060063)
5(0.7080636415 0.7059641173 0.7037680965 0.7016602764 0.6994612723)
5(0.7080612446 0.7059771444 0.7037583728 0.7017004489 0.6994724346)
5(0.7080937133 0.7059937107 0.7037688577 0.7016993359 0.6995173319)
5(0.7079290576 0.7059926616 0.7037757 0.7017588982 0.6995786806)
5(0.7076744091 0.7059621393 0.7037934259 0.7017955318 0.6995719941)
5(0.7074895476 0.7058591102 0.7037701334 0.7017469059 0.6998116269)
5(0.7073741774 0.705660753 0.7035972303 0.702140862 0.6996771701)
5(0.7071853125 0.705196695 0.70300718 0.700829445 0.699012984)
)


60
(
5(0.7060263025 0.7039481462 0.7012748637 0.6993789202 0.6968832618)
5(0.7061330758 0.703933206 0.7014561527 0.6994888276 0.6971353848)
5(0.7061860526 0.7039169281 0.7015476944 0.6995369665 0.6972685883)
5(0.7061875837 0.7038980254 0.7015457985 0.6995320815 0.6972813044)
5(0.7061558387 0.7038742317 0.7014972788 0.6995004447 0.6972227771)
5(0.706109889 0.7038494059 0.7014485391 0.6994699796 0.6971594689)
5(0.7060795686 0.7038263538 0.7014240211 0.6994442415 0.697128963)
5(0.706062955 0.7038068791 0.7014083288 0.6994263677 0.6971195652)
5(0.7060489741 0.7037897123 0.7013973018 0.6994132842 0.697112728)
5(0.7060271981 0.7037683065 0.7013796164 0.69939358 0.6970983915)
5(0.7060068048 0.7037433705 0.7013575807 0.6993712811 0.6970750779)
5(0.7059794614 0.7037204353 0.7013307376 0.6993462319 0.6970487319)
5(0.7059532081 0.7036945902 0.7013041605 0.6993237066 0.6970253583)
5(0.7059260705 0.7036686399 0.7012777227 0.6992976534 0.6970010411)
5(0.7058991376 0.7036403067 0.7012512466 0.6992724633 0.696980037)
5(0.7058687803 0.7036109123 0.7012211647 0.6992455224 0.6969551577)
5(0.7058373321 0.7035782623 0.7011885424 0.6992159329 0.6969284149)
5(0.705803176 0.7035447446 0.7011549193 0.6991864385 0.6968999359)
5(0.7057662911 0.703509832 0.7011196195 0.6991543921 0.6968697066)
5(0.7057272337 0.7034718479 0.7010824781 0.6991197855 0.6968396547)
5(0.7056869053 0.7034296088 0.701043066 0.699084962 0.6968092163)
5(0.7056444335 0.7033848286 0.7010022362 0.6990472309 0.6967782831)
5(0.7055964814 0.7033398193 0.7009592203 0.6990088066 0.6967455108)
5(0.7055439688 0.7032916217 0.7009135254 0.6989711242 0.6967127376)
5(0.7054900225 0.7032412993 0.7008673183 0.698930796 0.6966805139)
5(0.7054316697 0.7031872875 0.7008160301 0.6988894281 0.6966494399)
5(0.7053698655 0.7031316693 0.7007647504 0.698846527 0.6966193233)
5(0.7053045369 0.7030715717 0.7007142041 0.69880396 0.6965913541)
5(0.705234818 0.7030087481 0.7006613947 0.6987636145 0.6965626296)
5(0.7051605911 0.7029442958 0.7006072648 0.6987240276 0.6965379437)
5(0.7050827233 0.7028771192 0.7005518575 0.6986866739 0.6965146692)
5(0.7050010419 0.7028083025 0.7004993461 0.6986507694 0.6964968951)
5(0.7049158256 0.7027385693 0.7004442654 0.6986179432 0.6964841303)
5(0.7048271894 0.7026684827 0.7003936005 0.698588723 0.6964785486)
5(0.7047364242 0.7025984279 0.7003443857 0.6985645062 0.6964799964)
5(0.7046425433 0.7025287005 0.7002988632 0.6985458783 0.6964904025)
5(0.7045502089 0.7024633009 0.7002579687 0.6985386598 0.6965087492)
5(0.7044576866 0.7024001544 0.7002244084 0.6985382008 0.6965370383)
5(0.7043683994 0.7023467819 0.7001991411 0.6985484293 0.6965827936)
5(0.7042865947 0.7022982117 0.7001850955 0.6985717 0.6966533021)
5(0.7042133945 0.7022657477 0.7001877448 0.6986091529 0.6967526057)
5(0.7041553995 0.702240897 0.7001998954 0.6986680335 0.6968692936)
5(0.7041105758 0.7022381115 0.7002313293 0.6987548598 0.6970043571)
5(0.7040895532 0.7022614069 0.7002820324 0.6988721976 0.6971545912)
5(0.7040950353 0.7023008558 0.7003609756 0.6990129531 0.6973054571)
5(0.7041320732 0.7023659697 0.7004742177 0.6991737067 0.6974532844)
5(0.7042028735 0.7024596067 0.7006193702 0.6993438048 0.6976125685)
5(0.7043116991 0.7025889227 0.7007951294 0.6995196737 0.6977746913)
5(0.7044533968 0.7027542657 0.7009995633 0.6996941216 0.6979327816)
5(0.704639452 0.7029602566 0.7012172223 0.6998661302 0.6980858986)
5(0.7048611522 0.7032019499 0.7014450108 0.7000439856 0.6982230666)
5(0.7051274923 0.7034652604 0.7016781743 0.7002302586 0.6983567187)
5(0.7054270675 0.7037372505 0.7019089623 0.7004035709 0.6984809903)
5(0.7057560579 0.70402113 0.7021410233 0.70056322 0.6985966296)
5(0.706105549 0.7043079899 0.7023729887 0.7007240423 0.6987111185)
5(0.7064677493 0.7045940909 0.7026030558 0.7008859049 0.6988259914)
5(0.7068360183 0.7048823803 0.7028459353 0.7010515177 0.6989536579)
5(0.7072144368 0.705193562 0.7031092404 0.7012409811 0.6991004504)
5(0.7076300806 0.7055355609 0.7033845278 0.7014697969 0.6992818258)
5(0.7084613371 0.7062363479 0.7043063952 0.7020680578 0.6997223417)
)


60
(
5(0.7058207921 0.7036612007 0.701028283 0.6990703711 0.6965988058)
5(0.7058557943 0.7036114693 0.7011231314 0.6991204393 0.6967524482)
5(0.7058644011 0.7035777477 0.7011614946 0.6991354842 0.6968184141)
5(0.705851151 0.7035513092 0.7011443226 0.6991185434 0.6968127957)
5(0.7058166734 0.7035238121 0.7011011232 0.6990861384 0.6967636087)
5(0.7057776211 0.7034954478 0.7010593297 0.6990538729 0.6967126435)
5(0.7057473331 0.7034696856 0.7010297401 0.6990264485 0.6966811403)
5(0.7057240136 0.7034445832 0.7010076084 0.6990036953 0.6966627528)
5(0.7057001183 0.7034185622 0.7009864927 0.6989808667 0.6966464574)
5(0.7056741527 0.7033906367 0.7009615708 0.6989551838 0.6966220714)
5(0.7056452414 0.7033609515 0.7009313547 0.6989262259 0.6965929134)
5(0.7056138286 0.7033295905 0.7008988454 0.6988954048 0.6965615388)
5(0.7055797542 0.7032957437 0.7008646838 0.6988626857 0.6965305408)
5(0.7055451606 0.703259378 0.7008298321 0.6988289296 0.6964979389)
5(0.7055078638 0.7032228063 0.7007924344 0.6987915004 0.6964650406)
5(0.7054690844 0.7031827229 0.7007531259 0.6987554968 0.6964299612)
5(0.7054257728 0.7031411148 0.7007103496 0.6987148542 0.6963920317)
5(0.7053799716 0.7030960466 0.7006659572 0.6986734963 0.6963531543)
5(0.7053322702 0.7030465917 0.7006177638 0.6986290993 0.6963147183)
5(0.7052800511 0.7029958561 0.7005682911 0.6985830641 0.6962729272)
5(0.7052266476 0.7029422715 0.7005149966 0.698534456 0.6962285284)
5(0.7051666994 0.7028836725 0.7004599098 0.6984845773 0.6961835614)
5(0.7051041979 0.7028223942 0.7004007556 0.6984320022 0.6961374028)
5(0.7050368157 0.7027583555 0.7003393778 0.6983781499 0.6960886525)
5(0.7049663876 0.7026912753 0.7002751076 0.6983224071 0.6960389755)
5(0.7048900715 0.7026195751 0.7002079022 0.6982634549 0.6959911642)
5(0.7048095624 0.7025454976 0.7001383272 0.698203373 0.6959417146)
5(0.7047255072 0.7024658509 0.7000653726 0.6981409922 0.6958931938)
5(0.7046343551 0.7023837934 0.6999913998 0.6980802716 0.6958432562)
5(0.7045396968 0.7022976409 0.6999145607 0.6980173681 0.6957969127)
5(0.704440088 0.7022067344 0.699835793 0.6979552419 0.6957516911)
5(0.7043371515 0.7021144913 0.6997574342 0.6978939317 0.6957087223)
5(0.7042291264 0.702021672 0.6996771295 0.697833827 0.6956705074)
5(0.7041188826 0.7019242484 0.6995980699 0.6977768741 0.6956386649)
5(0.7040057613 0.7018291841 0.6995226551 0.6977250675 0.6956143209)
5(0.7038912419 0.7017347296 0.6994476881 0.6976793778 0.6955979352)
5(0.7037769958 0.7016441856 0.6993794576 0.6976410608 0.6955899352)
5(0.7036648027 0.701557413 0.699318029 0.6976118934 0.6955925601)
5(0.7035594968 0.7014781769 0.6992669222 0.6975935516 0.6956130782)
5(0.7034639496 0.7014111188 0.6992290223 0.6975891942 0.6956564902)
5(0.7033836602 0.7013564018 0.6992034482 0.6976021989 0.6957267212)
5(0.703315941 0.7013175387 0.6991965483 0.6976382099 0.6958232514)
5(0.7032734188 0.7013015519 0.6992109389 0.6977051292 0.6959404205)
5(0.7032602001 0.7013109872 0.6992500451 0.6978033638 0.6960749831)
5(0.7032786653 0.7013522359 0.6993192573 0.6979297541 0.6962248152)
5(0.7033319185 0.7014209495 0.6994216657 0.6980811953 0.6963936357)
5(0.7034269981 0.7015226087 0.6995656999 0.698255817 0.6965793014)
5(0.7035629521 0.7016650544 0.6997514498 0.6984486426 0.6967744741)
5(0.7037398207 0.7018530399 0.6999671439 0.6986559998 0.6969733887)
5(0.7039578291 0.7020775368 0.7002059341 0.6988807011 0.6971775348)
5(0.7042169607 0.702343729 0.7004737561 0.6991196054 0.6973923371)
5(0.7045161542 0.7026427838 0.7007680206 0.6993652287 0.6975898591)
5(0.704849618 0.702969879 0.70106677 0.6996158574 0.6977835021)
5(0.7052180527 0.7033156028 0.7013825047 0.6998709617 0.6979812976)
5(0.705610855 0.7036805968 0.7017068455 0.7001197905 0.6981783384)
5(0.7060291264 0.7040610858 0.7020394428 0.7003705834 0.6983795239)
5(0.7064695174 0.7044529046 0.7023843657 0.700631813 0.6985913047)
5(0.7069395812 0.7048753152 0.7027496335 0.7009345827 0.6988300988)
5(0.7074939688 0.705351676 0.7031710674 0.7012731208 0.6990967248)
5(0.7085480138 0.7063061475 0.7042993579 0.7021361099 0.6997508505)
)


60
(
5(0.7056681879 0.7034611883 0.7008421237 0.6988443304 0.6963787413)
5(0.7056663551 0.703396632 0.7008923279 0.6988652681 0.6964791147)
5(0.7056562729 0.703354157 0.7009050769 0.6988642254 0.6965137089)
5(0.7056350495 0.7033237231 0.7008801141 0.69884137 0.6964972941)
5(0.7056013168 0.7032943524 0.7008399422 0.6988083924 0.6964533118)
5(0.7055637898 0.7032644397 0.7008001506 0.6987746208 0.6964066857)
5(0.705532045 0.7032346247 0.700767766 0.698744971 0.6963737743)
5(0.7055042898 0.7032054909 0.7007407087 0.6987181275 0.6963494989)
5(0.7054768085 0.7031756469 0.7007131785 0.6986896269 0.6963260364)
5(0.7054458728 0.7031429966 0.7006827999 0.6986587007 0.6962968739)
5(0.7054115055 0.7031081299 0.7006481547 0.6986249532 0.6962638748)
5(0.7053754884 0.7030710693 0.700610609 0.6985893394 0.6962278799)
5(0.7053364436 0.7030318469 0.7005704692 0.6985505971 0.6961901026)
5(0.7052954412 0.702989788 0.7005289277 0.6985098218 0.6961519089)
5(0.7052511173 0.7029460452 0.700484384 0.6984672502 0.6961111186)
5(0.7052045134 0.7028977899 0.7004371508 0.6984219807 0.6960677295)
5(0.705154784 0.7028471328 0.7003865746 0.6983733152 0.696022291)
5(0.7051004889 0.7027940624 0.7003337345 0.698320366 0.6959743787)
5(0.7050435247 0.7027362966 0.7002763514 0.6982683873 0.6959244438)
5(0.7049821681 0.7026757037 0.700216957 0.6982120117 0.6958716077)
5(0.70491663 0.7026115231 0.700152672 0.6981516464 0.6958150896)
5(0.7048468231 0.7025423467 0.7000862274 0.6980910321 0.6957605363)
5(0.7047732338 0.7024700067 0.7000157914 0.6980254446 0.6957034643)
5(0.7046943483 0.7023923862 0.6999430165 0.6979585877 0.6956433805)
5(0.7046099241 0.7023124144 0.6998647241 0.6978887089 0.6955800422)
5(0.704521782 0.7022276356 0.6997831419 0.6978157139 0.6955164931)
5(0.7044283824 0.702137881 0.6996984051 0.6977401337 0.6954514917)
5(0.7043296302 0.7020441354 0.6996107279 0.6976628151 0.6953849171)
5(0.7042248044 0.7019460403 0.6995197377 0.6975848004 0.6953193552)
5(0.704114947 0.7018443302 0.6994259202 0.6975040035 0.6952515187)
5(0.7040007636 0.7017391969 0.6993302812 0.6974237819 0.6951864122)
5(0.7038819182 0.7016314692 0.6992342286 0.6973433839 0.6951219924)
5(0.7037591114 0.7015213288 0.6991346797 0.6972637965 0.6950630287)
5(0.7036341435 0.7014095488 0.6990364476 0.6971856135 0.6950073689)
5(0.7035068071 0.7012977163 0.698939765 0.6971109744 0.6949593342)
5(0.7033800497 0.701186873 0.6988461801 0.6970409029 0.6949162411)
5(0.7032556819 0.7010803451 0.6987584227 0.6969782717 0.6948815403)
5(0.7031361407 0.7009793996 0.698676431 0.6969251592 0.6948593572)
5(0.7030258187 0.7008879859 0.698605831 0.6968834827 0.6948512115)
5(0.702928052 0.7008091293 0.6985482278 0.6968557872 0.694867798)
5(0.7028470488 0.7007455594 0.6985074197 0.6968455048 0.6949081843)
5(0.7027904535 0.7007026218 0.6984867259 0.6968592761 0.6949761325)
5(0.7027603412 0.7006853362 0.6984893938 0.6969012216 0.6950703731)
5(0.7027633903 0.7006974407 0.6985187906 0.6969752728 0.6951864355)
5(0.7028030693 0.7007417538 0.6985804545 0.6970829378 0.6953258908)
5(0.7028834778 0.7008225246 0.6986822739 0.6972213366 0.6954878038)
5(0.7030088689 0.7009430209 0.6988229328 0.6973861657 0.6956735576)
5(0.7031737116 0.7011043199 0.699007095 0.6975805518 0.6958822245)
5(0.7033881583 0.7013081629 0.6992287486 0.6978060002 0.6961067209)
5(0.7036320831 0.7015533914 0.6994870215 0.6980573366 0.6963467378)
5(0.7039154759 0.7018376948 0.699777594 0.6983307348 0.6965989505)
5(0.7042395852 0.7021577343 0.7001041689 0.6986263867 0.6968615821)
5(0.7045932667 0.7025080003 0.7004509773 0.6989319002 0.6971280508)
5(0.7049783659 0.7028887134 0.7008159117 0.6992508543 0.6973962498)
5(0.7053953314 0.7032979589 0.7012106599 0.6995870607 0.6976698706)
5(0.7058423928 0.703733398 0.7016190863 0.6999316241 0.6979603894)
5(0.7063228607 0.7041968914 0.7020450292 0.7002912083 0.6982458097)
5(0.706855174 0.7046960942 0.7025030662 0.7006807135 0.6985584326)
5(0.7074883469 0.7052765308 0.7030324198 0.7011086569 0.6989318778)
5(0.708634348 0.7064727821 0.704258009 0.7021061059 0.6998262983)
)


60
(
5(0.7055479235 0.7033081142 0.700692781 0.6986655935 0.6961990357)
5(0.7055244573 0.703235559 0.7007154338 0.6986692414 0.6962655958)
5(0.7055035307 0.7031875159 0.7007131946 0.69865824 0.6962814709)
5(0.7054785075 0.7031552181 0.700684259 0.6986320088 0.696259522)
5(0.7054446173 0.7031246701 0.7006447059 0.6985984437 0.696217033)
5(0.7054073984 0.7030929178 0.700605769 0.6985640626 0.6961723819)
5(0.7053745925 0.7030612022 0.7005713374 0.6985321203 0.6961383417)
5(0.7053441789 0.7030291225 0.7005407564 0.6985013998 0.6961099673)
5(0.7053126598 0.7029953963 0.7005093184 0.698469698 0.6960816308)
5(0.7052782942 0.702959985 0.7004744952 0.6984344112 0.6960484544)
5(0.7052401745 0.7029209613 0.7004356897 0.6983971462 0.696011529)
5(0.7051995749 0.7028799354 0.7003939959 0.6983561635 0.6959706921)
5(0.7051561952 0.7028358242 0.7003486429 0.6983127766 0.6959294692)
5(0.7051108703 0.7027885677 0.7003021414 0.6982672105 0.6958846328)
5(0.7050609202 0.7027385706 0.700251275 0.6982185837 0.6958381643)
5(0.7050082007 0.7026846227 0.7001986994 0.6981667749 0.695788533)
5(0.7049517014 0.7026281387 0.7001410159 0.6981115132 0.6957360475)
5(0.7048914429 0.7025668268 0.7000804429 0.6980539999 0.6956805241)
5(0.7048268345 0.7025015045 0.7000163741 0.6979914655 0.6956216524)
5(0.704757916 0.7024332041 0.6999480087 0.697925592 0.6955612078)
5(0.7046845597 0.7023608607 0.6998759649 0.6978553788 0.6954968005)
5(0.7046060932 0.7022832339 0.6997998428 0.6977859148 0.695430533)
5(0.7045234612 0.7022014988 0.6997201723 0.6977114618 0.6953609751)
5(0.7044354573 0.7021154435 0.6996356518 0.6976329729 0.6952877185)
5(0.7043416612 0.7020243119 0.6995470022 0.6975514054 0.6952124789)
5(0.7042425875 0.701929814 0.6994550884 0.6974668393 0.69513783)
5(0.704138042 0.70182876 0.6993585766 0.6973783801 0.6950597791)
5(0.7040293512 0.7017239613 0.6992587556 0.6972882611 0.6949792494)
5(0.7039145471 0.7016148352 0.6991552021 0.6971952798 0.6948975591)
5(0.7037951704 0.7015013422 0.699048619 0.6971002328 0.6948156232)
5(0.7036701153 0.7013842424 0.6989391874 0.6970036604 0.6947330035)
5(0.7035409571 0.7012645489 0.6988279077 0.6969065834 0.6946524819)
5(0.7034091644 0.7011419193 0.6987152292 0.6968095857 0.6945718201)
5(0.7032754571 0.7010189043 0.6986023264 0.69671448 0.6944968053)
5(0.703141679 0.7008954978 0.6984913098 0.6966222302 0.6944262453)
5(0.7030092537 0.7007742774 0.6983830839 0.6965348304 0.6943613539)
5(0.7028804534 0.7006586167 0.6982809015 0.6964540282 0.6943033796)
5(0.7027594625 0.7005497915 0.6981868512 0.696381391 0.6942570882)
5(0.7026495405 0.7004510754 0.6981039232 0.6963212433 0.6942254816)
5(0.7025555871 0.7003675482 0.6980358585 0.6962759452 0.6942163929)
5(0.7024829084 0.700303238 0.6979859305 0.6962491213 0.6942338739)
5(0.7024367276 0.7002635053 0.6979582558 0.6962462194 0.6942772886)
5(0.702423594 0.700252608 0.697957748 0.6962721422 0.6943443208)
5(0.7024471411 0.7002750949 0.6979871006 0.6963314516 0.6944368419)
5(0.7025121543 0.7003348816 0.6980531295 0.6964245076 0.6945569773)
5(0.7026168377 0.7004339821 0.6981561011 0.6965507642 0.6947046)
5(0.7027672539 0.7005750963 0.6983015977 0.6967085731 0.6948817587)
5(0.7029586234 0.7007581007 0.698492079 0.6969004248 0.6950885144)
5(0.7031934605 0.7009852855 0.6987205944 0.6971227007 0.695323181)
5(0.7034668614 0.7012467387 0.6989847879 0.6973824749 0.695584108)
5(0.703775827 0.701543061 0.699286217 0.6976719287 0.6958649076)
5(0.7041186062 0.7018775437 0.6996247373 0.6979937773 0.6961664683)
5(0.704491419 0.7022441338 0.6999980401 0.6983475304 0.69648381)
5(0.7048914193 0.7026425306 0.700401313 0.698719862 0.6968129822)
5(0.7053226254 0.7030744123 0.7008404084 0.6991148372 0.6971585131)
5(0.7057883421 0.7035402888 0.7012957231 0.699527621 0.6975199452)
5(0.7062956409 0.7040430988 0.701783318 0.6999591653 0.6978944929)
5(0.7068603955 0.7045993317 0.7023153014 0.7004330451 0.6982999445)
5(0.7075435676 0.7052590696 0.7029397066 0.7009758864 0.6987705186)
5(0.7087370879 0.7065043107 0.7043615394 0.702189716 0.6999231419)
)


60
(
5(0.7054490742 0.7031845386 0.7005683996 0.6985182823 0.6960470091)
5(0.7054119447 0.703107933 0.7005728345 0.6985103319 0.6960903491)
5(0.7053841756 0.7030564815 0.7005606839 0.6984928041 0.6960936939)
5(0.7053567732 0.7030220203 0.7005288182 0.6984641836 0.6960681324)
5(0.7053229025 0.7029905338 0.7004896472 0.6984299154 0.6960265053)
5(0.7052859429 0.7029582197 0.7004506998 0.6983949769 0.6959826931)
5(0.7052514863 0.7029246036 0.7004150968 0.6983610812 0.6959472936)
5(0.7052189642 0.7028901157 0.7003812529 0.6983277528 0.6959160711)
5(0.7051846523 0.7028539502 0.7003468814 0.6982931694 0.6958841998)
5(0.7051472357 0.7028146705 0.7003085093 0.698255071 0.6958472648)
5(0.7051062903 0.7027733356 0.7002664663 0.6982133554 0.6958066593)
5(0.7050620051 0.7027281599 0.7002205818 0.6981691246 0.6957626246)
5(0.7050147648 0.7026804405 0.7001722657 0.6981216989 0.695716001)
5(0.7049641591 0.7026286015 0.7001198053 0.6980708378 0.6956674454)
5(0.7049107709 0.7025738497 0.7000646349 0.6980175647 0.6956158064)
5(0.7048524091 0.7025153346 0.700005478 0.6979602768 0.6955601818)
5(0.7047907596 0.7024523807 0.6999429041 0.6978995669 0.6955015579)
5(0.704724778 0.7023857966 0.6998764734 0.6978347278 0.6954392794)
5(0.7046537609 0.7023148441 0.6998052496 0.6977662258 0.6953740561)
5(0.704578779 0.7022396021 0.6997306214 0.6976937954 0.695305721)
5(0.7044984741 0.7021593174 0.6996513495 0.6976176708 0.6952325425)
5(0.7044131638 0.7020741783 0.6995673293 0.6975383614 0.6951577608)
5(0.7043230077 0.7019852258 0.6994795724 0.6974531288 0.6950791485)
5(0.7042272425 0.7018916111 0.6993870955 0.6973650222 0.6949971408)
5(0.7041258179 0.7017925228 0.6992895077 0.6972758823 0.6949119736)
5(0.7040194667 0.7016881063 0.6991884865 0.6971811131 0.6948242858)
5(0.7039077021 0.7015796606 0.6990827657 0.6970819185 0.6947333231)
5(0.7037900906 0.7014663737 0.698972482 0.696980191 0.6946395374)
5(0.7036667559 0.701348246 0.6988584814 0.6968759644 0.6945444182)
5(0.7035394347 0.7012256498 0.6987420114 0.69676887 0.6944496263)
5(0.7034072436 0.7011003322 0.6986223567 0.6966599468 0.6943541718)
5(0.7032712389 0.7009722769 0.6984998562 0.6965497998 0.6942578625)
5(0.7031336721 0.7008414232 0.6983770077 0.6964401287 0.6941624631)
5(0.7029948617 0.7007101223 0.6982543779 0.6963312785 0.6940710089)
5(0.7028573778 0.7005797531 0.6981337978 0.6962250256 0.693982526)
5(0.7027226541 0.7004526779 0.6980165931 0.6961237901 0.6939004659)
5(0.7025946417 0.7003329395 0.6979050747 0.6960290835 0.6938249039)
5(0.7024757167 0.700221246 0.6978032752 0.6959430428 0.6937592324)
5(0.7023713786 0.7001226041 0.6977138366 0.6958693688 0.6937095363)
5(0.7022857285 0.7000409468 0.6976406561 0.6958127974 0.6936809)
5(0.702224301 0.6999816684 0.6975885761 0.6957753282 0.6936780083)
5(0.7021935714 0.6999485388 0.6975609974 0.6957626989 0.6936987229)
5(0.7021983455 0.6999475037 0.6975627293 0.695780806 0.6937452037)
5(0.7022410808 0.6999829768 0.6975981491 0.6958312152 0.6938195455)
5(0.7023247335 0.7000580732 0.6976725887 0.6959160223 0.6939239364)
5(0.702452105 0.7001754474 0.6977880316 0.6960383728 0.6940577331)
5(0.7026235648 0.7003371875 0.6979468014 0.6961934809 0.6942256049)
5(0.7028378642 0.7005433601 0.6981500145 0.6963850915 0.694427054)
5(0.7030931493 0.7007910832 0.6983860442 0.6966140949 0.6946607452)
5(0.7033870562 0.7010751285 0.6986626806 0.6968789599 0.6949257704)
5(0.7037161204 0.701392126 0.6989776547 0.6971798491 0.6952268549)
5(0.7040776493 0.7017401822 0.699326767 0.6975156329 0.6955514785)
5(0.7044670896 0.7021201381 0.6997120361 0.6978890795 0.695908765)
5(0.704886146 0.7025325351 0.7001325279 0.6982930685 0.6962898265)
5(0.7053322622 0.7029799558 0.7005889804 0.6987293048 0.6966926308)
5(0.7058160548 0.7034657405 0.701082308 0.6991982535 0.6971181352)
5(0.7063407607 0.7039979299 0.7016236876 0.6996976956 0.6975677431)
5(0.7069319769 0.7045891373 0.7022061282 0.7002383985 0.6980616102)
5(0.7076410233 0.7052987283 0.7029196866 0.700880346 0.6986271282)
5(0.7088594785 0.7066000698 0.704383287 0.7022215905 0.6999143293)
)


60
(
5(0.7053657106 0.7030813309 0.700461978 0.6983928231 0.6959156713)
5(0.7053191141 0.7030028864 0.7004535723 0.6983768374 0.6959419708)
5(0.7052868409 0.702948538 0.7004342555 0.6983545598 0.6959363721)
5(0.7052581373 0.702912523 0.7004004261 0.6983240229 0.6959078819)
5(0.7052239037 0.7028803276 0.7003612895 0.698289325 0.6958668281)
5(0.7051867213 0.702847405 0.7003219688 0.6982534724 0.695823695)
5(0.7051511354 0.7028120057 0.7002853184 0.6982183129 0.6957864348)
5(0.7051166239 0.7027757007 0.7002489593 0.6981824807 0.6957532368)
5(0.7050796733 0.7027370706 0.7002117562 0.6981452647 0.6957180408)
5(0.7050398475 0.7026954314 0.7001705735 0.6981048123 0.6956782702)
5(0.7049959089 0.7026508732 0.7001257616 0.6980603311 0.6956343412)
5(0.704948934 0.7026026423 0.7000762025 0.6980119838 0.6955869079)
5(0.7048978209 0.7025513424 0.7000241608 0.6979613096 0.6955369561)
5(0.7048434873 0.7024957206 0.6999682362 0.6979064941 0.6954834408)
5(0.7047853016 0.7024366588 0.6999086793 0.697848708 0.6954273715)
5(0.7047232617 0.7023731971 0.6998448768 0.6977862121 0.6953676738)
5(0.7046564802 0.7023062612 0.6997775508 0.697721008 0.6953031262)
5(0.704584534 0.7022343449 0.6997048624 0.697650564 0.6952353856)
5(0.704508958 0.7021576025 0.6996284727 0.6975766065 0.6951637725)
5(0.7044279799 0.7020765608 0.6995477917 0.6974980908 0.6950880318)
5(0.704341828 0.701990372 0.6994618597 0.6974155766 0.69500928)
5(0.7042504653 0.7019002413 0.6993721134 0.6973287861 0.6949270564)
5(0.7041536214 0.7018038354 0.6992771621 0.6972379745 0.6948391729)
5(0.7040514427 0.7017024042 0.6991776646 0.6971435048 0.6947492772)
5(0.7039439688 0.7015963329 0.6990732172 0.6970436925 0.6946560924)
5(0.7038303027 0.7014859378 0.6989640892 0.6969385496 0.6945584855)
5(0.7037116956 0.7013701123 0.6988507368 0.6968306845 0.6944579804)
5(0.703587252 0.7012499212 0.6987325501 0.6967216325 0.6943548981)
5(0.7034588313 0.7011243595 0.6986112588 0.6966083145 0.6942488508)
5(0.7033256905 0.7009950413 0.6984864217 0.6964916383 0.6941418103)
5(0.703189425 0.7008634818 0.6983588009 0.6963727421 0.69403197)
5(0.7030484703 0.700728959 0.6982286607 0.6962523487 0.6939224917)
5(0.7029069793 0.7005930594 0.6980976653 0.696132685 0.69381359)
5(0.7027663404 0.7004575265 0.697968397 0.6960140903 0.6937098859)
5(0.7026277173 0.700324115 0.6978410824 0.6958977878 0.6936087126)
5(0.7024941568 0.7001954103 0.6977180671 0.6957863404 0.6935130023)
5(0.7023691506 0.7000735285 0.6976016461 0.6956823118 0.6934247457)
5(0.7022563751 0.6999628877 0.6974966745 0.6955878896 0.6933459423)
5(0.7021599946 0.6998670118 0.6974055411 0.6955069822 0.693281278)
5(0.702086297 0.6997906634 0.6973326315 0.6954437642 0.6932383931)
5(0.702038559 0.6997391228 0.6972825639 0.6954007358 0.6932197208)
5(0.7020238382 0.699716973 0.6972598134 0.6953839654 0.6932266287)
5(0.702045068 0.6997275288 0.6972694818 0.6953975092 0.6932601648)
5(0.7021070708 0.6997780365 0.6973150057 0.6954466855 0.6933209128)
5(0.7022102374 0.6998723559 0.6974013467 0.6955319041 0.693415106)
5(0.7023561299 0.7000109185 0.6975315461 0.6956542695 0.6935393619)
5(0.7025450985 0.7001933159 0.697705865 0.6958145231 0.6937002172)
5(0.7027762969 0.7004195406 0.6979223594 0.6960118684 0.6938959196)
5(0.703050173 0.7006862966 0.6981781873 0.6962465356 0.694129766)
5(0.7033614684 0.7009898047 0.6984724169 0.6965226933 0.6943989054)
5(0.703707953 0.701324139 0.6988023728 0.6968342797 0.6947049359)
5(0.7040886356 0.7016912062 0.6991663324 0.6971831461 0.6950484423)
5(0.7044950397 0.7020894942 0.699565786 0.697572681 0.6954248437)
5(0.7049293224 0.7025169932 0.700000351 0.6979909145 0.6958368497)
5(0.7053938026 0.7029807183 0.7004703163 0.6984511312 0.6962818167)
5(0.7058931788 0.7034841097 0.7009826898 0.698950625 0.696761291)
5(0.7064373674 0.7040376863 0.7015487111 0.6994970971 0.69727531)
5(0.7070474745 0.7046573082 0.7021886157 0.7001062117 0.6978381763)
5(0.7077777912 0.7054023721 0.7029560589 0.7008272286 0.6985026774)
5(0.7090104984 0.7067014586 0.7044848052 0.7023180824 0.7000290247)
)


60
(
5(0.7052939397 0.7029933743 0.7003692081 0.6982834777 0.6957997591)
5(0.705240931 0.7029139784 0.7003511671 0.6982617403 0.6958127007)
5(0.7052056621 0.7028568616 0.7003265056 0.6982356431 0.6958004758)
5(0.7051752893 0.7028194301 0.7002907531 0.6982037053 0.6957699215)
5(0.7051406288 0.7027870225 0.7002515576 0.6981680818 0.6957289203)
5(0.7051032039 0.7027529449 0.7002121595 0.6981320343 0.6956857395)
5(0.7050666256 0.7027161762 0.7001735863 0.6980948942 0.6956475397)
5(0.7050299433 0.7026779565 0.7001355049 0.6980575419 0.6956117708)
5(0.7049910861 0.7026372352 0.7000951743 0.6980175155 0.6955742257)
5(0.7049483861 0.7025931924 0.7000521288 0.6979746589 0.6955316375)
5(0.7049020143 0.7025456846 0.7000038917 0.6979277699 0.6954851673)
5(0.7048515717 0.7024945356 0.6999522392 0.6978766736 0.6954343328)