/*--------------------------------*- C++ -*----------------------------------*\
| =========                 |                                                 |
| \\      /  F ield         | OpenFOAM: The Open Source CFD Toolbox           |
|  \\    /   O peration     | Version:  2.3.1                                 |
|   \\  /    A nd           | Web:      www.OpenFOAM.org                      |
|    \\/     M anipulation  |                                                 |
\*---------------------------------------------------------------------------*/
FoamFile
{
    version     2.0;
    format      ascii;
    class       dictionary;
    location    "constant";
    object      O2;
}
// * * * * * * * * * * * * * * * * * * * * * * * * * * * * * * * * * * * * * //

O2_table
60
(

60
(
5(0.0503250774 0.0442829669 0.0364274455 0.0303220504 0.0232944476)
5(0.05100881401 0.04595102631 0.03729994718 0.03114955064 0.02424779001)
5(0.05346038828 0.04514194017 0.0378448891 0.03189512104 0.0274371592)
5(0.05516229261 0.04490790856 0.03751562466 0.03263694209 0.02398100135)
5(0.05395484524 0.04510986536 0.03772911552 0.03192652011 0.02507043845)
5(0.05217890281 0.04533605729 0.03901275063 0.03203182201 0.02590269166)
5(0.05175262711 0.04547329556 0.03888179046 0.03248216774 0.02515271305)
5(0.05242672652 0.04547293779 0.03836266683 0.03226939831 0.02634948786)
5(0.05199163972 0.04539951907 0.03850069726 0.03218087009 0.02579736422)
5(0.05206984423 0.04532106179 0.03821292341 0.03226657465 0.02567258654)
5(0.05200997276 0.04532884165 0.03824865443 0.03224520532 0.02567392147)
5(0.05202295479 0.04533101519 0.03844662757 0.03224939855 0.02583109902)
5(0.05215520517 0.04531030604 0.03850362895 0.03215677868 0.0257615947)
5(0.05198672715 0.04528350212 0.03847144278 0.03229100376 0.02584371648)
5(0.05211595183 0.04533790277 0.03853270794 0.03221737496 0.02585453636)
5(0.05205953809 0.04531286437 0.03848614747 0.03220550426 0.02584230296)
5(0.0520531674 0.04532088476 0.03848439817 0.03220061135 0.02578604951)
5(0.05205457929 0.04532198484 0.03848277274 0.03215627371 0.02576708424)
5(0.05206682473 0.04531121514 0.03847866379 0.03217062572 0.02576875738)
5(0.05201119972 0.04524201767 0.03842994249 0.0320844772 0.02578616083)
5(0.05202083794 0.04528349653 0.03848070839 0.03210841724 0.02579802095)
5(0.05200644884 0.04528444344 0.03845267999 0.03227708191 0.02591234032)
5(0.05194753045 0.04525395254 0.03846119111 0.03217112769 0.0258190573)
5(0.05195979135 0.04518825144 0.0384491254 0.03217179311 0.02584325143)
5(0.05192093468 0.04517052541 0.0384153823 0.03212141079 0.02581061458)
5(0.05190098781 0.04516418192 0.03834472566 0.03205464978 0.02582661913)
5(0.05186722278 0.04517219843 0.03839154613 0.03202997547 0.02583241626)
5(0.05186170179 0.04515400248 0.03834443843 0.03202040975 0.02585485954)
5(0.05178624478 0.04510892282 0.03836807088 0.03205299182 0.02586467813)
5(0.05175006008 0.04505100831 0.03837530492 0.03212706708 0.02592340649)
5(0.05168468095 0.04500114118 0.03832356439 0.03208648133 0.02594483711)
5(0.05164502972 0.04499479256 0.03836856922 0.03219768752 0.02618529618)
5(0.05161603358 0.04495652492 0.03834460668 0.03222322056 0.02606000906)
5(0.05156236209 0.04490765728 0.03829816433 0.03228584555 0.02633853879)
5(0.05150826984 0.04490189864 0.03833300874 0.032335192 0.02641598425)
5(0.05146595489 0.04482781981 0.03822217788 0.03237076419 0.02651018276)
5(0.05142492433 0.04490884643 0.03845817701 0.03254124295 0.02659653773)
5(0.0513935716 0.04485214578 0.03849721793 0.0325722814 0.02721623262)
5(0.05134527345 0.04487522289 0.03849253865 0.03272183657 0.0268880034)
5(0.05126375702 0.04487507118 0.03845790996 0.03278026559 0.02889032806)
5(0.05125757765 0.04497016806 0.03866971933 0.03298702294 0.02886636392)
5(0.0512938246 0.04503137186 0.03882053236 0.03374877864 0.02890660227)
5(0.05131468229 0.04517916422 0.03904052771 0.03526940089 0.02886717823)
5(0.05133509068 0.04519959405 0.03878900081 0.0352946033 0.02875403727)
5(0.05137737995 0.04535324512 0.03911356797 0.03520830935 0.02882377418)
5(0.05152489579 0.04544566073 0.03952916929 0.03519495318 0.02881504948)
5(0.05167305913 0.04575075051 0.04120697946 0.03516328285 0.02879467188)
5(0.05190242655 0.04639844012 0.04178232813 0.03514401432 0.02879256012)
5(0.05204961389 0.04647363184 0.04183053785 0.03513279209 0.02880146743)
5(0.05228088752 0.04834830739 0.04180569657 0.03510315916 0.02880715422)
5(0.05267455613 0.04832939757 0.04177983287 0.03512363348 0.02884993803)
5(0.05420218219 0.04829917482 0.04175921296 0.03512740501 0.0288976024)
5(0.05473479337 0.04827749682 0.04174678559 0.03514266077 0.02894194835)
5(0.05481745091 0.04824736584 0.04176428202 0.03516962451 0.0290391076)
5(0.05472369139 0.04821888664 0.04176886222 0.0352333923 0.02914780894)
5(0.05457803779 0.04819484321 0.04177847815 0.03529852445 0.02928914733)
5(0.05422546192 0.04816294092 0.04177056753 0.03540977074 0.02961349086)
5(0.05387754279 0.04794452446 0.04176310882 0.03566058959 0.02984169228)
5(0.05358867666 0.0476320996 0.04155170349 0.03685080619 0.03052062036)
5(0.0532325465 0.0468531912 0.0406731656 0.0342220429 0.0292680281)
)


60
(
5(0.04994519791 0.04330107696 0.03606583153 0.02966187999 0.0229227332)
5(0.050049107 0.04328383268 0.03621424248 0.02976957128 0.02311743052)
5(0.05011084637 0.04326547122 0.03630834252 0.02981728855 0.02326593731)
5(0.05011532861 0.04324765278 0.03630907784 0.02981447006 0.02328362281)
5(0.05008588546 0.04322632738 0.0362581914 0.02978337231 0.02321569569)
5(0.05003659393 0.04320603276 0.03621031143 0.0297617076 0.0231507271)
5(0.05000893926 0.04318521952 0.0361968118 0.02973712576 0.02312483073)
5(0.0499987373 0.04317216698 0.03618422377 0.029722823 0.02312208831)
5(0.04999250065 0.04316563611 0.036180785 0.02971995921 0.023124575)
5(0.04997495555 0.04315217549 0.03617104845 0.02970827676 0.02312385672)
5(0.0499673097 0.04313697786 0.0361604906 0.02969765272 0.02311257517)
5(0.04994844856 0.04312625921 0.03614476012 0.02968895814 0.02309933669)
5(0.04993495307 0.04311357029 0.03613357819 0.02968299873 0.02309579069)
5(0.04992285284 0.043103026 0.03612492101 0.02967196792 0.02309192707)
5(0.04991133537 0.04309410714 0.0361181549 0.02966785649 0.02309120961)
5(0.04989681128 0.04308168522 0.03610774762 0.02966323612 0.02309183723)
5(0.04988540837 0.04306959266 0.03609646967 0.02965640785 0.02309337329)
5(0.04987183636 0.04305643172 0.03608687984 0.02965345392 0.02309618519)
5(0.04985656676 0.04304592817 0.03607782873 0.02964984176 0.02310082276)
5(0.04984117399 0.04303269857 0.03606933868 0.0296465055 0.0231044285)
5(0.04982462455 0.04301859502 0.03605940848 0.02964635572 0.02311474435)
5(0.04980815864 0.0430030639 0.03605167775 0.02964297804 0.0231254802)
5(0.04978945861 0.04298890014 0.0360430032 0.02964323557 0.02313656016)
5(0.04976621216 0.0429721697 0.03603270419 0.0296486498 0.02315296966)
5(0.04974476285 0.0429563336 0.03602685986 0.02965127447 0.02317131957)
5(0.0497191848 0.04293824987 0.03601398589 0.02965516754 0.02319346834)
5(0.04969299125 0.04292301343 0.03600725337 0.02966141087 0.02322007478)
5(0.04966636892 0.0429027812 0.03600286557 0.0296719323 0.02325313206)
5(0.0496381013 0.04288311146 0.0359974201 0.02968727354 0.02328609325)
5(0.04960733585 0.04286624146 0.03599576024 0.02970442387 0.02333010273)
5(0.04957675911 0.04285003273 0.03599604363 0.02972772881 0.02337635782)
5(0.04954570857 0.04283519437 0.03600345747 0.02975558391 0.02343201008)
5(0.04951472211 0.04282242779 0.03601046157 0.02979080505 0.023495645)
5(0.04948364319 0.0428126283 0.0360251353 0.02983243894 0.02356760487)
5(0.0494550608 0.0428060809 0.03604441116 0.02988208227 0.02364741128)
5(0.04942543547 0.04280370217 0.0360708153 0.02993847886 0.02373920422)
5(0.04940261434 0.04280835677 0.03610465166 0.03000993524 0.02384102975)
5(0.04938001686 0.04281695966 0.03614856842 0.03008803335 0.02395328421)
5(0.04936336909 0.04283877222 0.03620273193 0.0301746522 0.02407774954)
5(0.04935525038 0.04286414925 0.03626788116 0.0302779915 0.02421487407)
5(0.04935539034 0.04290945495 0.03635284578 0.03039422917 0.02436893745)
5(0.04936949146 0.04295687884 0.03644408755 0.0305267474 0.02453694426)
5(0.04939263438 0.04302672414 0.03655750042 0.03067656352 0.02472355863)
5(0.04943475512 0.04312164263 0.03668919425 0.03084172688 0.02492532135)
5(0.04949798025 0.04322591269 0.03684327729 0.03102646157 0.02514266165)
5(0.04958620206 0.04335552709 0.03701523527 0.03123052048 0.02537434896)
5(0.04970034496 0.04351002636 0.03720857571 0.03145348234 0.02562161296)
5(0.04984212617 0.04369300548 0.03742248714 0.03169400049 0.02588317824)
5(0.05001087695 0.04389409815 0.03766037558 0.03195133468 0.026153111)
5(0.05021596275 0.04412053396 0.03792118483 0.03222156882 0.02643338538)
5(0.05045013771 0.04437445903 0.03820512518 0.03250867824 0.02672243369)
5(0.05072078428 0.04465618296 0.03851300822 0.03280959587 0.0270173922)
5(0.05102236164 0.04496459433 0.03883888152 0.03312437418 0.02732994965)
5(0.05136345561 0.0453080469 0.03918867133 0.0334548843 0.02764783051)
5(0.05175047254 0.04567691978 0.03956391904 0.03380419012 0.02799398588)
5(0.05218354693 0.04608435525 0.03997026148 0.03418409039 0.02837371792)
5(0.05267501722 0.04653840456 0.04041631599 0.03460816665 0.02880957123)
5(0.05324073116 0.04705537615 0.04092994912 0.03510315007 0.02932924304)
5(0.05394546593 0.04769345565 0.04155923341 0.03572916473 0.03000166161)
5(0.05597959331 0.04943387642 0.04429076953 0.03787577276 0.03160955339)
)


60
(
5(0.04983559928 0.04305285731 0.03599404797 0.02951057918 0.02285959604)
5(0.04984598265 0.04302927868 0.03600582254 0.02952200102 0.02287152195)
5(0.04984755875 0.04301939897 0.03601196175 0.02952308775 0.02289320577)
5(0.04984577706 0.04301348245 0.0360084355 0.0295190414 0.02289525958)
5(0.04983522823 0.04300841771 0.03599597166 0.02951172018 0.02287673267)
5(0.0498277521 0.04300445334 0.03598956827 0.0295094507 0.02286696761)
5(0.04982435703 0.04300362321 0.03598806763 0.02950571409 0.02286450485)
5(0.04982290723 0.04300159347 0.03598703529 0.02950561754 0.02286705915)
5(0.04981916464 0.04299975949 0.03598528991 0.0295057076 0.02287259573)
5(0.04981740633 0.04299882273 0.03598645829 0.02950752558 0.0228735238)
5(0.049817237 0.04299838237 0.03598480125 0.0295094386 0.02287934237)
5(0.0498166138 0.04299978142 0.03598654423 0.02951430497 0.02288750482)
5(0.04981400433 0.04299881458 0.03598830541 0.02951933453 0.02289746443)
5(0.04981343762 0.04299886911 0.03599182746 0.02952581369 0.02290925367)
5(0.04981207493 0.04300032254 0.03599416409 0.02953396891 0.0229233859)
5(0.04981302805 0.04300157049 0.03599976144 0.02954343931 0.02293990409)
5(0.04981020926 0.04300419393 0.0360032779 0.0295524973 0.02295742275)
5(0.04980886124 0.04300555463 0.03601015619 0.02956370151 0.02297927769)
5(0.04980742087 0.0430064173 0.03601426156 0.02957742118 0.02300220407)
5(0.04980496926 0.04300831389 0.03602205815 0.02959152415 0.02302695602)
5(0.04980426637 0.04300909033 0.03602850825 0.02960755635 0.02305280175)
5(0.04979871431 0.04300923359 0.03603786163 0.02962622499 0.0230839721)
5(0.04979486878 0.043009885 0.03604452619 0.02964283681 0.02311632593)
5(0.04978927124 0.04301050745 0.03605327173 0.0296640407 0.02315146309)
5(0.04978405962 0.0430115514 0.03606290649 0.02968712907 0.02318988963)
5(0.04977587134 0.04301189537 0.03607460674 0.02971175579 0.0232340109)
5(0.04976786569 0.0430147863 0.036089029 0.02974081611 0.02327959272)
5(0.04976131342 0.04301382294 0.03610152176 0.029769529 0.02333148119)
5(0.04974993612 0.04301709025 0.03611916608 0.0298063609 0.02338641273)
5(0.04974114951 0.04302057658 0.03613738557 0.02984270844 0.02344930967)
5(0.04973042574 0.04302238596 0.03615833083 0.02988606239 0.0235152505)
5(0.049720768 0.0430292628 0.0361855665 0.02993486392 0.02358894849)
5(0.04971104283 0.04303973999 0.03621329403 0.02998775408 0.02366934354)
5(0.04970209869 0.04304741407 0.03624676565 0.0300466876 0.02375663734)
5(0.04969464138 0.04306222488 0.03628830851 0.03011273773 0.02385075996)
5(0.04969195899 0.04307932405 0.03633031061 0.03018632287 0.0239525368)
5(0.0496869073 0.04310195657 0.03638146728 0.03026767544 0.02406498655)
5(0.04968384798 0.04312820098 0.0364397131 0.03035627205 0.02418497503)
5(0.0496852885 0.04316012252 0.03650608057 0.03045324371 0.02431338342)
5(0.04969150303 0.04320167125 0.03658269466 0.030561135 0.02444687328)
5(0.04970492568 0.04324897488 0.03666539782 0.03067950308 0.02458301214)
5(0.04972161074 0.04330465122 0.03676235981 0.03080574426 0.02472678881)
5(0.04975017196 0.04337326116 0.03687335319 0.03094195362 0.02488157295)
5(0.04979107169 0.04345474804 0.03700095623 0.03108575245 0.02505216198)
5(0.04984793184 0.04355601754 0.03714514063 0.03123851907 0.0252355689)
5(0.0499236368 0.04367288953 0.03729799865 0.03140788059 0.02543575623)
5(0.05002387982 0.04381155547 0.03746361229 0.03159481195 0.0256503702)
5(0.05015098106 0.04397274978 0.03764503258 0.03179992245 0.02587977507)
5(0.05030823712 0.04415531983 0.03784447053 0.03202409674 0.02612556023)
5(0.0504971829 0.04434907718 0.03806255315 0.03226712663 0.02638934962)
5(0.05071753444 0.04456557934 0.03830517476 0.03252976849 0.0266730825)
5(0.05096652086 0.04480665602 0.0385735149 0.03281407065 0.0269765114)
5(0.05124199529 0.04507771674 0.03886749907 0.03312359024 0.02730289533)
5(0.05154763371 0.04538023726 0.03919400103 0.03346097625 0.0276605357)
5(0.05188881751 0.04572463313 0.03955705908 0.03383027099 0.02804985121)
5(0.05228110941 0.04611582945 0.03996445619 0.03424299852 0.02848707453)
5(0.0527417323 0.04656689776 0.04043291645 0.03471132662 0.0289866471)
5(0.05330719482 0.04711134614 0.04098727687 0.03526868471 0.02958129377)
5(0.05411136614 0.04785045172 0.04172015629 0.03598438867 0.03033986074)
5(0.05672471397 0.05020857991 0.04509691411 0.0389714558 0.03254469069)
)


60
(
5(0.04985018533 0.04301269907 0.03606176537 0.02955641756 0.02294863253)
5(0.04985020313 0.04302850711 0.03603096826 0.02954463419 0.02289080991)
5(0.04985304953 0.04304649876 0.03602229585 0.02954315766 0.02287758392)
5(0.04986051011 0.04305996317 0.03603140871 0.02955207361 0.02288253225)
5(0.04987564822 0.04307379572 0.03604989343 0.02956654487 0.02289961035)
5(0.04989511614 0.04308950082 0.0360697541 0.02958273154 0.022922308)
5(0.04991087464 0.04310230466 0.0360847014 0.02959741329 0.02293983575)
5(0.04992189408 0.04311477492 0.03609551901 0.02961050538 0.02295301885)
5(0.04993263518 0.04312784088 0.03610465071 0.02962241671 0.02296731337)
5(0.04994393133 0.0431392921 0.03611670867 0.02963654045 0.02298410985)
5(0.04995543639 0.04315315369 0.03613086245 0.02965413707 0.02300643603)
5(0.04996887551 0.04316642681 0.0361473006 0.02967415262 0.02303050114)
5(0.04998217755 0.04318086888 0.03616433282 0.0296936435 0.02305637684)
5(0.04999391108 0.04319523628 0.03618156812 0.02971424589 0.02308575282)
5(0.05000526593 0.04321092095 0.03619890165 0.02973795503 0.02311437476)
5(0.05001784927 0.04322551782 0.03621706076 0.02976290614 0.02314733305)
5(0.05003152897 0.04324091027 0.03623675993 0.02978752728 0.02318229253)
5(0.05004283971 0.04325771821 0.03625911841 0.0298166068 0.02321994077)
5(0.05005655963 0.04327310354 0.036279866 0.02984589588 0.02326120997)
5(0.05006805827 0.04329006293 0.03630431135 0.02987877392 0.02330342814)
5(0.05007998768 0.04330811033 0.03632625446 0.02990974941 0.02334845457)
5(0.05009291614 0.04332313696 0.03635118559 0.02994626017 0.02339848521)
5(0.05010451124 0.04334087321 0.03637633748 0.0299806918 0.02344948914)
5(0.05011318286 0.04335848035 0.03640563145 0.03001860562 0.02350419399)
5(0.05012330084 0.04337734294 0.0364313533 0.03005993732 0.02355965167)
5(0.05013324742 0.04339379023 0.03646056283 0.0301038651 0.02362193743)
5(0.05014258345 0.04341235314 0.03649168138 0.03015044806 0.02368821636)
5(0.05015173949 0.04343137159 0.03652480857 0.03020004075 0.02375686642)
5(0.05016018646 0.04345120687 0.03655982339 0.03025459553 0.02383354687)
5(0.05016867777 0.04347252992 0.03659735369 0.03030990093 0.02391128999)
5(0.05017736714 0.04349537957 0.03663772998 0.03037172636 0.02399816079)
5(0.05018613523 0.04352002655 0.03668516203 0.0304381049 0.02408816027)
5(0.05019513463 0.04354670571 0.03672933622 0.03051001003 0.02418590759)
5(0.05020492182 0.04357533354 0.03678127289 0.03058575024 0.02428776167)
5(0.05021491939 0.04360655263 0.03683752628 0.03066763977 0.02439880173)
5(0.05022604526 0.04363990832 0.03689772633 0.03075505955 0.02451315814)
5(0.05023802745 0.04367674368 0.03696504557 0.03084893429 0.02463740284)
5(0.05025063052 0.04371618112 0.03703408427 0.03095005807 0.02477104528)
5(0.05026487957 0.04375924817 0.03711048201 0.03105789859 0.02490615278)
5(0.05028091597 0.04380674496 0.03719248774 0.03117295188 0.02504468797)
5(0.05029897173 0.04385841584 0.03728129756 0.03129461089 0.02517894413)
5(0.05032229792 0.04391611619 0.03737929011 0.03142295762 0.02531685628)
5(0.05035114346 0.04398149661 0.03748864719 0.03155393873 0.0254637734)
5(0.05038992719 0.04405686089 0.03761019561 0.03168809089 0.02562272041)
5(0.05044157867 0.04414507027 0.03774251622 0.03182915149 0.02579504439)
5(0.05051201257 0.04425126923 0.03788594884 0.03198337456 0.0259794668)
5(0.05060682115 0.04437919896 0.03803486186 0.03215305531 0.02617694383)
5(0.05072842417 0.04452713814 0.03819803496 0.03233997361 0.02638946898)
5(0.05088671354 0.04469417824 0.03837628159 0.03254465688 0.02661656519)
5(0.05107497432 0.04487810488 0.03857462081 0.03276671615 0.02686377281)
5(0.05130049534 0.04508267151 0.03879546433 0.03300875436 0.02713170249)
5(0.05155929143 0.04531235969 0.03904133918 0.03327173562 0.02742209137)
5(0.05184230508 0.0455697575 0.03931349695 0.03356101664 0.02774099294)
5(0.05215245568 0.04586195637 0.03961756154 0.03388205236 0.02809287968)
5(0.05249566374 0.04619611259 0.03996329855 0.03424268072 0.0284853794)
5(0.05288612981 0.04657976791 0.04035893572 0.03465340814 0.0289315092)
5(0.0533444928 0.04703691921 0.04082317892 0.0351277609 0.0294458733)
5(0.05392837836 0.04760800738 0.04139883029 0.03570892462 0.03006465909)
5(0.0547859269 0.04841729145 0.04220746351 0.03648660732 0.03087905244)
5(0.05759162163 0.05185737622 0.04596840449 0.03951759155 0.03381401691)
)


60
(
5(0.04993979203 0.04308202795 0.03621346421 0.02971282096 0.02313183545)
5(0.04996468281 0.04315195189 0.03617886002 0.02970553787 0.02305009244)
5(0.04998689554 0.04320492184 0.03617990014 0.02971571094 0.02303187384)
5(0.05001292966 0.04324225556 0.03620997789 0.02974315399 0.02305158576)
5(0.05005092956 0.04327594367 0.03625345701 0.02977859355 0.0230948331)
5(0.05009400413 0.0433097356 0.03629611548 0.0298146131 0.02314399761)
5(0.0501293249 0.04334040973 0.03632873063 0.02984612777 0.02318095896)
5(0.05015591929 0.04336851727 0.03635407405 0.02987240695 0.02320775585)
5(0.05017988943 0.04339506292 0.03637648094 0.02989967785 0.02323494106)
5(0.0502055254 0.04342348788 0.03640231309 0.02992826601 0.0232671849)
5(0.05023164441 0.04345001851 0.03643085257 0.02996098432 0.02330512359)
5(0.05025939306 0.04347894405 0.0364624382 0.02999417497 0.02334572014)
5(0.0502860867 0.04350785034 0.03649337608 0.03003020054 0.02338857497)
5(0.05031418321 0.04353562811 0.03652619057 0.03006620642 0.02343183915)
5(0.05033881301 0.0435651216 0.03655797531 0.03010485129 0.023478417)
5(0.05036457346 0.04359389594 0.03659364276 0.030144533 0.02352758949)
5(0.05039176516 0.0436249235 0.03662746688 0.03018621968 0.02357908858)
5(0.05041854274 0.04365544141 0.03666337109 0.03023241642 0.02363355533)
5(0.05044537566 0.04368610751 0.03670174412 0.0302758193 0.02369069761)
5(0.05047242149 0.04371855167 0.03674037048 0.03032425702 0.02375091556)
5(0.05049925039 0.04375095375 0.03677945002 0.03037369731 0.02381305301)
5(0.05052532672 0.04378293866 0.03682071336 0.03042453491 0.02387955896)
5(0.05055211126 0.0438164212 0.03686310208 0.03047806472 0.02394721618)
5(0.05057864076 0.04384989865 0.03690608335 0.03053328723 0.02401908212)
5(0.05060433111 0.04388337317 0.03695033466 0.0305907071 0.02409322737)
5(0.05062982128 0.04392047133 0.03699735945 0.03065131703 0.02417275617)
5(0.0506547788 0.04395226575 0.03704573384 0.03071557366 0.02425499537)
5(0.0506805902 0.04398863893 0.03709570608 0.03078263214 0.02434158864)
5(0.0507058125 0.04402573112 0.03714748092 0.03085244932 0.02443371366)
5(0.0507312922 0.04406356432 0.0372019718 0.03092584561 0.02453059481)
5(0.05075609067 0.04410229964 0.03725975718 0.03100360323 0.024632379)
5(0.05078069666 0.04414266181 0.03732026959 0.03108625851 0.02474164805)
5(0.05080547342 0.04418399711 0.03738367256 0.03117293353 0.02485192428)
5(0.05083022821 0.04422840582 0.03745011184 0.03126429995 0.02496990126)
5(0.05085556893 0.04427352377 0.0375199125 0.03136002124 0.02509281013)
5(0.05088056626 0.04431992303 0.03759249774 0.031460566 0.02522161874)
5(0.0509048099 0.04436811028 0.03766985541 0.03156668276 0.02535786751)
5(0.05092893426 0.0444171419 0.03775048974 0.03167740135 0.02550119325)
5(0.05095230806 0.04446692256 0.03783419526 0.03179310808 0.02564641143)
5(0.05097567103 0.04451884443 0.03792103667 0.03191328715 0.02578932114)
5(0.05099973581 0.04457289184 0.03801156081 0.03203863435 0.02592862077)
5(0.0510262308 0.04463030743 0.03810750983 0.03216652895 0.02606779959)
5(0.05105807976 0.0446920936 0.03821219666 0.03229393722 0.02621131744)
5(0.05109873615 0.04476068357 0.03832543888 0.03242170228 0.02636592784)
5(0.0511525931 0.04484090744 0.03844827091 0.03255372042 0.02653215662)
5(0.05122262492 0.04493709602 0.03857639549 0.03269671907 0.02670996561)
5(0.05131802935 0.0450553114 0.03871229656 0.03285438173 0.0268986095)
5(0.05144136627 0.04519591514 0.0388609879 0.03302991448 0.02709996547)
5(0.05160115712 0.04535912976 0.03902780072 0.03322043961 0.02731641918)
5(0.05179970532 0.04554251871 0.03921544517 0.03343013486 0.02755033496)
5(0.05203678434 0.04574955691 0.03942844953 0.03365803137 0.02780369065)
5(0.052310331 0.04598860936 0.03966826057 0.03390806496 0.02808011007)
5(0.05261705743 0.04626052632 0.03993602794 0.03418480558 0.02838372085)
5(0.05295636721 0.04656911178 0.04023585816 0.03449092368 0.02871919218)
5(0.05333310494 0.04691949433 0.04057882797 0.03483870934 0.02909928446)
5(0.05375656593 0.04732240841 0.0409735015 0.03524030785 0.02953561356)
5(0.05425177544 0.04780046029 0.04144524265 0.03571633777 0.03004880111)
5(0.05486918367 0.04840103756 0.04205148833 0.0363107962 0.03067528883)
5(0.05577439421 0.04928139771 0.04293816856 0.03714668347 0.03152804077)
5(0.05872912423 0.05267003692 0.04714018473 0.04065285245 0.03516161008)
)


60
(
5(0.05007932951 0.0432195198 0.03642261908 0.02994281387 0.02338013694)
5(0.05014779371 0.04335245027 0.036405018 0.02995280992 0.02329878444)
5(0.05019838695 0.04344539176 0.03642750745 0.0299827382 0.02328963076)
5(0.05024642816 0.04350641588 0.03648134727 0.03003088236 0.02332915497)
5(0.05030801048 0.04356029761 0.03654885674 0.03008699829 0.02339685426)
5(0.05037439115 0.04361467059 0.03661244734 0.03014298604 0.02346932883)
5(0.05042785398 0.04366297827 0.03666412772 0.03019123094 0.02352513399)
5(0.05047105101 0.04370679037 0.0367039366 0.03023345501 0.02356735535)
5(0.05051025731 0.04375004061 0.0367419758 0.03027525656 0.02360914306)
5(0.05055084392 0.04379162437 0.03678134952 0.03031948206 0.0236565681)
5(0.05059253532 0.04383541468 0.03682631395 0.0303668004 0.02371088349)
5(0.05063433148 0.04387780875 0.03687200083 0.03041606327 0.02376759782)
5(0.05067628397 0.04392131098 0.03691938432 0.03046672769 0.02382646618)
5(0.05071632081 0.04396427582 0.03696569447 0.03051808065 0.0238855656)
5(0.05075718482 0.0440078389 0.03701332169 0.03057181641 0.02394800708)
5(0.05079745153 0.04405226141 0.03706228423 0.03062647713 0.02401219544)
5(0.05083824506 0.04409616626 0.0371123143 0.03068443371 0.02408065451)
5(0.05087977524 0.04414235942 0.03716469153 0.03074310037 0.02415095532)
5(0.05092037911 0.04418800657 0.03721688187 0.03080535146 0.02422469595)
5(0.0509622449 0.04423469388 0.03727155684 0.03086889915 0.02430081942)
5(0.05100361065 0.04428224645 0.03732695144 0.03093397388 0.0243791664)
5(0.05104425259 0.0443294613 0.03738247392 0.03100164119 0.02446126675)
5(0.05108619705 0.04437769766 0.03744117268 0.0310696835 0.02454546922)
5(0.05112737522 0.04442683966 0.03750025631 0.0311405348 0.02463314982)
5(0.0511677305 0.04447565532 0.03756002185 0.03121485323 0.02472443155)
5(0.05120870981 0.04452461837 0.03762298867 0.0312910715 0.02481873614)
5(0.0512497679 0.04457570058 0.03768700468 0.03137024294 0.02491723634)
5(0.05129003234 0.04462692097 0.03775229402 0.03145337341 0.02502015908)
5(0.05132939663 0.04467834494 0.03781918361 0.03153877193 0.02512710569)
5(0.05136955958 0.04473022943 0.03788953384 0.03162669577 0.02523857473)
5(0.05140942572 0.04478464945 0.03796183916 0.03171945614 0.02535591437)
5(0.05144865174 0.04483965438 0.03803575294 0.03181591487 0.02547761892)
5(0.05148719444 0.0448945391 0.038112239 0.03191630803 0.02560367642)
5(0.05152468301 0.04495017324 0.03819194918 0.03202013578 0.02573435174)
5(0.05156194533 0.0450068648 0.03827405529 0.03212743135 0.02586985746)
5(0.0515982587 0.04506430698 0.03835768306 0.03223950949 0.02601047535)
5(0.05163371178 0.04512160062 0.03844278419 0.03235469313 0.0261568941)
5(0.05166700955 0.04517800689 0.03853022426 0.03247249346 0.02630865321)
5(0.0516993325 0.0452340602 0.0386189566 0.03259304217 0.02646150649)
5(0.05173019892 0.04529013489 0.03870811843 0.03271780678 0.02660962253)
5(0.05176128733 0.0453459193 0.03879870244 0.03284355973 0.0267512542)
5(0.05179471547 0.04540262098 0.0388916201 0.03296860709 0.02689019547)
5(0.05183284629 0.04546211188 0.03898961823 0.03309152171 0.02703274257)
5(0.0518794113 0.0455269292 0.03909393973 0.0332110937 0.02718405771)
5(0.05193858713 0.04560202711 0.03920553301 0.03333278047 0.02734594376)
5(0.05201529199 0.04569326866 0.03932239858 0.03346465375 0.02751769185)
5(0.05211688486 0.0458073285 0.03944609377 0.0336106151 0.02769995492)
5(0.05224589968 0.04594683876 0.03958644485 0.03377460844 0.027894867)
5(0.05241046443 0.04611135014 0.03974342796 0.03395732053 0.02810441761)
5(0.0526159269 0.04630074089 0.03993055767 0.03415922087 0.0283309826)
5(0.05286070529 0.04651924991 0.04014905171 0.03438340969 0.02857738969)
5(0.05314696256 0.04677455557 0.04039937849 0.03463055007 0.02884442407)
5(0.05347082099 0.04707289187 0.04068462122 0.03490604309 0.0291376443)
5(0.05383979566 0.04741780687 0.04100810199 0.03521397298 0.02946359802)
5(0.0542522077 0.0478097169 0.04137537592 0.03556319257 0.02983257632)
5(0.05472614103 0.04826242691 0.04179905319 0.03597014145 0.03026084834)
5(0.05527449571 0.04879510226 0.04230990906 0.03646126357 0.03077029763)
5(0.05595453238 0.04945309568 0.04296433306 0.03709033864 0.03141462083)
5(0.05691514828 0.05039371456 0.0439589884 0.03802542032 0.032325308)
5(0.05996639977 0.05395942515 0.0480764821 0.04175278378 0.03603013203)
)


60
(
5(0.0502555546 0.04340444416 0.03667411932 0.0302251742 0.02367838272)
5(0.0503779423 0.04360566709 0.03668563187 0.03026070041 0.02361158321)
5(0.05046310996 0.04374088973 0.03673608086 0.03031495394 0.02362007478)
5(0.05053573056 0.04382752456 0.03681644725 0.03038520984 0.0236801434)
5(0.05062039881 0.04390225632 0.03690778791 0.03046290462 0.02377193281)
5(0.05070920008 0.04397722072 0.03699188036 0.03053750454 0.02386730821)
5(0.05078196547 0.04404347571 0.03706203607 0.03060396256 0.0239407114)
5(0.05084227556 0.04410475974 0.03711811859 0.03066163368 0.02400014354)
5(0.0508969276 0.0441636956 0.03717154467 0.03071956988 0.02405649379)
5(0.05095384858 0.0442215259 0.0372260639 0.03077869121 0.02412039614)
5(0.05101039572 0.04428007179 0.03728662811 0.03084201485 0.02419011608)
5(0.05106817094 0.04433759696 0.03734735888 0.03090601583 0.02426333419)
5(0.0511241237 0.04439616375 0.03741025165 0.03097221389 0.02433757797)
5(0.0511795115 0.04445301869 0.0374711104 0.03103849003 0.0244126303)
5(0.05123409356 0.04451204798 0.03753420475 0.03110736659 0.02449009502)
5(0.05128879858 0.04456987244 0.0375974854 0.03117697994 0.02457036223)
5(0.05134423184 0.04462994697 0.03766323238 0.03125003623 0.02465367782)
5(0.05139882968 0.04468952758 0.03772976226 0.0313236575 0.02473995406)
5(0.05145520963 0.04474993879 0.03779752231 0.03140123668 0.02482861277)
5(0.05151034206 0.04481162811 0.03786712959 0.03147934552 0.02492035993)
5(0.05156631809 0.04487237757 0.03793634313 0.0315604218 0.02501391451)
5(0.05162209802 0.04493587078 0.03800887475 0.03164237781 0.02511149552)
5(0.0516767894 0.04499832568 0.03808111872 0.03172575241 0.02521056452)
5(0.05173313312 0.0450611177 0.03815513956 0.03181216234 0.02531356161)
5(0.05178848672 0.04512502222 0.0382309954 0.03189972145 0.02541966908)
5(0.05184268754 0.04518895858 0.03830715587 0.03199103348 0.02552828576)
5(0.05189824027 0.04525322509 0.03838586411 0.03208530517 0.02564202415)
5(0.05195236196 0.04531916114 0.03846602614 0.03218142289 0.02575887762)
5(0.05200579443 0.04538425619 0.03854698628 0.03228091065 0.02587928254)
5(0.05205996047 0.04544954209 0.03863003814 0.03238337076 0.02600527895)
5(0.05211336359 0.0455171512 0.03871570745 0.0324882547 0.02613485857)
5(0.05216443256 0.04558399163 0.03880212587 0.03259624093 0.02626841298)
5(0.05221489352 0.04565063272 0.03888964077 0.03270893319 0.02640680085)
5(0.05226492391 0.04571785365 0.03898071137 0.03282375045 0.02654909051)
5(0.05231316647 0.04578484553 0.0390719499 0.03294050776 0.02669439602)
5(0.05235970546 0.0458509787 0.03916375139 0.03306055367 0.02684389554)
5(0.05240436476 0.04591530025 0.03925551593 0.03318307373 0.02699902772)
5(0.05244696902 0.04597838079 0.03934869099 0.03330629745 0.02715746499)
5(0.05248768063 0.04603950067 0.03944037614 0.03343037744 0.0273143946)
5(0.05252784159 0.04609880487 0.03953066177 0.03355597975 0.02746548572)
5(0.05256741555 0.04615726868 0.03962005545 0.03368002783 0.02760741103)
5(0.05260975791 0.04621556039 0.03970970254 0.03380142247 0.02774507726)