/*--------------------------------*- C++ -*----------------------------------*\
| =========                 |                                                 |
| \\      /  F ield         | OpenFOAM: The Open Source CFD Toolbox           |
|  \\    /   O peration     | Version:  2.3.1                                 |
|   \\  /    A nd           | Web:      www.OpenFOAM.org                      |
|    \\/     M anipulation  |                                                 |
\*---------------------------------------------------------------------------*/
FoamFile
{
    version     2.0;
    format      ascii;
    class       dictionary;
    location    "constant";
    object      OH;
}
// * * * * * * * * * * * * * * * * * * * * * * * * * * * * * * * * * * * * * //

OH_table
60
(

60
(
5(3.704702048e-06 3.480758806e-06 5.425041829e-06 4.945408685e-06 6.743927067e-06)
5(3.047914509e-06 1.997192621e-06 4.000544744e-06 3.728869448e-06 3.986481396e-06)
5(8.154587555e-06 2.7850531e-06 3.328383939e-06 2.91289103e-06 7.158078833e-07)
5(1.793497828e-05 3.210005738e-06 3.797702572e-06 2.220323015e-06 3.689454174e-06)
5(2.482119563e-05 3.283422286e-06 4.003778613e-06 3.359271612e-06 3.127473961e-06)
5(2.67228794e-05 3.367216883e-06 2.844532482e-06 3.705408326e-06 2.845439089e-06)
5(3.508177808e-06 3.580064183e-06 3.431714363e-06 3.521182672e-06 4.502322483e-06)
5(2.992553488e-06 4.047271787e-06 4.759304483e-06 4.399202623e-06 3.066714614e-06)
5(3.744166519e-05 4.748698629e-06 5.628672193e-06 5.221885314e-06 4.541958941e-06)
5(5.170046102e-05 7.090259118e-06 7.236161853e-06 5.986855746e-06 5.674845649e-06)
5(5.746787142e-05 8.928210535e-06 8.064000153e-06 7.230078471e-06 6.689366013e-06)
5(3.143559832e-05 7.463355468e-06 8.334982011e-06 8.109425185e-06 7.755297141e-06)
5(6.599611462e-06 8.737828612e-06 9.266116409e-06 9.987297296e-06 9.276212863e-06)
5(8.217342926e-06 1.028768219e-05 1.100501057e-05 1.111370199e-05 1.070974845e-05)
5(9.028869191e-06 1.17388294e-05 1.2614479e-05 1.364064299e-05 1.276318739e-05)
5(1.466876397e-05 1.830108219e-05 1.668766491e-05 1.746673569e-05 1.58877238e-05)
5(1.676556024e-05 2.002962013e-05 2.026101835e-05 2.008381182e-05 1.923711629e-05)
5(1.650498489e-05 2.184135115e-05 2.144027023e-05 2.378880441e-05 2.346697086e-05)
5(1.722903692e-05 2.378124964e-05 2.532930588e-05 2.826648284e-05 2.976276913e-05)
5(2.073162223e-05 2.741830907e-05 3.069019948e-05 3.504265297e-05 3.535200705e-05)
5(2.4277333e-05 3.187648248e-05 3.574272316e-05 4.144936514e-05 4.10663062e-05)
5(2.873581095e-05 3.742632577e-05 4.331428598e-05 4.631117253e-05 4.72338445e-05)
5(3.4592497e-05 4.461031367e-05 5.098540344e-05 5.752791591e-05 5.900155576e-05)
5(4.042350659e-05 5.376224453e-05 6.023800893e-05 6.824491044e-05 6.996782526e-05)
5(4.841238964e-05 6.443692809e-05 7.183429344e-05 8.215957496e-05 8.438584795e-05)
5(5.697537324e-05 7.701724835e-05 8.648506367e-05 9.888559902e-05 9.939988677e-05)
5(6.693430808e-05 8.811914348e-05 9.938865414e-05 0.0001165870536 0.0001168436867)
5(7.786892287e-05 0.0001002723624 0.0001173983052 0.0001359662465 0.0001357181926)
5(9.266038785e-05 0.0001174614463 0.0001347517281 0.0001555740553 0.0001574282378)
5(0.0001080126236 0.0001374627449 0.0001547725647 0.0001748328374 0.0001786416685)
5(0.0001266970483 0.0001596092856 0.0001801958089 0.0002026173079 0.0002041635723)
5(0.0001464829009 0.0001816931757 0.0002024906915 0.0002230753069 0.0002169717535)
5(0.0001679836371 0.0002081923183 0.0002314721502 0.0002512153006 0.0002571254726)
5(0.0001933991177 0.000238255291 0.0002651459281 0.0002786757812 0.0002680472694)
5(0.0002216867747 0.0002677232219 0.0002952768823 0.0003093081023 0.0002918717003)
5(0.0002520626778 0.000306382392 0.0003416798865 0.0003436383958 0.000319343904)
5(0.0002854382809 0.0003329366 0.0003567410113 0.0003665865722 0.000357685021)
5(0.0003210952975 0.0003766727568 0.0003934455089 0.0004059895685 0.0003325541942)
5(0.000362204609 0.0004147624905 0.0004386076263 0.0004344313746 0.000414347712)
5(0.0004121277817 0.0004592018663 0.0004910271739 0.0004758037842 0.0001028139164)
5(0.0004566303136 0.0004935477566 0.0005131890621 0.0004956638826 0.0001323477931)
5(0.0004984412226 0.0005355561808 0.0005460617823 0.0004023445495 0.0001484300598)
5(0.0005465408508 0.0005659339543 0.0005716372618 0.0001611827332 0.0001817355214)
5(0.0005995246357 0.0006204849466 0.000677258049 0.0001971188179 0.0002370891918)
5(0.0006533531127 0.0006548234563 0.0006926187421 0.0002370074409 0.000269921809)
5(0.0006891698096 0.0007056342942 0.0006855137703 0.0002866487466 0.0003210556354)
5(0.0007279505853 0.0007218909914 0.0004130515461 0.000344806365 0.0003832297378)
5(0.0007538901756 0.0006689618348 0.0003535956078 0.0004077105482 0.0004555809789)
5(0.000797656176 0.0007254014273 0.0004049223604 0.000481754043 0.0005384267498)
5(0.0008273242024 0.0004059904082 0.0004769671335 0.0005655556797 0.000631761281)
5(0.0008232239044 0.0004694732029 0.0005597473022 0.0006620730432 0.000738169235)
5(0.0005736341196 0.0005492006969 0.000653521236 0.0007702248628 0.0008577994657)
5(0.0005300467102 0.0006393835884 0.0007592081736 0.0008918429773 0.0009917722415)
5(0.0005957601691 0.0007398355304 0.0008786441663 0.001027276479 0.001143338746)
5(0.0006897227366 0.0008522716519 0.001011886046 0.001179564628 0.001311434945)
5(0.0008137625945 0.0009782546504 0.001160726828 0.001346417343 0.001497583911)
5(0.0009763939163 0.001120027312 0.001326626356 0.001531615575 0.001701893545)
5(0.001136588793 0.00129938192 0.001513555926 0.00173609727 0.001917743969)
5(0.001291343993 0.001502732081 0.001747947014 0.001875054811 0.002163148365)
5(0.001455094819 0.001752906455 0.002068087692 0.002409664708 0.002609769831)
)


60
(
5(4.430243219e-06 4.925726801e-06 7.132899477e-06 7.59562286e-06 1.057725895e-05)
5(4.241000918e-06 5.163265166e-06 6.308656536e-06 7.084687168e-06 8.134268489e-06)
5(4.34157975e-06 5.626286702e-06 6.253051948e-06 7.308419587e-06 7.503625698e-06)
5(4.722986928e-06 6.319732073e-06 6.891596034e-06 8.213990596e-06 8.27116005e-06)
5(5.405025955e-06 7.278593246e-06 8.136170881e-06 9.724187741e-06 1.023100049e-05)
5(6.34657431e-06 8.505152185e-06 9.777432935e-06 1.170229066e-05 1.295492803e-05)
5(7.453754664e-06 9.988273242e-06 1.160011411e-05 1.398566675e-05 1.579507412e-05)
5(8.712083996e-06 1.174604191e-05 1.367068244e-05 1.660488574e-05 1.873684231e-05)
5(1.019431569e-05 1.382689491e-05 1.6071479e-05 1.964620766e-05 2.204816754e-05)
5(1.200504167e-05 1.631189284e-05 1.897750268e-05 2.325645746e-05 2.605638974e-05)
5(1.41692598e-05 1.925005703e-05 2.248110471e-05 2.749121873e-05 3.077980201e-05)
5(1.676975445e-05 2.270816574e-05 2.663271405e-05 3.238517555e-05 3.620022854e-05)
5(1.98200196e-05 2.677051776e-05 3.143541219e-05 3.799035422e-05 4.2225518e-05)
5(2.340304131e-05 3.149320523e-05 3.695865994e-05 4.440227051e-05 4.893588801e-05)
5(2.760174495e-05 3.700513438e-05 4.331502044e-05 5.168442716e-05 5.64870307e-05)
5(3.255119531e-05 4.342583702e-05 5.068989327e-05 6.00281153e-05 6.509478248e-05)
5(3.838136869e-05 5.08975003e-05 5.924761941e-05 6.967023508e-05 7.499272933e-05)
5(4.521353275e-05 5.963999468e-05 6.917460636e-05 8.078161895e-05 8.635010382e-05)
5(5.326714434e-05 6.979893685e-05 8.07071397e-05 9.366297105e-05 9.952812406e-05)
5(6.26869313e-05 8.165852575e-05 9.406788753e-05 0.0001085898008 0.000114898663)
5(7.376834462e-05 9.548889801e-05 0.0001096318712 0.0001258527266 0.0001326654383)
5(8.67104013e-05 0.0001115505845 0.000127647422 0.0001458623021 0.0001532433767)
5(0.0001017418377 0.0001301452752 0.0001484827147 0.0001688480538 0.0001771249454)
5(0.0001193835716 0.0001516839114 0.0001725773266 0.0001951594112 0.0002043882438)
5(0.0001398415391 0.0001763724818 0.0002000929078 0.0002252590646 0.0002355730666)
5(0.0001634552329 0.0002046715733 0.0002316793767 0.0002594799729 0.0002708493843)
5(0.0001906589638 0.0002367917623 0.0002673727068 0.0002980142422 0.0003103031424)
5(0.0002216677215 0.0002733650725 0.0003075091281 0.0003409203215 0.0003538434026)
5(0.0002571128959 0.0003145242184 0.0003525146813 0.0003883439212 0.0004021789724)
5(0.0002971915054 0.0003604058568 0.0004024429819 0.0004405215841 0.0004545102404)
5(0.0003424469314 0.0004114678436 0.0004575805073 0.0004974169861 0.0005113425429)
5(0.0003930868001 0.0004679615016 0.0005177178861 0.000559012917 0.0005719990021)
5(0.0004494342242 0.0005299031204 0.0005833631637 0.0006251059889 0.0006365218544)
5(0.000511831984 0.000597541957 0.0006541208364 0.0006955980329 0.0007040510661)
5(0.0005805688537 0.0006711702948 0.0007302978509 0.0007700977332 0.0007747704776)
5(0.0006562312278 0.0007504820858 0.0008114373344 0.0008484018841 0.0008478332697)
5(0.0007382655599 0.0008354945164 0.0008974143747 0.0009296558304 0.0009235415724)
5(0.0008274730531 0.0009263411901 0.0009877703319 0.001014186724 0.001001286267)
5(0.0009235107331 0.001021719028 0.001081801941 0.001101116199 0.001078476255)
5(0.001025710869 0.001122817245 0.001178850887 0.001188942977 0.001151744024)
5(0.001134076124 0.001226868665 0.001277218623 0.001276628586 0.00121788237)
5(0.001246632598 0.001335660202 0.001378572848 0.00136161384 0.001277454804)
5(0.001365043943 0.001445140952 0.001480297534 0.001440433624 0.001331608062)
5(0.001485905503 0.001553273753 0.001581768929 0.001509850929 0.001383149923)
5(0.001607209386 0.001662588898 0.001678833589 0.001570075342 0.001431350681)
5(0.001726576456 0.001769178402 0.001767399215 0.001623349781 0.001475996637)
5(0.00184171025 0.001871970329 0.001842384712 0.001671910118 0.001517929728)
5(0.001951313763 0.001965626211 0.001903392728 0.001717074473 0.001558877505)
5(0.002053050118 0.002046372315 0.001952947101 0.00175932721 0.001602407462)
5(0.002141766499 0.002107400388 0.001994106872 0.001800687891 0.001651094233)
5(0.002215654517 0.002148828628 0.002029790173 0.001843593466 0.00170713374)
5(0.002267677485 0.002176351856 0.002062268522 0.001892159072 0.001774324246)
5(0.002296569087 0.002196349639 0.002095994982 0.001947990698 0.001852350793)
5(0.002301028498 0.002210946094 0.00213298978 0.002014194767 0.001947495548)
5(0.002284472301 0.002226542165 0.00217643518 0.002095254383 0.00206003735)
5(0.002254980156 0.00224186172 0.00222834705 0.002192518311 0.002193714591)
5(0.002216327941 0.002259565909 0.002292154467 0.002308044364 0.002350321443)
5(0.002175978525 0.002283410707 0.002368460216 0.002443953998 0.002532607287)
5(0.002136640271 0.002311866281 0.002456859797 0.00260295402 0.002743138307)
5(0.002070843126 0.002332417306 0.002503978406 0.002791052484 0.002998570421)
)


60
(
5(5.086925911e-06 6.006793419e-06 8.906266483e-06 1.040732123e-05 1.489610699e-05)
5(5.100240506e-06 6.525751469e-06 8.360359671e-06 1.02330277e-05 1.270158047e-05)
5(5.404251519e-06 7.302558618e-06 8.694879884e-06 1.098091556e-05 1.265060869e-05)
5(6.026051085e-06 8.36724143e-06 9.857004901e-06 1.260995219e-05 1.438337578e-05)
5(7.006754535e-06 9.786667852e-06 1.175785386e-05 1.505616236e-05 1.760098832e-05)
5(8.317445983e-06 1.158695469e-05 1.420799443e-05 1.814704677e-05 2.17911399e-05)
5(9.87912815e-06 1.374990623e-05 1.700588593e-05 2.168836174e-05 2.618989902e-05)
5(1.169459732e-05 1.631694876e-05 2.016529857e-05 2.569958245e-05 3.078975985e-05)
5(1.384144156e-05 1.934732575e-05 2.381730347e-05 3.027897007e-05 3.583408706e-05)
5(1.642173924e-05 2.290672795e-05 2.811352289e-05 3.553639781e-05 4.164017445e-05)
5(1.948399005e-05 2.707019373e-05 3.315761849e-05 4.151219375e-05 4.813450667e-05)
5(2.311808417e-05 3.18818438e-05 3.894308266e-05 4.820781755e-05 5.526840374e-05)
5(2.734945457e-05 3.742654569e-05 4.550582761e-05 5.564899739e-05 6.299159039e-05)
5(3.224496981e-05 4.379283112e-05 5.290067234e-05 6.392152527e-05 7.137621977e-05)
5(3.795580505e-05 5.108700027e-05 6.127777904e-05 7.31491906e-05 8.064447421e-05)
5(4.457776506e-05 5.946879216e-05 7.076931117e-05 8.354492699e-05 9.099765835e-05)
5(5.22694213e-05 6.906452578e-05 8.161097896e-05 9.534266163e-05 0.0001027702026)
5(6.116143169e-05 8.013217408e-05 9.396757756e-05 0.0001087886721 0.0001161666366)
5(7.150967368e-05 9.28714462e-05 0.0001081882401 0.0001242131378 0.0001316795876)
5(8.351751514e-05 0.0001075508621 0.0001245094133 0.0001419910069 0.0001496595197)
5(9.738935839e-05 0.0001244960096 0.00014335391 0.0001624972384 0.0001706012816)
5(0.0001136668258 0.0001440804628 0.0001650631581 0.0001861268246 0.0001948959122)
5(0.0001323347306 0.0001666624126 0.0001901243808 0.0002133817009 0.0002229004839)
5(0.0001540709448 0.0001926049989 0.0002189314775 0.0002445952126 0.0002551211927)
5(0.0001790324736 0.0002223224334 0.0002519276721 0.0002802425951 0.0002919304066)
5(0.0002078848607 0.0002562874018 0.0002895155325 0.0003208188698 0.0003335231245)
5(0.0002408959234 0.0002948445396 0.0003320487339 0.0003663600448 0.0003804576844)
5(0.000278423284 0.000338535676 0.0003799193487 0.0004173695354 0.0004323914058)
5(0.0003212277618 0.00038754306 0.0004334329504 0.0004737967659 0.0004900648301)
5(0.0003694384143 0.0004422899652 0.0004930362684 0.0005361200091 0.0005530852899)
5(0.0004235932869 0.0005032917105 0.0005587179189 0.0006041626239 0.0006214000203)
5(0.0004840263824 0.0005705613335 0.0006306081266 0.000678099179 0.0006951330303)
5(0.0005513070486 0.0006443074987 0.0007091180028 0.0007579749164 0.0007736261891)
5(0.0006256602915 0.0007251404621 0.0007941743916 0.0008433492597 0.0008571599111)
5(0.0007072414292 0.0008128217791 0.0008855257171 0.0009342172944 0.000944784346)
5(0.0007959592014 0.000907549076 0.0009835242995 0.001030417904 0.001036927001)
5(0.000893755988 0.00100913032 0.001087676815 0.001131563776 0.00113290771)
5(0.0009983958929 0.001117825502 0.001197611796 0.001237279412 0.001232345251)
5(0.001111642993 0.001233427953 0.001312758052 0.001346854503 0.001332793079)
5(0.001231912754 0.001354852443 0.00143285828 0.001459373399 0.001432148935)
5(0.001358702494 0.001481964099 0.001557483697 0.001573674629 0.001527564562)
5(0.001493681752 0.001614463323 0.001685029344 0.001687633497 0.001619255644)
5(0.00163285932 0.001750235884 0.001815243156 0.001798056225 0.001706970469)
5(0.001776870706 0.001888026282 0.001946456601 0.001902681974 0.001791624839)
5(0.001922980669 0.002025798986 0.002075233557 0.002000664189 0.001873183296)
5(0.002069958286 0.002163974808 0.002198319587 0.002091951599 0.001950284367)
5(0.002214355786 0.002299190013 0.002311102532 0.00217794751 0.002022303006)
5(0.00235432162 0.002427150091 0.002411614956 0.002257989166 0.002090378075)
5(0.00248697437 0.00254231695 0.002500330825 0.002331607736 0.002155888035)
5(0.002610260078 0.002642469902 0.002578596385 0.002399750667 0.00222148094)
5(0.002719418158 0.002724008619 0.002647106173 0.002463966142 0.002289937018)
5(0.002810575104 0.002789309689 0.002707365346 0.002526590136 0.002362042806)
5(0.002878825767 0.002841583117 0.002760729421 0.002590134065 0.002441083023)
5(0.002922977027 0.002883333897 0.002810141041 0.002657997917 0.002529914989)
5(0.002945204342 0.002914991703 0.002858274913 0.002733208666 0.002633166184)
5(0.00294698547 0.0029401558 0.002908085792 0.002818374422 0.00275268122)
5(0.002933651892 0.002960910731 0.002961962537 0.002916909883 0.002891782606)
5(0.002909328997 0.002979185456 0.003022378146 0.003031765138 0.003053521856)
5(0.002875016468 0.002995784245 0.003090710753 0.003164006058 0.003240252578)
5(0.002772849277 0.002971609569 0.003104343832 0.003312309513 0.003469103642)
)


60
(
5(5.74848514e-06 7.077152608e-06 1.080181549e-05 1.349506786e-05 1.966263895e-05)
5(5.928154486e-06 7.868721934e-06 1.052401038e-05 1.364991501e-05 1.780680253e-05)
5(6.424345392e-06 8.959648731e-06 1.125481243e-05 1.493563985e-05 1.842816112e-05)
5(7.270233224e-06 1.038220046e-05 1.295695499e-05 1.728617891e-05 2.109909473e-05)
5(8.538977325e-06 1.224288018e-05 1.551664719e-05 2.061234454e-05 2.545985541e-05)
5(1.020884201e-05 1.458556533e-05 1.874182893e-05 2.472313465e-05 3.092266946e-05)
5(1.220434457e-05 1.739450803e-05 2.243961536e-05 2.939988634e-05 3.6633932e-05)
5(1.453314458e-05 2.069962904e-05 2.660439089e-05 3.461275528e-05 4.254567092e-05)
5(1.727326735e-05 2.455903957e-05 3.134760013e-05 4.044770826e-05 4.890100392e-05)
5(2.054499174e-05 2.905315327e-05 3.681962942e-05 4.698660208e-05 5.594248521e-05)
5(2.440464302e-05 3.422059153e-05 4.307457255e-05 5.422564451e-05 6.35915513e-05)
5(2.889396825e-05 4.012661988e-05 5.012796869e-05 6.215941867e-05 7.179281623e-05)
5(3.40782822e-05 4.682342417e-05 5.798993794e-05 7.08264624e-05 8.051381038e-05)
5(4.002761904e-05 5.439784981e-05 6.670546211e-05 8.029256077e-05 8.980705577e-05)
5(4.68765734e-05 6.295399573e-05 7.64122821e-05 9.068965732e-05 9.99920703e-05)
5(5.472007771e-05 7.264226402e-05 8.728216451e-05 0.0001022569725 0.0001112716059)
5(6.371178181e-05 8.364829532e-05 9.951801492e-05 0.0001152684592 0.0001240009677)
5(7.403395797e-05 9.617279002e-05 0.0001133668276 0.000129987087 0.0001385572776)
5(8.591189461e-05 0.0001104678095 0.0001291462285 0.0001468402643 0.0001552935707)
5(9.951411057e-05 0.0001268217856 0.000147181482 0.0001661611983 0.0001747722121)
5(0.0001152556619 0.0001456084557 0.0001679323336 0.0001884598055 0.000197420695)
5(0.00013345376 0.0001672034748 0.0001917485693 0.0002141295032 0.0002237532362)
5(0.0001543522594 0.0001919681585 0.0002191781081 0.0002437408745 0.0002541398384)
5(0.0001783341234 0.0002203986553 0.0002506313099 0.0002777176231 0.0002892150991)
5(0.0002061190685 0.0002529605041 0.000286696412 0.000316535721 0.0003295029074)
5(0.0002378191961 0.00029012334 0.000327776061 0.00036064273 0.0003750071623)
5(0.0002741087463 0.00033224197 0.0003743381035 0.0004104588932 0.0004262784236)
5(0.0003153293114 0.0003798803629 0.0004267133724 0.000466207123 0.000483700537)
5(0.0003622232843 0.0004334624466 0.0004853670266 0.0005281586902 0.0005468476319)
5(0.0004149979498 0.0004933110409 0.0005506189049 0.0005966486672 0.0006167927996)
5(0.000474136539 0.0005598112691 0.0006226662218 0.0006716897693 0.0006926553892)
5(0.0005402236376 0.0006333176677 0.0007016570697 0.0007534348289 0.000775041947)
5(0.0006135741948 0.0007140525954 0.0007881254851 0.0008420037857 0.000863307175)
5(0.0006943219038 0.0008024113502 0.0008818377384 0.0009370796515 0.0009574740578)
5(0.0007832537852 0.0008984318897 0.0009829239533 0.001038858877 0.001057163174)
5(0.0008801298407 0.001002347703 0.001091279374 0.001147203563 0.001162316531)
5(0.000985408991 0.001113834224 0.001206878992 0.001261603655 0.001272835103)
5(0.00109952201 0.001233317776 0.001329610833 0.001381814599 0.00138771532)
5(0.001221682982 0.001360334531 0.001459113771 0.001507329849 0.0015059624)
5(0.00135203058 0.001494589572 0.001594974288 0.001637336638 0.001624334231)
5(0.001490681306 0.001636193093 0.001736084427 0.001770838757 0.00174210457)
5(0.001635770191 0.001783766683 0.001881974189 0.001905949613 0.001857909602)
5(0.001787827022 0.001936137243 0.002031906232 0.002040078656 0.001971217928)
5(0.001944642784 0.002091964348 0.002184390905 0.002170691849 0.002083054903)
5(0.002105644025 0.002250219198 0.00233662815 0.002296913716 0.002192353856)
5(0.002267795852 0.00240902749 0.002484589736 0.002418140146 0.002297884773)
5(0.002429320432 0.002566083903 0.002625533918 0.002534327125 0.00239739627)
5(0.002588380865 0.002719069105 0.002755999296 0.002645026125 0.00249163041)
5(0.002741585923 0.002862754754 0.002876967844 0.00274866237 0.00258130556)
5(0.00288948197 0.002992555131 0.002987739843 0.002844554981 0.002667445821)
5(0.003025489526 0.003106651686 0.003086854254 0.002932622646 0.002752097817)
5(0.00314660442 0.003205932151 0.003174834486 0.003015532838 0.002837572381)
5(0.003250743707 0.003290736348 0.003252069158 0.003093831424 0.002924878282)
5(0.003333057762 0.003361064936 0.003320034656 0.003170950966 0.003017566478)
5(0.003393972637 0.003417156372 0.003381254544 0.003250224009 0.003119794953)
5(0.00343164066 0.003461246251 0.00343824491 0.003334380422 0.003235094527)
5(0.003449860983 0.003494286671 0.003494012144 0.003427353519 0.003365102671)
5(0.003447494934 0.003519344132 0.003550949871 0.003530747292 0.003514023522)
5(0.003424056461 0.003535392019 0.003610935475 0.003647628532 0.003686148984)
5(0.003307687839 0.003466463781 0.003617777459 0.003759262519 0.003891817332)
)


60
(
5(6.431378051e-06 8.191117278e-06 1.283016813e-05 1.685312951e-05 2.47816467e-05)
5(6.780853647e-06 9.273786023e-06 1.284444411e-05 1.735784395e-05 2.338715536e-05)
5(7.475901462e-06 1.068407802e-05 1.398185113e-05 1.918561959e-05 2.468134232e-05)
5(8.541537691e-06 1.245561033e-05 1.621320996e-05 2.223648186e-05 2.821358519e-05)
5(1.0079777e-05 1.474361081e-05 1.942790171e-05 2.63858278e-05 3.362272006e-05)
5(1.21052295e-05 1.761534381e-05 2.339786747e-05 3.14147102e-05 4.015399863e-05)
5(1.451818397e-05 2.10266647e-05 2.792996049e-05 3.707016275e-05 4.693979817e-05)
5(1.73333608e-05 2.501580836e-05 3.299967909e-05 4.331774027e-05 5.389779337e-05)
5(2.064016395e-05 2.962503679e-05 3.869218922e-05 5.017874156e-05 6.125088723e-05)
5(2.453402375e-05 3.491182492e-05 4.514828293e-05 5.771897908e-05 6.917740283e-05)
5(2.909520588e-05 4.094631692e-05 5.241565978e-05 6.592176803e-05 7.764083786e-05)
5(3.434334837e-05 4.77361157e-05 6.047088168e-05 7.477737232e-05 8.653386229e-05)
5(4.03365405e-05 5.534642774e-05 6.931082607e-05 8.427784102e-05 9.584994689e-05)
5(4.713439849e-05 6.385510137e-05 7.897018242e-05 9.452769703e-05 0.000105722514)
5(5.487105136e-05 7.335010156e-05 8.959362625e-05 0.0001056750152 0.0001163941748)
5(6.364087813e-05 8.39739293e-05 0.000101341047 0.0001179685165 0.0001281705006)
5(7.362160966e-05 9.590092238e-05 0.0001144796972 0.0001316563932 0.0001414339096)
5(8.491684854e-05 0.0001093792025 0.000129238547 0.0001470710245 0.0001565256346)
5(9.782180268e-05 0.0001246484838 0.0001459276473 0.0001646960189 0.0001739556005)
5(0.0001125446215 0.0001420089244 0.0001649686814 0.0001848778123 0.0001942154722)
5(0.0001293932758 0.0001618263548 0.0001867956587 0.0002081300066 0.0002178442927)
5(0.0001487913602 0.0001845319769 0.0002118211315 0.0002349271561 0.0002453017588)
5(0.0001708940757 0.0002105391266 0.0002405327984 0.000265776206 0.000277152042)
5(0.000196404069 0.0002403759427 0.0002735114293 0.0003011980053 0.0003140565075)
5(0.0002256791884 0.0002744932897 0.0003113020663 0.0003417843703 0.0003561043668)
5(0.0002590138177 0.0003132864431 0.0003543712215 0.0003879731188 0.0004040670978)
5(0.0002972242675 0.0003573336704 0.0004031533804 0.0004401826845 0.0004583035826)
5(0.000340604624 0.0004070992133 0.0004580687187 0.0004987493807 0.000518854175)
5(0.000389903671 0.0004630210796 0.0005196139869 0.0005640677614 0.0005861166487)
5(0.000444909728 0.0005256386328 0.000588150672 0.0006362881708 0.0006601711596)
5(0.0005070231346 0.0005953603392 0.0006639682245 0.0007156911706 0.0007412250288)
5(0.0005762923058 0.0006723151122 0.0007472606839 0.0008024747481 0.0008292626359)
5(0.000652835245 0.0007570039413 0.000838442855 0.00089667686 0.0009242560292)
5(0.0007373042445 0.0008495835473 0.0009376574683 0.0009982303204 0.001025921939)
5(0.0008299490816 0.0009504288596 0.001044685053 0.001107186585 0.00113412399)
5(0.0009312536985 0.001059649638 0.001159871184 0.001223408505 0.001248749645)
5(0.0010413564 0.001176988687 0.001283115662 0.001346699774 0.001369807335)
5(0.001159848036 0.001302850009 0.001414194869 0.001477066985 0.001496713126)
5(0.001287436387 0.001437335927 0.001552928586 0.001613856528 0.001628059084)
5(0.001423478578 0.001579590152 0.001698641625 0.001756489035 0.001762008404)
5(0.001567739653 0.00172953498 0.001851179845 0.001904148682 0.001896866281)
5(0.00171942742 0.001886133167 0.002009746873 0.002054969152 0.002031103575)
5(0.001877662 0.002048666309 0.002173406042 0.00220693838 0.002166071088)
5(0.00204099684 0.002216217255 0.002341080042 0.002357675272 0.002300491524)
5(0.002208559145 0.002386897857 0.002510488934 0.00250619062 0.002433406605)
5(0.002379523117 0.002559737045 0.002677976517 0.002651822231 0.002563110602)
5(0.00254990936 0.002732881316 0.002840338527 0.002793624845 0.002688573306)
5(0.002719868641 0.002902862934 0.002995554821 0.002930688127 0.002808770001)
5(0.00288652384 0.003066222988 0.00314255111 0.003062071698 0.002923547322)
5(0.003048302175 0.003218865666 0.003280775341 0.003184759724 0.003033474783)
5(0.003202756418 0.003359813744 0.003408719713 0.003299030833 0.003138724492)
5(0.003346423281 0.003488460435 0.003525095701 0.003404913601 0.003240520532)
5(0.003476755185 0.003604272831 0.003629437463 0.003503725892 0.003340726135)
5(0.003590513931 0.003706175926 0.003722279109 0.003597138137 0.00344280456)
5(0.00368721929 0.003793379804 0.003803950295 0.0036874073 0.003549446823)
5(0.003762493272 0.003864993309 0.003876316142 0.003777446956 0.003664446292)
5(0.003817087696 0.003920742614 0.003942457199 0.003870807318 0.003790676813)
5(0.003847673008 0.003961788142 0.004003721166 0.003971302607 0.003932123845)
5(0.003844706234 0.003982400792 0.004061770389 0.004081929607 0.004093382249)
5(0.003721277501 0.003905808373 0.004030757762 0.004171541725 0.004281992325)
)


60
(
5(7.14157725e-06 9.370544562e-06 1.498944911e-05 2.046125062e-05 3.018303934e-05)
5(7.673124416e-06 1.075144537e-05 1.532085622e-05 2.132348132e-05 2.929102271e-05)
5(8.550536694e-06 1.247933307e-05 1.688942278e-05 2.367384635e-05 3.123457792e-05)
5(9.848570349e-06 1.460895963e-05 1.965712939e-05 2.738819093e-05 3.567075157e-05)
5(1.167479295e-05 1.731646494e-05 2.348618405e-05 3.2308431e-05 4.197253505e-05)
5(1.404525748e-05 2.068313433e-05 2.815542285e-05 3.817727838e-05 4.94000246e-05)
5(1.687878925e-05 2.466160879e-05 3.344612202e-05 4.470029537e-05 5.707967786e-05)
5(2.015245643e-05 2.928790436e-05 3.932819156e-05 5.181392568e-05 6.486156362e-05)
5(2.399186556e-05 3.458716408e-05 4.586033889e-05 5.953579843e-05 7.298062372e-05)
5(2.846602158e-05 4.061091578e-05 5.31743167e-05 6.789414576e-05 8.160102821e-05)
5(3.365392978e-05 4.737826261e-05 6.126492408e-05 7.685942262e-05 9.062562518e-05)
5(3.955751405e-05 5.492683666e-05 7.01229951e-05 8.639693105e-05 0.0001000082239)
5(4.625103291e-05 6.328377138e-05 7.971346344e-05 9.651552937e-05 0.0001097059726)
5(5.379702794e-05 7.251871813e-05 9.009385949e-05 0.0001073122726 0.0001199297001)
5(6.225772227e-05 8.273356373e-05 0.0001013896482 0.0001189524364 0.0001308838774)
5(7.174936461e-05 9.404593791e-05 0.0001137843312 0.000131673676 0.000142972831)
5(8.244409509e-05 0.0001066473925 0.0001275024036 0.0001457536009 0.0001564678426)
5(9.451710688e-05 0.0001207416037 0.0001428065793 0.0001615936138 0.0001718624575)
5(0.0001081653373 0.0001366175234 0.0001600681842 0.0001795812601 0.0001896799537)
5(0.000123604754 0.000154587841 0.0001796604432 0.0002001769707 0.0002103489964)
5(0.0001412738433 0.0001750293378 0.0002020349173 0.0002238780949 0.0002344907083)
5(0.0001613015645 0.0001983467592 0.0002276764463 0.0002511907362 0.0002625573576)
5(0.0001843123198 0.0002250052469 0.0002571134012 0.0002826648235 0.0002952040633)
5(0.0002106076619 0.0002554899271 0.0002908884863 0.0003188880031 0.0003329780652)
5(0.0002407367104 0.0002902949885 0.0003295379147 0.0003603927283 0.0003764552075)
5(0.0002750534382 0.0003299636547 0.0003735812827 0.0004076616305 0.0004257207884)
5(0.0003142590117 0.0003749425005 0.0004234847948 0.0004611765711 0.0004815517171)
5(0.0003587085654 0.0004258059471 0.0004798280066 0.0005212981055 0.0005441329558)
5(0.0004091705792 0.0004829990402 0.0005429834345 0.000588453795 0.0006139075733)
5(0.0004657475873 0.0005470380146 0.0006133569145 0.0006629631965 0.000690896367)
5(0.0005293813874 0.0006182293866 0.0006913095668 0.0007450321374 0.0007754220699)
5(0.0006000787833 0.0006970298743 0.0007772373253 0.000834846559 0.0008674291777)
5(0.000678505809 0.0007839322155 0.0008712463436 0.0009326007431 0.0009669586868)
5(0.0007649974317 0.0008789006526 0.0009735424504 0.001038358283 0.001074060222)
5(0.000859891284 0.0009823079733 0.001084212012 0.001152088174 0.001188459057)
5(0.0009635561388 0.001094363202 0.001203485333 0.001273785027 0.001309997218)
5(0.001075457191 0.001215157016 0.001331449299 0.001403442784 0.001438832492)
5(0.001196827008 0.001344939105 0.001467773214 0.001540751892 0.001574599968)
5(0.001326590426 0.001483251739 0.001612423924 0.001685520298 0.001716052686)
5(0.001465311582 0.001629754736 0.001765118146 0.00183716066 0.001861738462)
5(0.001611982965 0.001784591394 0.001925019079 0.001995017113 0.002009069987)
5(0.001766009001 0.00194661643 0.002091984845 0.002157322642 0.00215935663)
5(0.00192670978 0.002115022986 0.002264814498 0.002322336791 0.002310414941)
5(0.002092657712 0.002289155567 0.002443182099 0.002488284958 0.002463497465)
5(0.00226283841 0.00246702191 0.002624224743 0.00265397297 0.002616002656)
5(0.002436388755 0.002647656916 0.002805160615 0.002818646943 0.002767600914)
5(0.002610292826 0.002829362159 0.002982911321 0.002981623272 0.002915879424)
5(0.002785816274 0.003009435469 0.003155728366 0.003141118321 0.00305938685)
5(0.002959024095 0.003184694589 0.003323475305 0.003295856209 0.003198549758)
5(0.00312864986 0.003352122901 0.003483992974 0.003444112231 0.003332275667)
5(0.003294754986 0.003511623048 0.003636367265 0.003583863337 0.003459942305)
5(0.003451993225 0.003660914194 0.003779188943 0.003714840239 0.003582490687)
5(0.003600047159 0.003802529094 0.003910534007 0.003837249106 0.003700538307)
5(0.003733901519 0.003931930912 0.004030902424 0.003950565612 0.003815857354)
5(0.003855074877 0.004048369704 0.004138856795 0.004058419437 0.003931903206)
5(0.003957422424 0.004150473515 0.004235008709 0.004161666075 0.004051300697)
5(0.00404337691 0.004233807422 0.004318367146 0.004263363937 0.004179053937)
5(0.004103094493 0.004299715243 0.004391563302 0.004366783389 0.004318119488)
5(0.004128553016 0.004334953109 0.004449986778 0.004474388614 0.004474018313)
5(0.003990775529 0.004231863062 0.004398005372 0.004538531489 0.004640036942)
)


60
(
5(7.884857075e-06 1.061570035e-05 1.728494809e-05 2.429911674e-05 3.580844377e-05)