/*--------------------------------*- C++ -*----------------------------------*\
| =========                 |                                                 |
| \\      /  F ield         | OpenFOAM: The Open Source CFD Toolbox           |
|  \\    /   O peration     | Version:  2.3.1                                 |
|   \\  /    A nd           | Web:      www.OpenFOAM.org                      |
|    \\/     M anipulation  |                                                 |
\*---------------------------------------------------------------------------*/
FoamFile
{
    version     2.0;
    format      ascii;
    class       dictionary;
    location    "constant";
    object      P;
}
// * * * * * * * * * * * * * * * * * * * * * * * * * * * * * * * * * * * * * //

P_table
60
(

60
(
5{100000}
5{100000}
5(100000 100000 100000 100000 100000)
5(100000 100000 100000 100000 100000)
5(100000 100000 100000 100000 100000)
5{100000}
5{100000}
5{100000}
5{100000}
5{100000}
5{100000}
5{100000}
5{100000}
5{100000}
5{100000}
5{100000}
5{100000}
5{100000}
5{100000}
5{100000}
5{100000}
5{100000}
5{100000}
5{100000}
5{100000}
5{100000}
5{100000}
5{100000}
5{100000}
5{100000}
5{100000}
5{100000}
5{100000}
5{100000}
5{100000}
5{100000}
5{100000}
5{100000}
5{100000}
5{100000}
5{100000}
5{100000}
5{100000}
5{100000}
5{100000}
5{100000}
5{100000}
5{100000}
5{100000}
5{100000}
5{100000}
5{100000}
5{100000}
5{100000}
5{100000}
5{100000}
5{100000}
5{100000}
5{100000}
5{100000}
)


60
(
5{100000}
5{100000}
5{100000}
5{100000}
5{100000}
5{100000}
5{100000}
5{100000}
5{100000}
5{100000}
5{100000}
5{100000}
5{100000}
5{100000}
5{100000}
5{100000}
5{100000}
5{100000}
5{100000}
5{100000}
5{100000}
5{100000}
5{100000}
5{100000}
5{100000}
5{100000}
5{100000}
5{100000}
5{100000}
5{100000}
5{100000}
5{100000}
5{100000}
5{100000}
5{100000}
5{100000}
5{100000}
5{100000}
5{100000}
5{100000}
5{100000}
5{100000}
5{100000}
5{100000}
5{100000}
5{100000}
5{100000}
5{100000}
5{100000}
5{100000}
5{100000}
5{100000}
5{100000}
5{100000}
5{100000}
5{100000}
5{100000}
5{100000}
5{100000}
5{100000}
)


60
(
5{100000}
5{100000}
5{100000}
5{100000}
5{100000}
5{100000}
5{100000}
5{100000}
5{100000}
5{100000}
5{100000}
5{100000}
5{100000}
5{100000}
5{100000}
5{100000}
5{100000}
5{100000}
5{100000}
5{100000}
5{100000}
5{100000}
5{100000}
5{100000}
5{100000}
5{100000}
5{100000}
5{100000}
5{100000}
5{100000}
5{100000}
5{100000}
5{100000}
5{100000}
5{100000}
5{100000}
5{100000}
5{100000}
5{100000}
5{100000}
5{100000}
5{100000}
5{100000}
5{100000}
5{100000}
5{100000}
5{100000}
5{100000}
5{100000}
5{100000}
5{100000}
5{100000}
5{100000}
5{100000}
5{100000}
5{100000}
5{100000}
5{100000}
5{100000}
5{100000}
)


60
(
5{100000}
5{100000}
5{100000}
5{100000}
5{100000}
5{100000}
5{100000}
5{100000}
5{100000}
5{100000}
5{100000}
5{100000}
5{100000}
5{100000}
5{100000}
5{100000}
5{100000}
5{100000}
5{100000}
5{100000}
5{100000}
5{100000}
5{100000}
5{100000}
5{100000}
5{100000}
5{100000}
5{100000}
5{100000}
5{100000}
5{100000}
5{100000}
5{100000}
5{100000}
5{100000}
5{100000}
5{100000}
5{100000}
5{100000}
5{100000}
5{100000}
5{100000}
5{100000}
5{100000}
5{100000}
5{100000}
5{100000}
5{100000}
5{100000}
5{100000}
5{100000}
5{100000}
5{100000}
5{100000}
5{100000}
5{100000}
5{100000}
5{100000}
5{100000}
5{100000}
)


60
(
5{100000}
5{100000}
5{100000}
5{100000}
5{100000}
5{100000}
5{100000}
5{100000}
5{100000}
5{100000}
5{100000}
5{100000}
5{100000}
5{100000}
5{100000}
5{100000}
5{100000}
5{100000}
5{100000}
5{100000}
5{100000}
5{100000}
5{100000}
5{100000}
5{100000}
5{100000}
5{100000}
5{100000}
5{100000}
5{100000}
5{100000}
5{100000}
5{100000}
5{100000}
5{100000}
5{100000}
5{100000}
5{100000}
5{100000}
5{100000}
5{100000}
5{100000}
5{100000}
5{100000}
5{100000}
5{100000}
5{100000}
5{100000}
5{100000}
5{100000}
5{100000}
5{100000}
5{100000}
5{100000}
5{100000}
5{100000}
5{100000}
5{100000}
5{100000}
5{100000}
)


60
(
5{100000}
5{100000}
5{100000}
5{100000}
5{100000}
5{100000}
5{100000}
5{100000}
5{100000}
5{100000}
5{100000}
5{100000}
5{100000}
5{100000}
5{100000}
5{100000}
5{100000}
5{100000}
5{100000}
5{100000}
5{100000}
5{100000}
5{100000}
5{100000}
5{100000}
5{100000}
5{100000}
5{100000}
5{100000}
5{100000}
5{100000}
5{100000}
5{100000}
5{100000}
5{100000}
5{100000}
5{100000}
5{100000}
5{100000}
5{100000}
5{100000}
5{100000}
5{100000}
5{100000}
5{100000}
5{100000}
5{100000}
5{100000}
5{100000}
5{100000}
5{100000}
5{100000}
5{100000}
5{100000}
5{100000}
5{100000}
5{100000}
5{100000}
5{100000}
5{100000}
)


60
(
5{100000}
5{100000}
5{100000}
5{100000}
5{100000}
5{100000}
5{100000}
5{100000}
5{100000}
5{100000}
5{100000}
5{100000}
5{100000}
5{100000}
5{100000}
5{100000}
5{100000}
5{100000}
5{100000}
5{100000}
5{100000}
5{100000}
5{100000}
5{100000}
5{100000}
5{100000}
5{100000}
5{100000}
5{100000}
5{100000}
5{100000}
5{100000}
5{100000}
5{100000}
5{100000}
5{100000}
5{100000}
5{100000}
5{100000}
5{100000}
5{100000}
5{100000}
5{100000}
5{100000}
5{100000}
5{100000}
5{100000}
5{100000}
5{100000}
5{100000}
5{100000}
5{100000}
5{100000}
5{100000}
5{100000}
5{100000}
5{100000}
5{100000}
5{100000}
5{100000}
)


60
(
5{100000}
5{100000}
5{100000}
5{100000}
5{100000}
5{100000}
5{100000}
5{100000}
5{100000}
5{100000}
5{100000}
5{100000}
5{100000}
5{100000}
5{100000}
5{100000}
5{100000}
5{100000}
5{100000}
5{100000}
5{100000}
5{100000}
5{100000}
5{100000}
5{100000}
5{100000}
5{100000}
5{100000}
5{100000}
5{100000}
5{100000}
5{100000}
5{100000}
5{100000}
5{100000}
5{100000}
5{100000}
5{100000}
5{100000}
5{100000}
5{100000}
5{100000}
5{100000}
5{100000}
5{100000}
5{100000}
5{100000}
5{100000}
5{100000}
5{100000}
5{100000}
5{100000}
5{100000}
5{100000}
5{100000}
5{100000}
5{100000}
5{100000}
5{100000}
5{100000}
)


60
(
5{100000}
5{100000}
5{100000}
5{100000}
5{100000}
5{100000}
5{100000}
5{100000}
5{100000}
5{100000}
5{100000}
5{100000}
5{100000}
5{100000}
5{100000}
5{100000}
5{100000}
5{100000}
5{100000}
5{100000}
5{100000}
5{100000}
5{100000}
5{100000}
5{100000}
5{100000}
5{100000}
5{100000}
5{100000}
5{100000}
5{100000}
5{100000}
5{100000}
5{100000}
5{100000}
5{100000}
5{100000}
5{100000}
5{100000}
5{100000}
5{100000}
5{100000}
5{100000}
5{100000}
5{100000}
5{100000}
5{100000}
5{100000}
5{100000}
5{100000}
5{100000}
5{100000}
5{100000}
5{100000}
5{100000}
5{100000}
5{100000}
5{100000}
5{100000}
5{100000}
)


60
(
5{100000}
5{100000}
5{100000}
5{100000}
5{100000}
5{100000}
5{100000}
5{100000}
5{100000}
5{100000}
5{100000}
5{100000}
5{100000}
5{100000}
5{100000}
5{100000}
5{100000}
5{100000}
5{100000}
5{100000}
5{100000}
5{100000}
5{100000}
5{100000}
5{100000}
5{100000}
5{100000}
5{100000}
5{100000}
5{100000}
5{100000}
5{100000}
5{100000}
5{100000}
5{100000}
5{100000}
5{100000}
5{100000}
5{100000}
5{100000}
5{100000}
5{100000}
5{100000}
5{100000}
5{100000}
5{100000}
5{100000}
5{100000}
5{100000}
5{100000}
5{100000}
5{100000}
5{100000}
5{100000}
5{100000}
5{100000}
5{100000}
5{100000}
5{100000}
5{100000}
)


60
(
5{100000}
5{100000}
5{100000}
5{100000}
5{100000}
5{100000}
5{100000}
5{100000}
5{100000}
5{100000}
5{100000}
5{100000}
5{100000}
5{100000}
5{100000}
5{100000}
5{100000}
5{100000}
5{100000}
5{100000}
5{100000}
5{100000}
5{100000}
5{100000}
5{100000}
5{100000}
5{100000}
5{100000}
5{100000}
5{100000}
5{100000}
5{100000}
5{100000}
5{100000}
5{100000}
5{100000}
5{100000}
5{100000}
5{100000}
5{100000}
5{100000}
5{100000}
5{100000}
5{100000}
5{100000}
5{100000}
5{100000}
5{100000}
5{100000}
5{100000}
5{100000}
5{100000}
5{100000}
5{100000}
5{100000}
5{100000}
5{100000}
5{100000}
5{100000}
5{100000}
)


60
(
5{100000}
5{100000}
5{100000}
5{100000}
5{100000}
5{100000}
5{100000}
5{100000}
5{100000}
5{100000}
5{100000}
5{100000}
5{100000}
5{100000}
5{100000}
5{100000}
5{100000}
5{100000}
5{100000}
5{100000}
5{100000}
5{100000}
5{100000}
5{100000}
5{100000}
5{100000}
5{100000}
5{100000}
5{100000}
5{100000}
5{100000}
5{100000}
5{100000}
5{100000}
5{100000}
5{100000}
5{100000}
5{100000}
5{100000}
5{100000}
5{100000}
5{100000}
5{100000}
5{100000}
5{100000}
5{100000}
5{100000}
5{100000}
5{100000}
5{100000}
5{100000}
5{100000}
5{100000}
5{100000}
5{100000}
5{100000}
5{100000}
5{100000}
5{100000}
5{100000}
)


60
(
5{100000}
5{100000}
5{100000}
5{100000}
5{100000}
5{100000}
5{100000}
5{100000}
5{100000}
5{100000}
5{100000}
5{100000}
5{100000}
5{100000}
5{100000}
5{100000}
5{100000}
5{100000}
5{100000}
5{100000}
5{100000}
5{100000}
5{100000}
5{100000}
5{100000}
5{100000}
5{100000}
5{100000}
5{100000}
5{100000}
5{100000}
5{100000}
5{100000}
5{100000}
5{100000}
5{100000}
5{100000}
5{100000}
5{100000}
5{100000}
5{100000}
5{100000}
5{100000}
5{100000}
5{100000}
5{100000}
5{100000}
5{100000}
5{100000}
5{100000}
5{100000}
5{100000}
5{100000}
5{100000}
5{100000}
5{100000}
5{100000}
5{100000}
5{100000}
5{100000}
)


60
(
5{100000}
5{100000}
5{100000}
5{100000}
5{100000}
5{100000}
5{100000}
5{100000}
5{100000}
5{100000}
5{100000}
5{100000}
5{100000}
5{100000}
5{100000}
5{100000}
5{100000}
5{100000}
5{100000}
5{100000}
5{100000}
5{100000}
5{100000}
5{100000}
5{100000}
5{100000}
5{100000}
5{100000}
5{100000}
5{100000}
5{100000}
5{100000}
5{100000}
5{100000}
5{100000}
5{100000}
5{100000}
5{100000}
5{100000}
5{100000}
5{100000}
5{100000}
5{100000}
5{100000}
5{100000}
5{100000}
5{100000}
5{100000}
5{100000}
5{100000}
5{100000}
5{100000}
5{100000}
5{100000}
5{100000}
5{100000}
5{100000}
5{100000}
5{100000}
5{100000}
)


60
(
5{100000}
5{100000}
5{100000}
5{100000}
5{100000}
5{100000}
5{100000}
5{100000}
5{100000}
5{100000}
5{100000}
5{100000}
5{100000}
5{100000}
5{100000}
5{100000}
5{100000}
5{100000}
5{100000}
5{100000}
5{100000}
5{100000}
5{100000}
5{100000}
5{100000}
5{100000}
5{100000}
5{100000}
5{100000}
5{100000}
5{100000}
5{100000}
5{100000}
5{100000}
5{100000}
5{100000}
5{100000}
5{100000}
5{100000}
5{100000}
5{100000}
5{100000}
5{100000}
5{100000}
5{100000}
5{100000}
5{100000}
5{100000}
5{100000}
5{100000}
5{100000}
5{100000}
5{100000}
5{100000}
5{100000}
5{100000}
5{100000}
5{100000}
5{100000}
5{100000}
)


60
(
5{100000}
5{100000}
5{100000}
5{100000}
5{100000}
5{100000}
5{100000}
5{100000}
5{100000}
5{100000}
5{100000}
5{100000}
5{100000}
5{100000}
5{100000}
5{100000}
5{100000}
5{100000}
5{100000}
5{100000}
5{100000}
5{100000}
5{100000}
5{100000}
5{100000}
5{100000}
5{100000}
5{100000}
5{100000}
5{100000}
5{100000}
5{100000}
5{100000}
5{100000}
5{100000}
5{100000}
5{100000}
5{100000}
5{100000}
5{100000}
5{100000}
5{100000}
5{100000}
5{100000}
5{100000}
5{100000}
5{100000}
5{100000}
5{100000}
5{100000}
5{100000}
5{100000}
5{100000}
5{100000}
5{100000}
5{100000}
5{100000}
5{100000}
5{100000}
5{100000}
)


60
(
5{100000}
5{100000}
5{100000}
5{100000}
5{100000}
5{100000}
5{100000}
5{100000}
5{100000}
5{100000}
5{100000}
5{100000}
5{100000}
5{100000}
5{100000}
5{100000}
5{100000}
5{100000}
5{100000}
5{100000}
5{100000}
5{100000}
5{100000}
5{100000}
5{100000}
5{100000}
5{100000}
5{100000}
5{100000}
5{100000}
5{100000}
5{100000}
5{100000}
5{100000}
5{100000}
5{100000}
5{100000}
5{100000}
5{100000}
5{100000}
5{100000}
5{100000}
5{100000}
5{100000}
5{100000}
5{100000}
5{100000}
5{100000}
5{100000}
5{100000}
5{100000}
5{100000}
5{100000}
5{100000}
5{100000}
5{100000}
5{100000}
5{100000}
5{100000}
5{100000}
)


60
(
5{100000}
5{100000}
5{100000}
5{100000}
5{100000}
5{100000}
5{100000}
5{100000}
5{100000}
5{100000}
5{100000}
5{100000}
5{100000}
5{100000}
5{100000}
5{100000}
5{100000}
5{100000}
5{100000}
5{100000}
5{100000}
5{100000}
5{100000}
5{100000}
5{100000}
5{100000}
5{100000}
5{100000}
5{100000}
5{100000}
5{100000}
5{100000}
5{100000}
5{100000}
5{100000}
5{100000}
5{100000}
5{100000}
5{100000}
5{100000}
5{100000}
5{100000}
5{100000}
5{100000}
5{100000}
5{100000}
5{100000}
5{100000}
5{100000}
5{100000}
5{100000}
5{100000}
5{100000}
5{100000}
5{100000}
5{100000}
5{100000}
5{100000}
5{100000}
5{100000}
)


60
(
5{100000}
5{100000}
5{100000}
5{100000}
5{100000}
5{100000}
5{100000}
5{100000}
5{100000}
5{100000}
5{100000}
5{100000}
5{100000}
5{100000}
5{100000}
5{100000}
5{100000}
5{100000}
5{100000}
5{100000}
5{100000}
5{100000}
5{100000}
5{100000}
5{100000}
5{100000}
5{100000}
5{100000}
5{100000}
5{100000}
5{100000}
5{100000}
5{100000}
5{100000}
5{100000}
5{100000}
5{100000}
5{100000}
5{100000}
5{100000}
5{100000}
5{100000}
5{100000}
5{100000}
5{100000}
5{100000}
5{100000}
5{100000}
5{100000}
5{100000}
5{100000}
5{100000}
5{100000}
5{100000}
5{100000}
5{100000}
5{100000}
5{100000}
5{100000}
5{100000}
)


60
(
5{100000}
5{100000}
5{100000}
5{100000}
5{100000}
5{100000}
5{100000}
5{100000}
5{100000}
5{100000}
5{100000}
5{100000}
5{100000}
5{100000}
5{100000}
5{100000}
5{100000}
5{100000}
5{100000}
5{100000}
5{100000}
5{100000}
5{100000}
5{100000}
5{100000}
5{100000}
5{100000}
5{100000}
5{100000}
5{100000}
5{100000}
5{100000}
5{100000}
5{100000}
5{100000}
5{100000}
5{100000}
5{100000}
5{100000}
5{100000}
5{100000}
5{100000}
5{100000}
5{100000}
5{100000}
5{100000}
5{100000}
5{100000}
5{100000}
5{100000}
5{100000}
5{100000}
5{100000}
5{100000}
5{100000}
5{100000}
5{100000}
5{100000}
5{100000}
5{100000}
)


60
(
5{100000}
5{100000}
5{100000}
5{100000}
5{100000}
5{100000}
5{100000}
5{100000}
5{100000}
5{100000}
5{100000}
5{100000}
5{100000}
5{100000}
5{100000}
5{100000}
5{100000}
5{100000}
5{100000}
5{100000}
5{100000}
5{100000}
5{100000}
5{100000}
5{100000}
5{100000}
5{100000}
5{100000}
5{100000}
5{100000}
5{100000}
5{100000}
5{100000}
5{100000}
5{100000}
5{100000}
5{100000}
5{100000}
5{100000}
5{100000}
5{100000}
5{100000}
5{100000}
5{100000}
5{100000}
5{100000}
5{100000}
5{100000}
5{100000}
5{100000}
5{100000}
5{100000}
5{100000}
5{100000}
5{100000}
5{100000}
5{100000}
5{100000}
5{100000}
5{100000}
)


60
(
5{100000}
5{100000}
5{100000}
5{100000}
5{100000}
5{100000}
5{100000}
5{100000}
5{100000}
5{100000}
5{100000}
5{100000}
5{100000}
5{100000}
5{100000}
5{100000}
5{100000}
5{100000}
5{100000}
5{100000}
5{100000}
5{100000}
5{100000}
5{100000}
5{100000}
5{100000}
5{100000}
5{100000}
5{100000}
5{100000}
5{100000}
5{100000}
5{100000}
5{100000}
5{100000}
5{100000}
5{100000}
5{100000}
5{100000}
5{100000}
5{100000}
5{100000}
5{100000}
5{100000}
5{100000}
5{100000}
5{100000}
5{100000}
5{100000}
5{100000}
5{100000}
5{100000}
5{100000}
5{100000}
5{100000}
5{100000}
5{100000}
5{100000}
5{100000}
5{100000}
)


60
(
5{100000}
5{100000}
5{100000}
5{100000}
5{100000}
5{100000}
5{100000}
5{100000}
5{100000}
5{100000}
5{100000}
5{100000}
5{100000}
5{100000}
5{100000}
5{100000}
5{100000}
5{100000}
5{100000}
5{100000}
5{100000}
5{100000}
5{100000}
5{100000}
5{100000}
5{100000}
5{100000}
5{100000}
5{100000}
5{100000}
5{100000}
5{100000}
5{100000}
5{100000}
5{100000}
5{100000}
5{100000}
5{100000}
5{100000}
5{100000}
5{100000}
5{100000}
5{100000}
5{100000}
5{100000}
5{100000}
5{100000}
5{100000}
5{100000}
5{100000}
5{100000}
5{100000}
5{100000}
5{100000}
5{100000}
5{100000}
5{100000}
5{100000}
5{100000}
5{100000}
)


60
(
5{100000}
5{100000}
5{100000}
5{100000}
5{100000}
5{100000}
5{100000}
5{100000}
5{100000}
5{100000}
5{100000}
5{100000}
5{100000}
5{100000}
5{100000}
5{100000}
5{100000}
5{100000}
5{100000}
5{100000}
5{100000}
5{100000}
5{100000}
5{100000}
5{100000}
5{100000}
5{100000}
5{100000}
5{100000}
5{100000}
5{100000}
5{100000}
5{100000}
5{100000}
5{100000}
5{100000}
5{100000}
5{100000}
5{100000}
5{100000}
5{100000}
5{100000}
5{100000}
5{100000}
5{100000}
5{100000}
5{100000}
5{100000}
5{100000}
5{100000}
5{100000}
5{100000}
5{100000}
5{100000}
5{100000}
5{100000}
5{100000}
5{100000}
5{100000}
5{100000}
)


60
(
5{100000}
5{100000}
5{100000}
5{100000}
5{100000}
5{100000}
5{100000}
5{100000}
5{100000}
5{100000}
5{100000}
5{100000}
5{100000}
5{100000}
5{100000}
5{100000}
5{100000}
5{100000}
5{100000}
5{100000}
5{100000}
5{100000}
5{100000}
5{100000}
5{100000}
5{100000}
5{100000}
5{100000}
5{100000}
5{100000}
5{100000}
5{100000}
5{100000}
5{100000}
5{100000}
5{100000}
5{100000}
5{100000}
5{100000}
5{100000}
5{100000}
5{100000}
5{100000}
5{100000}
5{100000}
5{100000}
5{100000}
5{100000}
5{100000}
5{100000}
5{100000}
5{100000}
5{100000}
5{100000}
5{100000}
5{100000}
5{100000}
5{100000}
5{100000}
5{100000}
)


60
(
5{100000}
5{100000}
5{100000}
5{100000}
5{100000}
5{100000}
5{100000}
5{100000}
5{100000}
5{100000}
5{100000}
5{100000}
5{100000}
5{100000}
5{100000}
5{100000}
5{100000}
5{100000}
5{100000}
5{100000}
5{100000}
5{100000}
5{100000}
5{100000}
5{100000}
5{100000}
5{100000}
5{100000}
5{100000}
5{100000}
5{100000}
5{100000}
5{100000}
5{100000}
5{100000}
5{100000}
5{100000}
5{100000}
5{100000}
5{100000}
5{100000}
5{100000}
5{100000}
5{100000}
5{100000}
5{100000}
5{100000}
5{100000}
5{100000}
5{100000}
5{100000}
5{100000}
5{100000}
5{100000}
5{100000}
5{100000}
5{100000}
5{100000}
5{100000}
5{100000}
)


60
(
5{100000}
5{100000}
5{100000}
5{100000}
5{100000}
5{100000}
5{100000}
5{100000}
5{100000}
5{100000}
5{100000}
5{100000}
5{100000}
5{100000}
5{100000}
5{100000}
5{100000}
5{100000}
5{100000}
5{100000}
5{100000}
5{100000}
5{100000}
5{100000}
5{100000}
5{100000}
5{100000}
5{100000}
5{100000}
5{100000}
5{100000}
5{100000}
5{100000}
5{100000}
5{100000}
5{100000}
5{100000}
5{100000}
5{100000}
5{100000}
5{100000}
5{100000}
5{100000}
5{100000}
5{100000}
5{100000}
5{100000}
5{100000}
5{100000}
5{100000}
5{100000}
5{100000}
5{100000}
5{100000}
5{100000}
5{100000}
5{100000}
5{100000}
5{100000}
5{100000}
)


60
(
5{100000}
5{100000}
5{100000}
5{100000}
5{100000}
5{100000}
5{100000}
5{100000}
5{100000}
5{100000}
5{100000}
5{100000}
5{100000}
5{100000}
5{100000}
5{100000}
5{100000}
5{100000}
5{100000}
5{100000}
5{100000}
5{100000}
5{100000}
5{100000}
5{100000}
5{100000}
5{100000}
5{100000}
5{100000}
5{100000}
5{100000}
5{100000}
5{100000}
5{100000}
5{100000}
5{100000}
5{100000}
5{100000}
5{100000}
5{100000}
5{100000}
5{100000}
5{100000}
5{100000}
5{100000}
5{100000}
5{100000}
5{100000}
5{100000}
5{100000}
5{100000}
5{100000}
5{100000}
5{100000}
5{100000}
5{100000}
5{100000}
5{100000}
5{100000}
5{100000}
)


60
(
5{100000}
5{100000}
5{100000}
5{100000}
5{100000}
5{100000}
5{100000}
5{100000}
5{100000}
5{100000}
5{100000}
5{100000}
5{100000}
5{100000}
5{100000}
5{100000}
5{100000}
5{100000}
5{100000}
5{100000}
5{100000}
5{100000}
5{100000}
5{100000}
5{100000}
5{100000}
5{100000}
5{100000}
5{100000}
5{100000}
5{100000}
5{100000}
5{100000}
5{100000}
5{100000}
5{100000}
5{100000}
5{100000}
5{100000}
5{100000}
5{100000}
5{100000}
5{100000}
5{100000}
5{100000}
5{100000}
5{100000}
5{100000}
5{100000}
5{100000}
5{100000}
5{100000}
5{100000}
5{100000}
5{100000}
5{100000}
5{100000}
5{100000}
5{100000}
5{100000}
)


60
(
5{100000}
5{100000}
5{100000}
5{100000}
5{100000}
5{100000}
5{100000}
5{100000}
5{100000}
5{100000}
5{100000}
5{100000}
5{100000}
5{100000}
5{100000}
5{100000}
5{100000}
5{100000}
5{100000}
5{100000}
5{100000}
5{100000}
5{100000}
5{100000}
5{100000}
5{100000}
5{100000}
5{100000}
5{100000}
5{100000}
5{100000}
5{100000}
5{100000}
5{100000}
5{100000}
5{100000}
5{100000}
5{100000}
5{100000}
5{100000}
5{100000}
5{100000}
5{100000}
5{100000}
5{100000}
5{100000}
5{100000}
5{100000}
5{100000}
5{100000}
5{100000}
5{100000}
5{100000}
5{100000}
5{100000}
5{100000}
5{100000}
5{100000}
5{100000}
5{100000}
)


60
(
5{100000}
5{100000}
5{100000}
5{100000}
5{100000}
5{100000}
5{100000}
5{100000}
5{100000}
5{100000}
5{100000}
5{100000}
5{100000}
5{100000}
5{100000}
5{100000}
5{100000}
5{100000}
5{100000}
5{100000}
5{100000}
5{100000}
5{100000}
5{100000}
5{100000}
5{100000}
5{100000}
5{100000}
5{100000}
5{100000}
5{100000}
5{100000}
5{100000}
5{100000}
5{100000}
5{100000}
5{100000}
5{100000}
5{100000}
5{100000}
5{100000}
5{100000}
5{100000}
5{100000}
5{100000}
5{100000}
5{100000}
5{100000}
5{100000}
5{100000}
5{100000}
5{100000}
5{100000}
5{100000}
5{100000}
5{100000}
5{100000}
5{100000}
5{100000}
5{100000}
)


60
(
5{100000}
5{100000}
5{100000}
5{100000}
5{100000}
5{100000}
5{100000}
5{100000}
5{100000}
5{100000}
5{100000}
5{100000}
5{100000}
5{100000}
5{100000}
5{100000}
5{100000}
5{100000}
5{100000}
5{100000}
5{100000}
5{100000}
5{100000}
5{100000}
5{100000}
5{100000}
5{100000}
5{100000}
5{100000}
5{100000}
5{100000}
5{100000}
5{100000}
5{100000}
5{100000}
5{100000}
5{100000}
5{100000}
5{100000}
5{100000}
5{100000}
5{100000}
5{100000}
5{100000}
5{100000}
5{100000}
5{100000}
5{100000}
5{100000}
5{100000}
5{100000}
5{100000}
5{100000}
5{100000}
5{100000}
5{100000}
5{100000}
5{100000}
5{100000}
5{100000}
)


60
(
5{100000}
5{100000}
5{100000}
5{100000}
5{100000}
5{100000}
5{100000}
5{100000}
5{100000}
5{100000}
5{100000}
5{100000}
5{100000}
5{100000}
5{100000}
5{100000}
5{100000}
5{100000}
5{100000}
5{100000}
5{100000}
5{100000}
5{100000}
5{100000}
5{100000}
5{100000}
5{100000}
5{100000}
5{100000}
5{100000}
5{100000}
5{100000}
5{100000}
5{100000}
5{100000}
5{100000}
5{100000}
5{100000}
5{100000}
5{100000}
5{100000}
5{100000}
5{100000}
5{100000}
5{100000}
5{100000}
5{100000}
5{100000}
5{100000}
5{100000}
5{100000}
5{100000}
5{100000}
5{100000}
5{100000}
5{100000}
5{100000}
5{100000}
5{100000}
5{100000}
)


60
(
5{100000}
5{100000}
5{100000}
5{100000}
5{100000}
5{100000}
5{100000}
5{100000}
5{100000}
5{100000}
5{100000}
5{100000}
5{100000}
5{100000}
5{100000}
5{100000}
5{100000}
5{100000}
5{100000}
5{100000}
5{100000}
5{100000}
5{100000}
5{100000}
5{100000}
5{100000}
5{100000}
5{100000}
5{100000}
5{100000}
5{100000}
5{100000}
5{100000}
5{100000}
5{100000}
5{100000}
5{100000}
5{100000}
5{100000}
5{100000}
5{100000}
5{100000}
5{100000}
5{100000}
5{100000}
5{100000}
5{100000}
5{100000}
5{100000}
5{100000}
5{100000}
5{100000}
5{100000}
5{100000}
5{100000}
5{100000}
5{100000}
5{100000}
5{100000}
5{100000}
)


60
(
5{100000}
5{100000}
5{100000}
5{100000}
5{100000}
5{100000}
5{100000}
5{100000}
5{100000}
5{100000}
5{100000}
5{100000}
5{100000}
5{100000}
5{100000}
5{100000}
5{100000}
5{100000}
5{100000}
5{100000}
5{100000}
5{100000}
5{100000}
5{100000}
5{100000}
5{100000}
5{100000}
5{100000}
5{100000}
5{100000}
5{100000}
5{100000}
5{100000}
5{100000}
5{100000}
5{100000}
5{100000}
5{100000}
5{100000}
5{100000}
5{100000}
5{100000}
5{100000}
5{100000}
5{100000}
5{100000}
5{100000}
5{100000}
5{100000}
5{100000}
5{100000}
5{100000}
5{100000}
5{100000}
5{100000}
5{100000}
5{100000}
5{100000}
5{100000}
5{100000}
)


60
(
5{100000}
5{100000}
5{100000}
5{100000}
5{100000}
5{100000}
5{100000}
5{100000}
5{100000}
5{100000}
5{100000}
5{100000}
5{100000}
5{100000}
5{100000}
5{100000}
5{100000}
5{100000}
5{100000}
5{100000}
5{100000}
5{100000}
5{100000}
5{100000}
5{100000}
5{100000}
5{100000}
5{100000}
5{100000}
5{100000}
5{100000}
5{100000}
5{100000}
5{100000}
5{100000}
5{100000}
5{100000}
5{100000}
5{100000}
5{100000}
5{100000}
5{100000}
5{100000}
5{100000}
5{100000}
5{100000}
5{100000}
5{100000}
5{100000}
5{100000}
5{100000}
5{100000}
5{100000}
5{100000}
5{100000}
5{100000}
5{100000}
5{100000}
5{100000}
5{100000}
)


60
(
5{100000}
5{100000}
5{100000}
5{100000}
5{100000}
5{100000}
5{100000}
5{100000}
5{100000}
5{100000}
5{100000}
5{100000}
5{100000}
5{100000}
5{100000}
5{100000}
5{100000}
5{100000}
5{100000}
5{100000}
5{100000}
5{100000}
5{100000}
5{100000}
5{100000}
5{100000}
5{100000}
5{100000}
5{100000}
5{100000}
5{100000}
5{100000}
5{100000}
5{100000}
5{100000}
5{100000}
5{100000}
5{100000}
5{100000}
5{100000}
5{100000}
5{100000}
5{100000}
5{100000}
5{100000}
5{100000}
5{100000}
5{100000}
5{100000}
5{100000}
5{100000}
5{100000}
5{100000}
5{100000}
5{100000}
5{100000}
5{100000}
5{100000}
5{100000}
5{100000}
)


60
(
5{100000}
5{100000}
5{100000}
5{100000}
5{100000}
5{100000}
5{100000}
5{100000}
5{100000}
5{100000}
5{100000}
5{100000}
5{100000}
5{100000}
5{100000}
5{100000}
5{100000}
5{100000}
5{100000}
5{100000}
5{100000}
5{100000}
5{100000}
5{100000}
5{100000}
5{100000}
5{100000}
5{100000}
5{100000}
5{100000}
5{100000}
5{100000}
5{100000}
5{100000}
5{100000}
5{100000}
5{100000}
5{100000}
5{100000}
5{100000}
5{100000}
5{100000}
5{100000}
5{100000}
5{100000}
5{100000}
5{100000}
5{100000}
5{100000}
5{100000}
5{100000}
5{100000}
5{100000}
5{100000}
5{100000}
5{100000}
5{100000}
5{100000}
5{100000}
5{100000}
)


60
(
5{100000}
5{100000}
5{100000}
5{100000}
5{100000}
5{100000}
5{100000}
5{100000}
5{100000}
5{100000}
5{100000}
5{100000}
5{100000}
5{100000}
5{100000}
5{100000}
5{100000}
5{100000}
5{100000}
5{100000}
5{100000}
5{100000}
5{100000}
5{100000}
5{100000}
5{100000}
5{100000}
5{100000}
5{100000}
5{100000}
5{100000}
5{100000}
5{100000}
5{100000}
5{100000}
5{100000}
5{100000}
5{100000}
5{100000}
5{100000}
5{100000}
5{100000}
5{100000}
5{100000}
5{100000}
5{100000}
5{100000}
5{100000}
5{100000}
5{100000}
5{100000}
5{100000}
5{100000}
5{100000}
5{100000}
5{100000}
5{100000}
5{100000}
5{100000}
5{100000}
)


60
(
5{100000}
5{100000}
5{100000}
5{100000}
5{100000}
5{100000}
5{100000}
5{100000}
5{100000}
5{100000}
5{100000}
5{100000}
5{100000}
5{100000}
5{100000}
5{100000}
5{100000}
5{100000}
5{100000}
5{100000}
5{100000}
5{100000}
5{100000}
5{100000}
5{100000}
5{100000}
5{100000}
5{100000}
5{100000}
5{100000}
5{100000}
5{100000}
5{100000}
5{100000}
5{100000}
5{100000}
5{100000}
5{100000}
5{100000}
5{100000}
5{100000}
5{100000}
5{100000}
5{100000}
5{100000}
5{100000}
5{100000}
5{100000}
5{100000}
5{100000}
5{100000}
5{100000}
5{100000}
5{100000}
5{100000}
5{100000}
5{100000}
5{100000}
5{100000}
5{100000}
)


60
(
5{100000}
5{100000}
5{100000}
5{100000}
5{100000}
5{100000}
5{100000}
5{100000}
5{100000}
5{100000}
5{100000}
5{100000}
5{100000}
5{100000}
5{100000}
5{100000}
5{100000}
5{100000}
5{100000}
5{100000}
5{100000}
5{100000}
5{100000}
5{100000}
5{100000}
5{100000}
5{100000}
5{100000}
5{100000}
5{100000}
5{100000}
5{100000}
5{100000}
5{100000}
5{100000}
5{100000}
5{100000}
5{100000}
5{100000}
5{100000}
5{100000}
5{100000}
5{100000}
5{100000}
5{100000}
5{100000}
5{100000}
5{100000}
5{100000}
5{100000}
5{100000}
5{100000}
5{100000}
5{100000}
5{100000}
5{100000}
5{100000}
5{100000}
5{100000}
5{100000}
)


60
(
5{100000}
5{100000}
5{100000}
5{100000}
5{100000}
5{100000}
5{100000}
5{100000}
5{100000}
5{100000}
5{100000}
5{100000}
5{100000}
5{100000}
5{100000}
5{100000}
5{100000}
5{100000}
5{100000}
5{100000}
5{100000}
5{100000}
5{100000}
5{100000}
5{100000}
5{100000}
5{100000}
5{100000}
5{100000}
5{100000}
5{100000}
5{100000}
5{100000}
5{100000}
5{100000}
5{100000}
5{100000}
5{100000}
5{100000}
5{100000}
5{100000}
5{100000}
5{100000}
5{100000}
5{100000}
5{100000}
5{100000}
5{100000}
5{100000}
5{100000}
5{100000}
5{100000}
5{100000}
5{100000}
5{100000}
5{100000}
5{100000}
5{100000}
5{100000}
5{100000}
)


60
(
5{100000}
5{100000}
5{100000}
5{100000}
5{100000}
5{100000}
5{100000}
5{100000}
5{100000}
5{100000}
5{100000}
5{100000}
5{100000}
5{100000}
5{100000}
5{100000}
5{100000}
5{100000}
5{100000}
5{100000}
5{100000}
5{100000}
5{100000}
5{100000}
5{100000}
5{100000}
5{100000}
5{100000}
5{100000}
5{100000}
5{100000}
5{100000}
5{100000}
5{100000}
5{100000}
5{100000}
5{100000}
5{100000}
5{100000}
5{100000}
5{100000}
5{100000}
5{100000}
5{100000}
5{100000}
5{100000}
5{100000}
5{100000}
5{100000}
5{100000}
5{100000}
5{100000}
5{100000}
5{100000}
5{100000}
5{100000}
5{100000}
5{100000}
5{100000}
5{100000}
)


60
(
5{100000}
5{100000}
5{100000}
5{100000}
5{100000}
5{100000}
5{100000}
5{100000}
5{100000}
5{100000}
5{100000}
5{100000}
5{100000}
5{100000}
5{100000}
5{100000}
5{100000}
5{100000}
5{100000}
5{100000}
5{100000}
5{100000}
5{100000}
5{100000}
5{100000}
5{100000}
5{100000}
5{100000}
5{100000}
5{100000}
5{100000}
5{100000}
5{100000}
5{100000}
5{100000}
5{100000}
5{100000}
5{100000}
5{100000}
5{100000}
5{100000}
5{100000}
5{100000}
5{100000}
5{100000}
5{100000}
5{100000}
5{100000}
5{100000}
5{100000}
5{100000}
5{100000}
5{100000}
5{100000}
5{100000}
5{100000}
5{100000}
5{100000}
5{100000}
5{100000}
)


60
(
5{100000}
5{100000}
5{100000}
5{100000}
5{100000}
5{100000}
5{100000}
5{100000}
5{100000}
5{100000}
5{100000}
5{100000}
5{100000}
5{100000}
5{100000}
5{100000}
5{100000}
5{100000}
5{100000}
5{100000}
5{100000}
5{100000}
5{100000}
5{100000}
5{100000}
5{100000}
5{100000}
5{100000}
5{100000}
5{100000}
5{100000}
5{100000}
5{100000}
5{100000}
5{100000}
5{100000}
5{100000}
5{100000}
5{100000}
5{100000}
5{100000}
5{100000}
5{100000}
5{100000}
5{100000}
5{100000}
5{100000}
5{100000}
5{100000}
5{100000}
5{100000}
5{100000}
5{100000}
5{100000}
5{100000}
5{100000}
5{100000}
5{100000}
5{100000}
5{100000}
)


60
(
5{100000}
5{100000}
5{100000}
5{100000}
5{100000}
5{100000}
5{100000}
5{100000}
5{100000}
5{100000}
5{100000}
5{100000}
5{100000}
5{100000}
5{100000}
5{100000}
5{100000}
5{100000}
5{100000}
5{100000}
5{100000}
5{100000}
5{100000}
5{100000}
5{100000}
5{100000}
5{100000}
5{100000}
5{100000}
5{100000}
5{100000}
5{100000}
5{100000}
5{100000}
5{100000}
5{100000}
5{100000}
5{100000}
5{100000}
5{100000}
5{100000}
5{100000}
5{100000}
5{100000}
5{100000}
5{100000}
5{100000}
5{100000}
5{100000}
5{100000}
5{100000}
5{100000}
5{100000}
5{100000}
5{100000}
5{100000}
5{100000}
5{100000}
5{100000}
5{100000}
)


60
(
5{100000}
5{100000}
5{100000}
5{100000}
5{100000}
5{100000}
5{100000}
5{100000}
5{100000}
5{100000}
5{100000}
5{100000}
5{100000}
5{100000}
5{100000}
5{100000}
5{100000}
5{100000}
5{100000}
5{100000}
5{100000}
5{100000}
5{100000}
5{100000}
5{100000}
5{100000}
5{100000}
5{100000}
5{100000}
5{100000}
5{100000}
5{100000}
5{100000}
5{100000}
5{100000}
5{100000}
5{100000}
5{100000}
5{100000}
5{100000}
5{100000}
5{100000}
5{100000}
5{100000}
5{100000}
5{100000}
5{100000}
5{100000}
5{100000}
5{100000}
5{100000}
5{100000}
5{100000}
5{100000}
5{100000}
5{100000}
5{100000}
5{100000}
5{100000}
5{100000}
)


60
(
5{100000}
5{100000}
5{100000}
5{100000}
5{100000}
5{100000}
5{100000}
5{100000}
5{100000}
5{100000}
5{100000}
5{100000}
5{100000}
5{100000}
5{100000}
5{100000}
5{100000}
5{100000}
5{100000}
5{100000}
5{100000}
5{100000}
5{100000}
5{100000}
5{100000}
5{100000}
5{100000}
5{100000}
5{100000}
5{100000}
5{100000}
5{100000}
5{100000}
5{100000}
5{100000}
5{100000}
5{100000}
5{100000}
5{100000}
5{100000}
5{100000}
5{100000}
5{100000}
5{100000}
5{100000}
5{100000}
5{100000}
5{100000}
5{100000}
5{100000}