/*--------------------------------*- C++ -*----------------------------------*\
| =========                 |                                                 |
| \\      /  F ield         | OpenFOAM: The Open Source CFD Toolbox           |
|  \\    /   O peration     | Version:  2.3.1                                 |
|   \\  /    A nd           | Web:      www.OpenFOAM.org                      |
|    \\/     M anipulation  |                                                 |
\*---------------------------------------------------------------------------*/
FoamFile
{
    version     2.0;
    format      ascii;
    class       dictionary;
    location    "constant";
    object      PM10;
}
// * * * * * * * * * * * * * * * * * * * * * * * * * * * * * * * * * * * * * //

PM10_table
60
(

60
(
5(-0.0591158722 0.1894869042 -0.1203659635 -0.130514318 -0.1945376599)
5(0.03330313545 -0.2100561642 -0.3372368482 -0.3248863029 0.5568576458)
5(-0.06414459612 -0.2252691153 -0.3271084703 -0.3390203004 -0.654446107)
5(-0.1255977903 -0.2314322675 -0.2942146914 -0.3835876158 -0.3496527276)
5(-0.1591779035 -0.2328703676 -0.2677649392 -0.3656564589 -0.5186054135)
5(-0.1458013979 -0.2301036652 -0.3039328941 -0.3788536684 -0.587690233)
5(-0.1415146573 -0.2241942918 -0.3353004072 -0.3841283396 -0.5840529478)
5(-0.1333967944 -0.2279169917 -0.3243526966 -0.3870471613 -0.6061540061)
5(-0.1259067818 -0.2296591616 -0.3231302053 -0.3807787825 -0.6018227225)
5(-0.131036786 -0.2282861272 -0.3146273218 -0.3766124238 -0.5950166879)
5(-0.141063088 -0.2292710106 -0.3116126115 -0.375458884 -0.5904303289)
5(-0.1504202873 -0.226922558 -0.3147556962 -0.3782595994 -0.5925362586)
5(-0.1470734431 -0.2238859501 -0.3169862049 -0.3754890674 -0.5875332995)
5(-0.140899822 -0.2227395703 -0.3172842161 -0.3800868791 -0.5935840126)
5(-0.1423420653 -0.2249111731 -0.3189755647 -0.3801572111 -0.5915943759)
5(-0.1426707744 -0.2250310125 -0.3190328153 -0.3805078972 -0.5912506507)
5(-0.1455289265 -0.2283589074 -0.3215754278 -0.3829703433 -0.5903808412)
5(-0.1482135722 -0.231287519 -0.3246783826 -0.3839204309 -0.5893165464)
5(-0.1509682873 -0.2343711167 -0.3270863977 -0.3872895299 -0.5916683597)
5(-0.1531079404 -0.2359004117 -0.3284454367 -0.3887386508 -0.5955058174)
5(-0.15677325 -0.2411323188 -0.3346795566 -0.3956544387 -0.6029324598)
5(-0.1610808813 -0.2464170106 -0.3408728336 -0.4082223667 -0.6172252801)
5(-0.1650756125 -0.2517089888 -0.3473760637 -0.4122996421 -0.618859645)
5(-0.1707061685 -0.2573603647 -0.3548077533 -0.4207451686 -0.6286866838)
5(-0.1769108408 -0.2642166739 -0.3631422937 -0.4281228631 -0.6365986838)
5(-0.1841553839 -0.2734799946 -0.3722452609 -0.4363288328 -0.6474428836)
5(-0.1931972363 -0.2863866311 -0.3860176467 -0.4489719635 -0.6607544769)
5(-0.2043885696 -0.2995085107 -0.3990024803 -0.4632426336 -0.6764157191)
5(-0.2159608279 -0.3126502642 -0.4161552536 -0.4820928706 -0.6951846132)
5(-0.2297400409 -0.328005597 -0.4353054172 -0.504607411 -0.7181892679)
5(-0.245638005 -0.345492109 -0.4544669879 -0.5234238131 -0.7391653095)
5(-0.2646222256 -0.3676919176 -0.4800993075 -0.5536600586 -0.7733093236)
5(-0.2868041151 -0.3909893974 -0.5051106596 -0.5780963537 -0.7910276938)
5(-0.3118698555 -0.4166717889 -0.5315981747 -0.6084063918 -0.8292780799)
5(-0.3408404242 -0.4472708382 -0.5633348086 -0.6392014916 -0.8586464788)
5(-0.3739154503 -0.4780265949 -0.5921636269 -0.6678453789 -0.8792823513)
5(-0.4122516738 -0.5208696493 -0.6406933365 -0.7059836643 -0.8978507762)
5(-0.4546945533 -0.5581463506 -0.6778900956 -0.7329296488 -0.9248495213)
5(-0.5014372838 -0.601253659 -0.7127071248 -0.7660001874 -0.9335196385)
5(-0.5510764533 -0.6455129661 -0.7474297152 -0.7753382217 -0.7573904655)
5(-0.6073430381 -0.6966179466 -0.7921372507 -0.7873875773 -0.9608736887)
5(-0.6662298369 -0.7435636367 -0.8211578517 -0.7492273238 -1.000426884)
5(-0.7253405905 -0.7894516632 -0.831713796 -0.8323062299 -1.010636507)
5(-0.7826034161 -0.8191912515 -0.8261464641 -0.8763545668 -0.9539243555)
5(-0.8355956202 -0.8504702743 -0.8365628251 -0.8528654588 -0.9018867895)
5(-0.8844526156 -0.8652972214 -0.7652729846 -0.8201649097 -0.8259279989)
5(-0.9114881066 -0.8367243365 -0.7400455744 -0.7867607039 -0.7453441734)
5(-0.9220273436 -0.8350444744 -0.8052775457 -0.7216627748 -0.660146332)
5(-0.9341719452 -0.7188710991 -0.7717927067 -0.6434473918 -0.5698965303)
5(-0.7259557948 -0.6514610972 -0.7420720322 -0.5573676977 -0.478403571)
5(-0.6264383128 -0.6980959141 -0.6621436255 -0.4698318264 -0.3870692006)
5(-0.7076391526 -0.660529474 -0.5713169355 -0.3754217432 -0.2966014427)
5(-0.7180315424 -0.5762123168 -0.4754830057 -0.2770287306 -0.2041224862)
5(-0.64059678 -0.4722540283 -0.3747794274 -0.1754233548 -0.1156558617)
5(-0.5311801305 -0.362440676 -0.2663192217 -0.07107960225 -0.0263831862)
5(-0.3980122391 -0.239074713 -0.1464726234 0.03639882257 0.05944383574)
5(-0.2057800284 -0.09666936584 -0.009977164031 0.1516632685 0.1316130782)
5(0.08884487387 0.1211119658 0.1582547344 0.3207051916 0.1967622107)
5(0.5224424449 0.4912970833 0.4742064352 0.1136901002 0.220607301)
5(0.5733132823 0.8218079759 0.8067201029 0.8740084589 0.9203364106)
)


60
(
5(-0.06078973864 -0.08052128823 -0.1250969666 -0.1168967059 -0.2163394427)
5(-0.10176452 -0.1505796399 -0.2338794659 -0.2327473401 -0.4241006467)
5(-0.1055849102 -0.1514030978 -0.2343886006 -0.2659864342 -0.5074023255)
5(-0.06204137872 -0.1456897005 -0.205240861 -0.2706006428 -0.3216703864)
5(-0.08113814337 -0.1467663278 -0.2060136347 -0.2426135777 -0.3835593745)
5(-0.09257450106 -0.1476395483 -0.2231503964 -0.2368573718 -0.4033847371)
5(-0.09739938547 -0.1481298317 -0.2229035689 -0.2445916868 -0.3812947717)
5(-0.09984560265 -0.1474007561 -0.2165399147 -0.2408699628 -0.4178588998)
5(-0.09149309407 -0.1457727127 -0.2167454335 -0.2385945258 -0.4014022066)
5(-0.08779359488 -0.1434870867 -0.2090822154 -0.2382250307 -0.3911644802)
5(-0.08639157964 -0.1423995636 -0.2069755374 -0.2351000813 -0.3855390347)
5(-0.09156142508 -0.1416656764 -0.2083161613 -0.2328472336 -0.3856138586)
5(-0.09617810112 -0.14060779 -0.2075889016 -0.2294330806 -0.3807183433)
5(-0.09546312143 -0.1396540751 -0.2060197905 -0.2314159696 -0.3803144593)
5(-0.09608158468 -0.140295412 -0.2060700251 -0.2290902037 -0.3780077246)
5(-0.09538133358 -0.1392179847 -0.2043596137 -0.2280220028 -0.3748336251)
5(-0.0956720984 -0.1394958836 -0.2036257355 -0.2275017207 -0.3710061691)
5(-0.0965968296 -0.1399309263 -0.2035847399 -0.226394466 -0.3685788108)
5(-0.0975959242 -0.1404645856 -0.2036245196 -0.2269383535 -0.3668344867)
5(-0.09825256448 -0.1402475764 -0.2032302422 -0.2253517329 -0.3664271301)
5(-0.09940552205 -0.1421775717 -0.2047793607 -0.2270399982 -0.3668755601)
5(-0.1009926575 -0.1438320544 -0.2055250254 -0.2326843887 -0.3704983702)
5(-0.1025319007 -0.1452822851 -0.2076935454 -0.2323507662 -0.3686706092)
5(-0.1047268532 -0.1465999027 -0.2100463831 -0.2351524238 -0.3715994226)
5(-0.107229993 -0.1493249098 -0.2128663425 -0.2375166804 -0.3732302626)
5(-0.1104864719 -0.1528118649 -0.2156897566 -0.2401349704 -0.3777101145)
5(-0.1144020556 -0.1578366474 -0.2217987612 -0.2452050484 -0.3838197216)
5(-0.1192784564 -0.1637352522 -0.2273931385 -0.2523002233 -0.3919317067)
5(-0.1249723806 -0.1698744712 -0.2358749767 -0.2622293858 -0.4017017855)
5(-0.1320160218 -0.1770129461 -0.2459865026 -0.2756055823 -0.4153100887)
5(-0.1403352014 -0.1861218548 -0.2566233545 -0.2870633468 -0.4299679719)
5(-0.1506887043 -0.1982056216 -0.2718947568 -0.3067779405 -0.4564111122)
5(-0.1633482236 -0.2116618317 -0.2880533989 -0.3258752578 -0.4698965951)
5(-0.178102947 -0.2271980163 -0.306183722 -0.3496444376 -0.5053039705)
5(-0.1956627921 -0.2470417251 -0.3298321529 -0.3760858954 -0.5342652697)
5(-0.2163786073 -0.2674835361 -0.3516922234 -0.4051384694 -0.5659825797)
5(-0.2416360409 -0.2972980722 -0.390743316 -0.4435315421 -0.5985519299)
5(-0.2703058164 -0.3256025703 -0.4258674116 -0.4783541694 -0.6596775887)
5(-0.3036888136 -0.3612668791 -0.4622341391 -0.522261343 -0.6805806172)
5(-0.3406830051 -0.3993930316 -0.5000181585 -0.5648049438 -0.808307242)
5(-0.3838233376 -0.4458954052 -0.5536661527 -0.6194236157 -0.8604993137)
5(-0.4337299606 -0.4942292153 -0.6046092851 -0.7038871534 -0.9061027896)
5(-0.4864557908 -0.5493239731 -0.6608394049 -0.8090198034 -0.9305659672)
5(-0.5429173757 -0.5962666128 -0.6841210194 -0.8584248271 -0.9311394859)
5(-0.6010381629 -0.648431696 -0.7432452761 -0.8839722273 -0.9257314049)
5(-0.6631471703 -0.6920217524 -0.8064564236 -0.8945395647 -0.8965729951)
5(-0.7189551651 -0.743528829 -0.9044667462 -0.8807803927 -0.8473542173)
5(-0.7674633806 -0.8116254373 -0.9348817852 -0.8457899049 -0.7823009675)
5(-0.8054507989 -0.8262531137 -0.9262224043 -0.7913250625 -0.7027400305)
5(-0.8305097614 -0.8913502173 -0.8873692458 -0.7162120872 -0.6125948721)
5(-0.8436846676 -0.8666706803 -0.8228041947 -0.6290356637 -0.5191791485)
5(-0.882786061 -0.8103966339 -0.7369450074 -0.5292782725 -0.4223428521)
5(-0.8514958246 -0.7246555902 -0.6344403045 -0.4225865011 -0.3235245613)
5(-0.7738061271 -0.6139005435 -0.520920762 -0.3104870663 -0.225676669)
5(-0.6471770169 -0.4830687587 -0.3950746061 -0.1954782461 -0.1311445276)
5(-0.4814207918 -0.3364477308 -0.2584745519 -0.07950935585 -0.0406143362)
5(-0.2442366792 -0.1694242804 -0.1074415355 0.03818911114 0.03621917351)
5(0.05754589435 0.0605733218 0.06868744031 0.1566214889 0.1049441003)
5(0.4685268775 0.4246927929 0.4189979509 0.1323886107 0.1776185725)
5(0.6736542194 0.7106513721 0.6135251504 0.7375588965 0.694503017)
)


60
(
5(-0.01566801848 0.004943501572 -0.02718953126 0.01018371639 -0.05528608538)
5(-0.04942507217 -0.02669478872 -0.09918625478 -0.06033068733 -0.181484988)
5(-0.05649175548 -0.03942960278 -0.1187759433 -0.08374729029 -0.2096588744)
5(-0.05514592635 -0.0411234393 -0.1122036014 -0.08241789263 -0.2005093727)
5(-0.05190052622 -0.0380506397 -0.1018543003 -0.07376175763 -0.1786044272)
5(-0.04817692174 -0.03412577973 -0.0928439445 -0.0665850182 -0.1619621909)
5(-0.04562152848 -0.03087193896 -0.08976456797 -0.06190353071 -0.1564939889)
5(-0.04415211189 -0.02924675413 -0.08768487125 -0.06003464774 -0.1553068202)
5(-0.04255348613 -0.02813871154 -0.08605079547 -0.05967564257 -0.1533371302)
5(-0.04015992601 -0.02628630792 -0.08312391109 -0.05729194639 -0.1496590937)
5(-0.0383918411 -0.02381472596 -0.07961224592 -0.05399164707 -0.1432296802)
5(-0.03598011148 -0.02178209303 -0.07553803472 -0.05080641963 -0.1368880289)
5(-0.03385276796 -0.01948336031 -0.0720807602 -0.04821741475 -0.1323133442)
5(-0.03191742898 -0.01742794115 -0.06915411724 -0.04513981001 -0.1271971892)
5(-0.03006212146 -0.0155540485 -0.06654784438 -0.04251605155 -0.122878205)
5(-0.02815268894 -0.01342070276 -0.06355299125 -0.03986082787 -0.1181222736)
5(-0.02626470555 -0.01127203881 -0.06033506757 -0.03687001268 -0.1132937677)
5(-0.02439712426 -0.008969668415 -0.05709919933 -0.03382630536 -0.108363376)
5(-0.02239294332 -0.007059313877 -0.05406583913 -0.03072407153 -0.1032540704)
5(-0.02045888748 -0.004732814238 -0.05090092188 -0.02740433094 -0.09795551412)
5(-0.01855913712 -0.002409408513 -0.04784826986 -0.02449376327 -0.09336104009)
5(-0.01668813831 -7.148204931e-05 -0.04476955988 -0.0208761174 -0.08847170276)
5(-0.01476312543 0.002272987401 -0.04177174255 -0.01801569112 -0.0836064529)
5(-0.01266074693 0.004913458988 -0.0383038992 -0.01553209452 -0.07955675592)
5(-0.01079094425 0.007300710004 -0.03579840498 -0.01260186284 -0.07608979611)
5(-0.008658813906 0.009674086374 -0.03251342208 -0.009602421162 -0.07217996586)
5(-0.006571427111 0.01171633505 -0.0301690633 -0.007316917126 -0.06953268225)
5(-0.004864919999 0.01398572168 -0.02816628769 -0.005666970666 -0.06852357116)
5(-0.003107002068 0.01614461978 -0.02639043441 -0.004964723724 -0.06684952277)
5(-0.00156000371 0.01737200066 -0.0257993433 -0.005359061524 -0.068914666)
5(-0.0002726033267 0.01824641224 -0.02562676533 -0.006927415781 -0.07145350842)
5(0.0006673601884 0.01856271803 -0.02702069166 -0.01010346477 -0.07726052132)
5(0.001058284349 0.01771811557 -0.03000239328 -0.0157658149 -0.08509820388)
5(0.0008322300471 0.01551494873 -0.03449738323 -0.02313385518 -0.09654771704)
5(-0.0002895271182 0.01242695606 -0.04114373803 -0.03391380586 -0.1107375301)
5(-0.001924528323 0.006778447035 -0.0501193022 -0.04782158295 -0.129587837)
5(-0.005273501866 -0.0004281136482 -0.06211017162 -0.06603424552 -0.1519542288)
5(-0.009001078783 -0.009933320277 -0.07756965129 -0.08775667958 -0.1781969126)
5(-0.01405666615 -0.02327273368 -0.09702860769 -0.1133453199 -0.2108240155)
5(-0.02086653793 -0.03822561024 -0.1211816985 -0.1438126919 -0.2489383016)
5(-0.02946899118 -0.05930664036 -0.1505059371 -0.178990578 -0.2955826028)
5(-0.04004158269 -0.08149663593 -0.1818135319 -0.2199413347 -0.3464604477)
5(-0.05086440231 -0.1089610621 -0.2171525186 -0.2671085438 -0.3991628443)
5(-0.06328489684 -0.1418940862 -0.2547864633 -0.3194757065 -0.448858486)
5(-0.07718302694 -0.174556433 -0.2963388015 -0.3745592588 -0.4941021253)
5(-0.09295129187 -0.2081647564 -0.3392063453 -0.4250656614 -0.5317003964)
5(-0.1077259912 -0.2387479014 -0.3854217229 -0.4674796515 -0.556665888)
5(-0.1205997346 -0.2692362972 -0.4276171559 -0.4994827573 -0.5665553311)
5(-0.1217174632 -0.2949405153 -0.462488658 -0.5176286692 -0.5600311337)
5(-0.1212174669 -0.3158044075 -0.4833370839 -0.5186543263 -0.5360951826)
5(-0.1053634109 -0.3281886164 -0.4862896602 -0.5013047152 -0.4994619808)
5(-0.08310958683 -0.3261464854 -0.4722847177 -0.4673332042 -0.4505349656)
5(-0.05556500336 -0.3058276706 -0.4379785292 -0.4175915719 -0.3928365475)
5(-0.02677317948 -0.2691251961 -0.3856568068 -0.3567601269 -0.3245163038)
5(0.006905908328 -0.2112136201 -0.3183123463 -0.285001466 -0.2547371364)
5(0.05128180751 -0.1416552337 -0.2399356456 -0.2076233728 -0.1845074316)
5(0.1058655638 -0.06083006148 -0.1526183086 -0.1295217386 -0.1146945127)
5(0.1811976581 0.03320028667 -0.0584615912 -0.04911779725 -0.04789094621)
5(0.326701252 0.1609745963 0.0627359756 0.04808002011 0.0227397915)
5(0.564806552 0.5125617413 0.2956078757 0.1952984805 0.1660321435)
)


60
(
5(0.01075208962 0.04511166911 0.02333128288 0.07415280711 0.02855692308)
5(-0.0180308057 0.02165482703 -0.02672856651 0.0245213406 -0.0560983198)
5(-0.02403881321 0.0140932205 -0.04422321834 0.006315027033 -0.07857097458)
5(-0.02238659041 0.01403937961 -0.04001409508 0.00763807535 -0.07492808869)
5(-0.01789914832 0.01760608388 -0.03048665408 0.01539768082 -0.05906586795)
5(-0.01321879242 0.02229864112 -0.02109954124 0.02333059338 -0.04550985339)
5(-0.00915321569 0.02630198505 -0.015233039 0.02908742837 -0.03820088204)
5(-0.005992139382 0.02954851296 -0.01147752437 0.03194842793 -0.03431721632)
5(-0.002847316805 0.03251895131 -0.007984907595 0.03482209751 -0.03044961247)
5(0.0003387402058 0.03582010112 -0.004030637117 0.03832205859 -0.02390341396)
5(0.003642417814 0.03909828751 0.001076990782 0.0430152714 -0.01732383081)
5(0.007192322979 0.04254045061 0.006206678097 0.04737319317 -0.01082138155)
5(0.01080326808 0.04637998445 0.01116036009 0.05201982189 -0.004260102644)
5(0.01439453364 0.0499718528 0.01596655238 0.05647700212 0.001930058734)
5(0.01784392724 0.0535669004 0.02075992592 0.06097390804 0.008192135602)
5(0.02115710268 0.05713506418 0.0256566774 0.06551740456 0.01455136937)
5(0.02483632634 0.06088164227 0.03065085635 0.07071810553 0.02128854844)
5(0.028598415 0.06487005212 0.03549176786 0.07630087619 0.0276408359)
5(0.03228542227 0.06891198405 0.04119480048 0.08124538352 0.03476873892)
5(0.03627917385 0.07335017664 0.0464982754 0.08691379587 0.04187727052)
5(0.04025963371 0.0778755468 0.05197854643 0.09274997428 0.04960907575)
5(0.04455132184 0.08259048623 0.05776091407 0.09860944719 0.056957752)
5(0.04876346209 0.08770833159 0.06410622327 0.1051146181 0.06424221275)
5(0.05368852272 0.09307257296 0.070342739 0.1114841392 0.07169847708)
5(0.05846027036 0.09831809809 0.07656938122 0.1178282317 0.07881436397)
5(0.06375329946 0.1041070971 0.08306373594 0.1246164332 0.08574848501)
5(0.06903609162 0.1095424585 0.08937416493 0.1308990848 0.09268171975)
5(0.07442715984 0.1158012339 0.09607090335 0.1377914447 0.09837978172)
5(0.08048525014 0.1218704196 0.1022248857 0.1430625657 0.1040256688)
5(0.08664627177 0.1278288975 0.1084565768 0.1487007236 0.1083624225)
5(0.09301558091 0.1339758809 0.1143089843 0.1532554507 0.1117616966)
5(0.09940120787 0.139869696 0.1192242585 0.1564403119 0.113560467)
5(0.1061239201 0.144814704 0.1234079046 0.15895616 0.1124204138)
5(0.1129749155 0.1505110626 0.1266427344 0.1596647969 0.1096239959)
5(0.1200177276 0.1548737141 0.1283958443 0.1584474572 0.1042177684)
5(0.1261738487 0.1583623889 0.1290215221 0.1547457218 0.09554992032)
5(0.1338943048 0.1612044351 0.1274609612 0.1486157747 0.08352726135)
5(0.1414113621 0.162759966 0.1238508255 0.1391594365 0.06829787313)
5(0.1492983431 0.1627502515 0.1169702843 0.1264648825 0.04759079265)
5(0.1577016275 0.1610419945 0.1077773663 0.1105333382 0.02269581477)
5(0.1656313562 0.1573769106 0.0957107805 0.09088710143 -0.006907628599)
5(0.1762720371 0.1534880073 0.07984759139 0.06769257228 -0.04251772725)
5(0.1876834455 0.1466380461 0.06203155117 0.03788436409 -0.08487323975)
5(0.2011188763 0.1371104766 0.04217533347 0.001970366071 -0.1318115538)
5(0.2162899073 0.1254837094 0.01910574894 -0.03935674072 -0.1793656165)
5(0.2313453153 0.1160020585 -0.006490962755 -0.08513709318 -0.2255592609)
5(0.2468564862 0.1082312871 -0.03582134597 -0.1286511599 -0.2656232355)
5(0.2631262146 0.1036597129 -0.06629117533 -0.1682179132 -0.2955784721)
5(0.2832870764 0.09803379176 -0.09460442453 -0.2023904749 -0.3145944614)
5(0.3134647654 0.1001861047 -0.1172973499 -0.2232092872 -0.3181797539)
5(0.351226786 0.1032042903 -0.1288156759 -0.2295537979 -0.3069233405)
5(0.3926939411 0.1125224538 -0.1255012819 -0.2197004779 -0.2826585575)
5(0.4346905167 0.1309236596 -0.1073052437 -0.1933192343 -0.2463285135)
5(0.4756436546 0.1628921542 -0.07360461119 -0.1540582414 -0.2002410362)
5(0.5158991312 0.2024187477 -0.02543965302 -0.1018379085 -0.1450319238)
5(0.5515261201 0.2516512765 0.035267014 -0.04057748594 -0.08649056909)
5(0.5875814544 0.3095530794 0.1035816279 0.02693988103 -0.0238148141)
5(0.6332557305 0.377282198 0.1837215886 0.09958071661 0.03910980946)
5(0.7606724438 0.5344345055 0.3343033253 0.205765315 0.1197026184)
5(0.8255048726 0.6701183066 0.5075145583 0.3473512254 0.3217729391)
)


60
(
5(0.02676810171 0.06337549486 0.05093856781 0.1075737897 0.07371207946)
5(0.002575611193 0.04652976728 0.01680420872 0.07215682635 0.01587888124)
5(-0.001664017333 0.04414798063 0.003600567005 0.05960364448 -0.0009960369313)
5(0.001210552307 0.04572216686 0.007799161798 0.0623832628 0.002568974106)
5(0.006347179372 0.04989757851 0.01690064005 0.07034185198 0.01450926577)
5(0.01199946842 0.05567704288 0.02703007508 0.07943765698 0.02678154078)
5(0.01725116899 0.06150125022 0.03491036981 0.08630702034 0.03555517452)
5(0.02170453552 0.06592320971 0.04045482217 0.09106119419 0.04198107847)
5(0.02561680062 0.07026839978 0.04576023117 0.09572313063 0.047874523)
5(0.02982722373 0.07472247797 0.05091826275 0.1008613759 0.05476891795)
5(0.03429566595 0.0793718979 0.05716236866 0.1064693321 0.0620389751)
5(0.03874101667 0.08420798766 0.0632484807 0.1122119524 0.06960687944)
5(0.04333152844 0.08893930704 0.06962570764 0.118430614 0.07730342328)
5(0.04767810488 0.09371616829 0.07575331406 0.124411732 0.08403592247)
5(0.0523463474 0.09847025168 0.08201588723 0.1303378437 0.09197278925)
5(0.0569722656 0.1035981467 0.08840508816 0.1362610572 0.09923730685)
5(0.0615041074 0.10863002 0.09469241868 0.1432966444 0.107203168)
5(0.06648760694 0.1138972445 0.1014232144 0.1495067701 0.1149111196)
5(0.07125725939 0.1195346853 0.1082197388 0.1565937662 0.1231808309)
5(0.07651574508 0.1252570686 0.1150621367 0.1638604693 0.1319151441)
5(0.08183868813 0.1311113071 0.1226101001 0.1717634443 0.1405610487)
5(0.08728338709 0.1376909566 0.1301308333 0.1796336 0.1491985526)
5(0.09326546029 0.1442916723 0.1380790127 0.1881529074 0.1580345755)
5(0.0996146761 0.1511095313 0.1458918825 0.1967041659 0.1670339225)
5(0.1060364529 0.1583911947 0.1546116758 0.2053554832 0.1766546267)
5(0.1130297092 0.1660661749 0.163330069 0.2142710728 0.1858341366)
5(0.1203663848 0.1738956441 0.1724897889 0.2234859248 0.194636734)
5(0.1279295108 0.1822739888 0.1813914879 0.2327397723 0.2038066007)
5(0.1358352245 0.1908617048 0.1905194008 0.2415475543 0.2113669738)
5(0.1444511787 0.1994454741 0.1998618849 0.2505179776 0.2194368164)
5(0.1533409296 0.2084877598 0.2090959708 0.2588797677 0.2259852058)
5(0.1628191537 0.217849653 0.2172547032 0.2665450427 0.2321947027)
5(0.1727445861 0.226621694 0.2261929646 0.2737341392 0.2361657804)
5(0.1831311921 0.2360840487 0.2340801131 0.2797078398 0.2396655907)
5(0.1942959482 0.2449989603 0.2417497652 0.2847012516 0.2398672843)
5(0.2058154848 0.2543053029 0.2482407439 0.2889129646 0.2389183271)
5(0.2186699434 0.2631930763 0.2534033576 0.2906748684 0.2346529472)
5(0.2326129049 0.2715804091 0.2579775241 0.2904898698 0.227491934)
5(0.2476402975 0.2799388275 0.2613484197 0.2882605507 0.2186187498)
5(0.2646955229 0.2886870301 0.263006826 0.2844673916 0.206308278)
5(0.2839512902 0.2974399809 0.2633008003 0.2794580439 0.192905179)
5(0.3058744794 0.3066035539 0.2614514012 0.272632586 0.1717104405)
5(0.3311199053 0.3159785099 0.2601201036 0.2618541352 0.1435294359)
5(0.3587047933 0.3243445208 0.2578535111 0.2444415866 0.1067188118)
5(0.388183555 0.3344038283 0.2561685175 0.2199184675 0.06461589923)
5(0.4188269576 0.3455901469 0.2519177836 0.1892113994 0.01981308063)
5(0.4485669481 0.3594909994 0.2479227219 0.1540435407 -0.02325130045)
5(0.4804619949 0.3803727954 0.2398475534 0.1194414985 -0.06265820416)
5(0.5102105065 0.404511339 0.2275824558 0.08696732473 -0.09309590542)
5(0.5537011263 0.4305581065 0.2201028577 0.06128711899 -0.1146716321)
5(0.5981530852 0.4532241616 0.2180363337 0.04602813879 -0.1210760403)
5(0.6462352323 0.4811843489 0.2247238857 0.04559891322 -0.1166429223)
5(0.6934290865 0.5094787707 0.2448607439 0.05831700312 -0.09699022405)
5(0.7407585696 0.5451289341 0.2748597104 0.08644437368 -0.06438141914)
5(0.7816711045 0.5825139043 0.3144207011 0.1253906427 -0.01961925309)
5(0.8236192358 0.6251725693 0.362201226 0.175026402 0.03428242449)
5(0.8611829877 0.6690744075 0.4193335351 0.2363790198 0.09138360018)
5(0.9034559478 0.7210709069 0.4853955834 0.3016519523 0.1535530421)
5(1.024521372 0.8624421194 0.6750641898 0.4394867852 0.2602172285)
5(0.9567778631 0.8538274382 0.7797987018 0.5597878924 0.4363390017)
)


60
(
5(0.03636426242 0.06931402768 0.06577031409 0.1239300858 0.0983022195)
5(0.01530788675 0.05799975445 0.04360031559 0.09919747408 0.0588160073)
5(0.01288791231 0.05961147255 0.03438042346 0.09199775465 0.04739491312)
5(0.01660718196 0.06190740442 0.038939285 0.09641568009 0.05124992234)
5(0.0219103058 0.06628798592 0.04816817689 0.1050856271 0.06213414379)
5(0.02775906651 0.07286311027 0.05879737737 0.114705227 0.07398744799)
5(0.03339730254 0.07923944201 0.06767868939 0.1229561898 0.08347038998)
5(0.03821055168 0.08445610813 0.07443623852 0.1294095149 0.0919145488)
5(0.04251239109 0.08956034555 0.08069392181 0.1352045979 0.09903573839)
5(0.04698139688 0.09429630523 0.08670179001 0.1413145972 0.1066448493)
5(0.05161749624 0.09969522008 0.09357770508 0.1479865364 0.1146398159)
5(0.05639690557 0.1047264124 0.1003572081 0.1550768704 0.1228972574)
5(0.06110416255 0.1100194139 0.1076270794 0.1620046226 0.1310370441)
5(0.06562021918 0.1152790746 0.1142651295 0.1689976515 0.1393256525)
5(0.07042989819 0.1206204574 0.1212752426 0.1759563468 0.1473329168)
5(0.07521176328 0.1259968734 0.1277976952 0.1831816764 0.1554805511)
5(0.08004981522 0.1315034347 0.1352312052 0.1906940467 0.1640163621)
5(0.08490617053 0.1372359398 0.142630149 0.1977456413 0.172791197)
5(0.09011305683 0.1430883094 0.149919262 0.2063900828 0.1818735759)
5(0.09537860698 0.1492229668 0.1578276176 0.2144916269 0.191033857)
5(0.1008157606 0.1554216586 0.1657589095 0.2232907015 0.2007004108)
5(0.10670617 0.162351592 0.174196744 0.2324973863 0.2101938751)
5(0.1125804887 0.1692204829 0.1826860793 0.2415702245 0.2200698895)
5(0.1188594656 0.1765148637 0.1916133011 0.2513140006 0.2303187887)
5(0.1257530362 0.1840667367 0.2010106307 0.2613286954 0.2406365128)
5(0.1326178406 0.1920162919 0.210576509 0.2713002514 0.2504834572)
5(0.1401679316 0.2004608029 0.2203919062 0.2817948224 0.2613343256)
5(0.1478607143 0.2091751003 0.2300038819 0.292450848 0.2716287868)
5(0.156339486 0.2179148906 0.2406458546 0.3033510712 0.2812013866)
5(0.1650442801 0.2272817033 0.2510719567 0.3134077466 0.2909376055)
5(0.1745190216 0.2372459158 0.2614118587 0.3242223543 0.2997352482)
5(0.1842143008 0.2467462425 0.2713041002 0.3341999744 0.3075863036)
5(0.1944597928 0.2570096542 0.2817136308 0.3440984832 0.3155803442)
5(0.2058477148 0.2671631787 0.2922471918 0.3533017926 0.3225227356)
5(0.2176868377 0.2776433651 0.30151096 0.3620338194 0.3274101697)
5(0.2303715989 0.2890549894 0.3114410239 0.369928778 0.330458219)
5(0.2447788736 0.299219176 0.3202851942 0.3762535897 0.3317965)
5(0.2601989468 0.3107111356 0.3290959591 0.381867576 0.3312197761)
5(0.2777523072 0.3232331815 0.3374579066 0.3871809261 0.3305057275)
5(0.2977286334 0.3354974728 0.3449402334 0.3924909335 0.3291841518)
5(0.3197063836 0.3496234247 0.3529400242 0.3971834391 0.3266703757)
5(0.3442835264 0.3642202894 0.3610182567 0.4033753485 0.3195128924)
5(0.3709096143 0.3806060107 0.3688465676 0.4064737621 0.3047184368)
5(0.399850682 0.3980836679 0.3799656291 0.4069467546 0.2812209883)
5(0.4300253679 0.4166535105 0.3932732293 0.4002600516 0.2497793657)
5(0.4613635941 0.4375698131 0.4090357531 0.3863208135 0.212817236)
5(0.4898623339 0.464742846 0.4245600966 0.3666819864 0.1756973852)
5(0.5186515666 0.4941686628 0.4346264914 0.3437510364 0.1379183657)
5(0.548812145 0.5267280726 0.4426433164 0.32215317 0.1030312002)
5(0.5849646578 0.5603749581 0.4524738918 0.3042226552 0.07385898104)
5(0.6238126359 0.5904630088 0.4641140141 0.2929271682 0.05519371692)
5(0.6668932878 0.6193723155 0.4790827937 0.2900808596 0.0474801286)
5(0.699646042 0.6496724697 0.5059133908 0.3012101989 0.05493741764)
5(0.7281660268 0.6828697134 0.5376906901 0.3233681424 0.07819628542)
5(0.7540171799 0.720484665 0.5757952881 0.3581202498 0.1136851728)
5(0.7826483129 0.7586948093 0.6162998491 0.4019187255 0.1611154303)
5(0.8154296166 0.7995114039 0.6617325411 0.4534300619 0.2156039484)
5(0.8568037128 0.8445675595 0.7116534896 0.5121183578 0.2794475795)
5(0.9870123001 0.9703146718 0.8745829694 0.6543420953 0.4001343625)
5(0.9163291468 0.9007546578 0.8480369101 0.6911902096 0.5429561551)
)


60
(
5(0.04199272569 0.06866943346 0.07343355518 0.1307057964 0.1117720732)
5(0.02314000544 0.0615028562 0.05992334276 0.1146463256 0.08523412358)
5(0.02217758131 0.06571025119 0.05424101866 0.111976962 0.07906367792)
5(0.02605160088 0.06843211513 0.05907152671 0.118164149 0.08406893666)
5(0.03100336029 0.07270694016 0.06830615982 0.1274205632 0.09482792999)
5(0.03655179827 0.07893800616 0.07922416829 0.1378927279 0.1070117229)
5(0.04217995864 0.08550532541 0.08804023848 0.1469381333 0.117722883)
5(0.04658681258 0.09085237907 0.0956676468 0.1547204978 0.1275379084)
5(0.05079624414 0.09591533014 0.1019627158 0.1613334355 0.1359284722)
5(0.05480964862 0.1009447749 0.1086750295 0.1684880769 0.1445108718)
5(0.05915413517 0.1058363401 0.1152264106 0.1756978077 0.1531981769)
5(0.06342249559 0.1109737511 0.1225608316 0.1836415029 0.1622039064)
5(0.06786123174 0.1160368515 0.1295118506 0.1912403713 0.1712784852)
5(0.072110035 0.1210477359 0.1367160294 0.199096747 0.180342761)
5(0.07638203356 0.1261631654 0.1435461053 0.2066773315 0.1893458639)
5(0.08055969872 0.1313295659 0.1506542682 0.2146864126 0.1984670372)
5(0.08493591932 0.1366019965 0.1577112388 0.2225763059 0.2076133757)
5(0.08937854162 0.1419528768 0.1649909784 0.2310327055 0.2170581558)
5(0.09399312517 0.1474354051 0.1726702826 0.2395988819 0.2268887295)
5(0.09874306856 0.1532416936 0.1803958501 0.248527272 0.236799422)
5(0.1037653761 0.1591745025 0.1884502158 0.2578932094 0.2473067822)
5(0.1089065487 0.1656815899 0.1969365639 0.2675661798 0.2575492858)
5(0.1143183416 0.1721244963 0.2054386501 0.2774292045 0.2683600014)
5(0.1199532571 0.1789643374 0.2144996403 0.2878315819 0.279000919)
5(0.1258727599 0.1862447674 0.2236867773 0.2980475401 0.290251128)
5(0.1324055558 0.1937261891 0.2332042835 0.3090214671 0.301703946)
5(0.1390214752 0.2014082326 0.2429198452 0.3205282782 0.3129527578)
5(0.1458968873 0.2093363448 0.2531790757 0.3318477954 0.3240325238)
5(0.1538065842 0.2180151375 0.263628212 0.3429253917 0.3350576808)
5(0.1616931187 0.2272279932 0.2740626818 0.3546741802 0.3463282045)
5(0.1701010123 0.2358725459 0.2845490754 0.3663857303 0.3568139683)
5(0.1789660541 0.245006944 0.2953881214 0.3776866603 0.3669824376)
5(0.1889043608 0.2551218742 0.3058577519 0.3887789713 0.3765446669)
5(0.1994816841 0.2646475386 0.3167673415 0.4000854576 0.3861602725)
5(0.2103545668 0.2749998331 0.327111156 0.4112263337 0.3944561549)
5(0.2225938199 0.2852511105 0.3375347635 0.4212427219 0.4012089793)
5(0.2355384083 0.2958477345 0.3486422843 0.4313000736 0.4073840584)
5(0.2507483293 0.3078338007 0.3584652136 0.4404268313 0.411607547)
5(0.2671601659 0.3202286957 0.3690558811 0.4498093492 0.41712279)
5(0.2860170283 0.3330802245 0.3804121226 0.4594434252 0.4244449217)
5(0.3066637021 0.3481458431 0.3912223839 0.4723397226 0.4313129731)
5(0.3289564008 0.3641384962 0.404346855 0.4862191383 0.4361445172)
5(0.3528838484 0.3815725209 0.4174751375 0.5013216464 0.4350230617)
5(0.3772861312 0.4007938084 0.436464991 0.5145415707 0.4235780136)
5(0.4021663331 0.4208977292 0.4579599706 0.5226722865 0.4055901961)
5(0.4258047184 0.4431680739 0.483085483 0.5251405315 0.3848672325)
5(0.4479807659 0.4680301686 0.5076188039 0.5245026878 0.358768028)
5(0.4706236917 0.494642904 0.5318237447 0.5187176773 0.3308353198)