/*--------------------------------*- C++ -*----------------------------------*\
| =========                 |                                                 |
| \\      /  F ield         | OpenFOAM: The Open Source CFD Toolbox           |
|  \\    /   O peration     | Version:  2.3.1                                 |
|   \\  /    A nd           | Web:      www.OpenFOAM.org                      |
|    \\/     M anipulation  |                                                 |
\*---------------------------------------------------------------------------*/
FoamFile
{
    version     2.0;
    format      ascii;
    class       dictionary;
    location    "constant";
    object      PM13;
}
// * * * * * * * * * * * * * * * * * * * * * * * * * * * * * * * * * * * * * //

PM13_table
60
(

60
(
5(-1.469099644e-06 0.0001712531939 0.0001358298222 0.0001283021136 0.002154868673)
5(0.001624879526 -7.404977088e-05 -0.000162138646 -0.0001675669386 0.004427609604)
5(0.001566118936 -0.0003155561005 -0.0001993363617 -4.987756253e-05 -0.0003838332761)
5(0.001417269534 -0.0006850186586 -0.0002990957457 -0.0006011519008 -0.0008632676613)
5(0.0009631537133 -0.001079668347 -0.0003770660338 -0.001045442805 -0.00116440106)
5(-0.0003837179682 -0.001242206046 -0.0006495375777 -0.001449363477 -0.002857187928)
5(-0.001457163845 -0.0006813179591 -0.001370883955 -0.00224995294 -0.004778365602)
5(0.001185292142 -0.001089411589 -0.001917248839 -0.003115986246 -0.004436129395)
5(0.001807755017 -0.00225779418 -0.002497297889 -0.004309219072 -0.008721770825)
5(0.000519254504 -0.003006267714 -0.003603317247 -0.005616948533 -0.01122291123)
5(-0.001490707041 -0.004075136093 -0.004704937229 -0.007574505939 -0.01412149056)
5(-0.003557824639 -0.004535268939 -0.006119646318 -0.009900570311 -0.01765262672)
5(-0.00304216268 -0.004860514717 -0.008139220509 -0.01245959122 -0.02258869585)
5(-0.002705793991 -0.006125912865 -0.01023986447 -0.01533006597 -0.02749876646)
5(-0.003325428276 -0.007417144625 -0.0126558737 -0.01903277677 -0.03321385972)
5(-0.004032368094 -0.009083009904 -0.01554873217 -0.02278884339 -0.04002087948)
5(-0.005428714036 -0.01164871589 -0.01917813963 -0.02768431944 -0.04751174522)
5(-0.006902775448 -0.01433110071 -0.02330162684 -0.0324541417 -0.05432193481)
5(-0.00852574623 -0.01730209902 -0.0273437677 -0.03773789297 -0.0621647217)
5(-0.01034736556 -0.0203466822 -0.03182453508 -0.04342840291 -0.07049142574)
5(-0.01240876602 -0.02375812589 -0.03697810327 -0.04920816283 -0.07962511272)
5(-0.01486638736 -0.02784453151 -0.04265337924 -0.0563874714 -0.09040106687)
5(-0.01749809676 -0.03223102201 -0.0488340738 -0.06431515351 -0.1006719409)
5(-0.02059068544 -0.03699019062 -0.05545112896 -0.07162602297 -0.110385907)
5(-0.02410327808 -0.04203423199 -0.06272483475 -0.07966561849 -0.1207407156)
5(-0.02794067761 -0.0478310546 -0.07017305828 -0.08748030097 -0.1303973882)
5(-0.0323585842 -0.05438651459 -0.07843580442 -0.09619300298 -0.140997179)
5(-0.03752090484 -0.06161287205 -0.08721941797 -0.1049893418 -0.1516824024)
5(-0.04321040812 -0.06904814826 -0.09633763317 -0.1146551973 -0.1628367808)
5(-0.04961529331 -0.07721906461 -0.1064397322 -0.1254397517 -0.1744265063)
5(-0.0569241655 -0.08604702419 -0.1167970146 -0.1353026625 -0.1833458522)
5(-0.06514515177 -0.09605265736 -0.1280158909 -0.1461038075 -0.1952213986)
5(-0.07475820613 -0.1070923924 -0.1402424532 -0.1579415466 -0.2065485723)
5(-0.08566001523 -0.1188747108 -0.1521330748 -0.1682584755 -0.2131975901)
5(-0.09794895934 -0.1320837157 -0.1658490527 -0.1800178157 -0.2242760071)
5(-0.1121916008 -0.1460184175 -0.1778954347 -0.1893555277 -0.2314038959)
5(-0.1279032887 -0.161896469 -0.1930790228 -0.2026135808 -0.2331320989)
5(-0.1461919633 -0.1783367518 -0.2092434374 -0.2087186002 -0.2323722923)
5(-0.1662826049 -0.1958306373 -0.2234049093 -0.2213727852 -0.2195009956)
5(-0.1878478391 -0.2138482485 -0.2356449753 -0.2031285086 -0.09017273655)
5(-0.2107298113 -0.23221267 -0.2477727461 -0.1945708105 -0.190855196)
5(-0.2356746642 -0.2497709824 -0.2514681366 -0.1503026854 -0.208782838)
5(-0.2601533968 -0.2660277477 -0.245571464 -0.1783694179 -0.2269497536)
5(-0.2853854086 -0.2804253539 -0.2467344417 -0.2075772188 -0.2111489151)
5(-0.3061308325 -0.2894132473 -0.2388293674 -0.2004877435 -0.194403654)
5(-0.3258065182 -0.2921715171 -0.1920451603 -0.1919185228 -0.1752558965)
5(-0.3344755779 -0.2620162765 -0.1740497906 -0.1883440988 -0.155976825)
5(-0.3313076101 -0.2538316085 -0.2100564318 -0.1720219753 -0.1369275364)
5(-0.335584284 -0.2034213699 -0.2030471625 -0.1518902877 -0.1177733198)
5(-0.2272928081 -0.1727924416 -0.1993731175 -0.1306977732 -0.09935697837)
5(-0.1830569131 -0.2008019788 -0.1757032091 -0.1101398347 -0.08165381686)
5(-0.2216497903 -0.1922965271 -0.1501559898 -0.08877266662 -0.06435687502)
5(-0.2304004199 -0.1662096794 -0.1243956088 -0.06696316151 -0.04666092081)
5(-0.2025102059 -0.1345429278 -0.09832971374 -0.04446855861 -0.02913563229)
5(-0.1638585391 -0.1024260645 -0.0709026564 -0.02091133825 -0.01058887212)
5(-0.1197358988 -0.06775068301 -0.0407152728 0.004407466172 0.008617989274)
5(-0.06125628834 -0.02873594252 -0.005759673032 0.03329150712 0.02632963144)
5(0.02276498021 0.03049875939 0.03879257884 0.07796634211 0.04431813137)
5(0.1416861009 0.132357462 0.125036745 0.02668426917 0.05640591275)
5(0.1525842792 0.2265759903 0.2236064713 0.2477706448 0.2623911845)
)


60
(
5(-1.894523535e-05 5.21758319e-06 -0.000116978494 -4.315334393e-06 -0.000745834955)
5(-2.785797438e-05 -2.514939532e-05 -0.0001803558892 -0.0002349031071 -0.001215632478)
5(0.000303322844 -6.237519127e-05 -0.0001273483653 -0.000256993541 -0.0006745035879)
5(0.0009438873766 -9.329006518e-05 -0.0001438966259 -0.0002412404854 -0.0008026252481)
5(0.001212317228 -0.0001224160501 -0.0002049544347 -0.0003944029774 -0.001069367725)
5(0.0009046258879 -0.0001542124846 -0.0001192098208 -0.0004854878277 -0.001253860612)
5(-3.388682541e-05 -0.0002096063649 -0.0002587147001 -0.0005577379785 -0.002278209108)
5(1.000959661e-05 -0.0003110223407 -0.0005767573037 -0.0009215880521 -0.002277454469)
5(0.001002391231 -0.0004739050643 -0.0007502708605 -0.001381271193 -0.003547178709)
5(0.001439543431 -0.0006324962209 -0.001183079377 -0.001833245544 -0.004731616216)
5(0.00146273564 -0.0008459995178 -0.001622996131 -0.00247311838 -0.006278937303)
5(0.000494219763 -0.001265090346 -0.002108006116 -0.003280266148 -0.007751007144)
5(-0.0003325706811 -0.001684945994 -0.002786910716 -0.004339471522 -0.009919312526)
5(-0.0005791504268 -0.002216002206 -0.003720222577 -0.005475383319 -0.01230728134)
5(-0.0007879661505 -0.002860655608 -0.004790915523 -0.007049866089 -0.01514766957)
5(-0.001046791818 -0.00350645332 -0.006109437826 -0.008751375251 -0.01828167837)
5(-0.001486361059 -0.004503859092 -0.007659062942 -0.01082057848 -0.0221375036)
5(-0.00211216513 -0.005687017678 -0.009635707924 -0.01330662907 -0.02642259999)
5(-0.002843183134 -0.007095801086 -0.0118346688 -0.01607256512 -0.03101721861)
5(-0.00373552143 -0.008727959803 -0.01441005569 -0.01929781532 -0.03616166996)
5(-0.004756064485 -0.01055878921 -0.01723131905 -0.02287672084 -0.04182833682)
5(-0.006075619918 -0.01268815725 -0.02054700929 -0.02698639813 -0.04818304943)
5(-0.007621999241 -0.01509835554 -0.02432631099 -0.03154821836 -0.05497034782)
5(-0.009330640346 -0.01783105881 -0.02855107279 -0.03661197133 -0.06229520459)
5(-0.01145958294 -0.02097410811 -0.03330454142 -0.0421591687 -0.06997139523)
5(-0.01389861488 -0.02449600861 -0.03850266812 -0.04808192347 -0.07829649773)
5(-0.01675583601 -0.02857729893 -0.04425664915 -0.05466855461 -0.08718944512)
5(-0.02007495407 -0.03321139394 -0.05058805047 -0.06194687697 -0.09674828285)
5(-0.02402746864 -0.03829810478 -0.0576567648 -0.07013690345 -0.1069301865)
5(-0.02853404425 -0.04394272333 -0.06553338053 -0.07928082408 -0.1177815929)
5(-0.03373499855 -0.05041642685 -0.07405637374 -0.08859834784 -0.1292096399)
5(-0.03984177497 -0.05790410713 -0.08381420932 -0.09989030196 -0.1427390185)
5(-0.04701510106 -0.0662620982 -0.0943799435 -0.1114938759 -0.1541982297)
5(-0.05528191787 -0.07563959884 -0.1058730856 -0.1245351288 -0.1701895245)
5(-0.06502460004 -0.0866405265 -0.1190335262 -0.1385688539 -0.1846508256)
5(-0.07629856345 -0.09848515984 -0.1324550403 -0.1534908685 -0.1995045972)
5(-0.08982864026 -0.1134300783 -0.1505035582 -0.1709940894 -0.2147648074)
5(-0.1049938287 -0.1288805941 -0.1683061965 -0.1877012974 -0.2361040022)
5(-0.1227382243 -0.1471257392 -0.186867513 -0.2068657621 -0.2482618639)
5(-0.1428918044 -0.1669049475 -0.206086512 -0.2256136633 -0.2818188956)
5(-0.1658547173 -0.1898205712 -0.2299340266 -0.2473165825 -0.2996667716)
5(-0.1922028764 -0.2140358519 -0.2530120422 -0.2759425321 -0.3127454541)
5(-0.2203709859 -0.2404665772 -0.2773542109 -0.3069199469 -0.3168166618)
5(-0.2505985761 -0.2642838424 -0.2908241921 -0.3225789525 -0.3120540525)
5(-0.2816442614 -0.2889838444 -0.314082789 -0.3278423987 -0.3034466983)
5(-0.3135462878 -0.3101013862 -0.3364496066 -0.3261977621 -0.2873824827)
5(-0.3421263079 -0.3324964605 -0.3647484018 -0.3150055272 -0.265487933)
5(-0.3662074202 -0.3582500985 -0.369298783 -0.2962165288 -0.2399788357)
5(-0.3836879295 -0.3624940021 -0.3592229049 -0.2715199453 -0.2118195063)
5(-0.3933750103 -0.3785988971 -0.3372238446 -0.2412744759 -0.182251849)
5(-0.3946211159 -0.3617489539 -0.306060565 -0.2087888794 -0.1535437542)
5(-0.4003648158 -0.3313267879 -0.2685287393 -0.1742659868 -0.1254318842)
5(-0.376046444 -0.2894182595 -0.2271197894 -0.1392946688 -0.09783491835)
5(-0.3323329619 -0.2396377303 -0.1841990346 -0.1042780518 -0.0714582365)
5(-0.2700611873 -0.1850338303 -0.1393861304 -0.06925960584 -0.04581348947)
5(-0.1958238354 -0.127673185 -0.09287144473 -0.03422027875 -0.02085388508)
5(-0.09948546415 -0.06610748644 -0.04282999414 0.001899112845 0.001425923327)
5(0.01477972706 0.01473637787 0.01510682473 0.03970535877 0.02294231981)
5(0.1617895457 0.1399951247 0.1305472589 0.03462096989 0.04783180758)
5(0.2358429178 0.2463701982 0.2082199111 0.2471354443 0.2288687047)
)


60
(
5(9.786984062e-06 7.659215943e-05 2.420841742e-05 0.0003767235254 -0.000387937868)
5(5.442838823e-06 4.889917224e-05 -2.586356249e-05 0.000117213804 -0.0008107766232)
5(2.611953957e-05 6.5152263e-05 3.252071846e-05 0.0001399737052 -0.0004367290993)
5(5.339278164e-05 0.0001052850916 9.649524803e-05 0.0002679070304 -0.0002780169284)
5(8.618350443e-05 0.0001775131062 0.0001704634759 0.0004770818039 -0.0002120508564)
5(0.0001299108601 0.0002872269874 0.0002785573 0.0007668748708 -0.0001483113033)
5(0.0001937566837 0.0004259084202 0.0003869222671 0.001061787166 -9.409648855e-05)
5(0.0002669722059 0.0005784629771 0.0004903327508 0.001344289616 -7.69386112e-05)
5(0.0003599077836 0.000751411118 0.0005814753858 0.00160285957 -0.0001835194054)
5(0.0004637953409 0.0009615751354 0.000675520929 0.001901539728 -0.0003796094263)
5(0.0005897272771 0.001224008695 0.0007869708107 0.0022764738 -0.0004991557594)
5(0.0007252987881 0.00151895504 0.000926130209 0.002692487434 -0.0006473907282)
5(0.000883285616 0.001868089683 0.001054043587 0.003083582683 -0.0009386789123)
5(0.001081041861 0.002256566963 0.001150036617 0.003479661622 -0.001224292439)
5(0.001283575849 0.002662987966 0.001190780161 0.003842218614 -0.001639798017)
5(0.001460679749 0.003096213085 0.001198742352 0.004117563044 -0.002209300197)
5(0.001662312424 0.003560799696 0.001170940927 0.004379628156 -0.002834610728)
5(0.001897230644 0.004051151882 0.001097481371 0.004570387402 -0.003611644787)
5(0.002101984089 0.004501906035 0.0009351021103 0.004648800849 -0.0045808163)
5(0.002324412247 0.004985555676 0.000703242905 0.004602905687 -0.005745395524)
5(0.00249144714 0.005440965929 0.0003441972563 0.004343929366 -0.007073366986)
5(0.002573860184 0.005872319644 -0.0001413720192 0.004044868899 -0.008700162346)
5(0.00268748336 0.006248784528 -0.0007981596948 0.003354603875 -0.01064651367)
5(0.002800190788 0.006599945746 -0.001509085742 0.002349392544 -0.01298455097)
5(0.002756021983 0.006821851061 -0.002604753844 0.001143959827 -0.01564480326)
5(0.002710408417 0.00694192839 -0.003717747097 -0.0002608808225 -0.01851496966)
5(0.00259807728 0.006847015455 -0.005258552457 -0.002174877002 -0.02214800876)
5(0.002227286048 0.006649944789 -0.007102020306 -0.004534285282 -0.02636895845)
5(0.00182118744 0.006319639687 -0.00922530871 -0.007484746919 -0.03071298603)
5(0.001170071479 0.005493773692 -0.0119574608 -0.01106479647 -0.03641516187)
5(0.0003466356415 0.0043927268 -0.01504689921 -0.01540747208 -0.04275667745)
5(-0.0007313116661 0.002886338142 -0.01893962567 -0.02057894793 -0.05018126763)
5(-0.002203425423 0.0007143314931 -0.02368967688 -0.0269822778 -0.05859827304)
5(-0.004076730216 -0.00223143195 -0.029285912 -0.03430708139 -0.06844757496)
5(-0.006474120098 -0.005818070591 -0.03602028627 -0.04328949417 -0.07969828126)
5(-0.009449031037 -0.01082766447 -0.0440105538 -0.05385289825 -0.09246539305)
5(-0.0134207132 -0.01683241452 -0.05361374615 -0.06639290611 -0.1066291003)
5(-0.01771885329 -0.02419600407 -0.06508268583 -0.08072070207 -0.1226636647)
5(-0.02294024686 -0.03380186811 -0.07868646375 -0.09688486183 -0.1409132929)
5(-0.02936955204 -0.04461801415 -0.09472828812 -0.1153257585 -0.1614263333)
5(-0.0371398714 -0.05889989057 -0.1134789387 -0.1359388271 -0.1846077431)
5(-0.04612239692 -0.07415463184 -0.1333778472 -0.1589002885 -0.2082126561)
5(-0.05569462056 -0.09247144586 -0.1552927507 -0.183957657 -0.2304784208)
5(-0.06632441273 -0.1138489892 -0.1782359388 -0.2099026269 -0.24931046)
5(-0.07794375644 -0.135117248 -0.2025747145 -0.2351953574 -0.2642119921)
5(-0.09044116349 -0.1566552224 -0.2264830427 -0.2560555541 -0.2736098896)
5(-0.102029329 -0.1761399154 -0.2502297072 -0.2708839151 -0.2765865944)
5(-0.1119255658 -0.1947331027 -0.2694805618 -0.2789949412 -0.2726243115)
5(-0.1144633318 -0.209114689 -0.2823890674 -0.2793744991 -0.2616164336)
5(-0.1147414848 -0.21865537 -0.2860477132 -0.271367561 -0.2442743293)
5(-0.1049046276 -0.221246997 -0.2792370909 -0.2553362312 -0.2228597816)
5(-0.08981965971 -0.2139988054 -0.2634338689 -0.2328266173 -0.1980016142)
5(-0.07015248537 -0.1957834619 -0.2382353414 -0.2048928183 -0.1713535239)
5(-0.04906830405 -0.168864798 -0.2057063807 -0.1737722022 -0.1423780359)
5(-0.02512814084 -0.1319488315 -0.1679473074 -0.1399967448 -0.1141887411)
5(0.003494869981 -0.09099422679 -0.1271753387 -0.1053088462 -0.08646253596)
5(0.03566821582 -0.0467878528 -0.08442394951 -0.07122802666 -0.05925886638)
5(0.07578708696 0.001104727305 -0.04035161586 -0.03661068222 -0.0328025315)
5(0.1462009328 0.06148574755 0.0123866889 0.003866257817 -0.004223257098)
5(0.2668820007 0.2316151648 0.1214761156 0.076019501 0.06125238711)
)


60
(
5(4.248080882e-05 0.0001710374608 0.0002096004143 0.0008778936084 0.0001822454077)
5(5.604893531e-05 0.0001743810625 0.0002300381677 0.0006982768335 -5.914714527e-06)
5(0.0001115677291 0.0002797746802 0.0004021929819 0.0009553411215 0.0006447009611)
5(0.0001907943028 0.0004444480506 0.0006407347582 0.001420716551 0.001245399155)
5(0.0003008327633 0.0006858210927 0.0009759297834 0.00210737769 0.001973257357)
5(0.0004531828737 0.001024847941 0.0014503494 0.003019449454 0.002914052636)
5(0.0006637484104 0.001453804751 0.002022491624 0.004041115881 0.003943575133)
5(0.000923281245 0.001965635029 0.002646054567 0.005105004023 0.005033073078)
5(0.001241697691 0.002575384452 0.003344297663 0.006294334215 0.006150849363)
5(0.001624491246 0.003309249297 0.004147354189 0.007655331452 0.007403061297)
5(0.002082609015 0.004178738772 0.005103813181 0.009243597224 0.008745573641)
5(0.002640966005 0.005199591457 0.006215568745 0.01097824333 0.0102608433)
5(0.003291660379 0.006386754023 0.007451057305 0.01287944192 0.01192039153)
5(0.004052751218 0.0077168295 0.008791530504 0.01489013525 0.01357006471)
5(0.004923492266 0.009198013971 0.01024372974 0.01700338238 0.01523056629)
5(0.005900600684 0.01082752148 0.0118087897 0.01917521984 0.01692805271)
5(0.006957391561 0.01261006831 0.01347539203 0.02149016543 0.01861964973)
5(0.008195315385 0.01456434054 0.01519776443 0.02388704905 0.02026369935)
5(0.009472324428 0.01663035698 0.01708212697 0.0262122401 0.02194765021)
5(0.01093357123 0.01890137201 0.01895958962 0.02857840794 0.02338885015)
5(0.0125538284 0.02126439448 0.0208656097 0.03092000621 0.0249825222)
5(0.01419379696 0.02372946401 0.02284324269 0.03323214779 0.02632322364)
5(0.01585407454 0.02637755744 0.02490480012 0.03547790945 0.02724632342)
5(0.01791405303 0.02918099297 0.02690111783 0.0375896098 0.02803015731)
5(0.01995893946 0.03192844706 0.02883187826 0.03946222243 0.02847576096)
5(0.02216454347 0.03485640628 0.03078400627 0.04130774672 0.02878994148)
5(0.02441695742 0.03769802893 0.03257750254 0.04277942015 0.02861196361)
5(0.02678632269 0.04077735142 0.03437982392 0.04417305247 0.02777780359)
5(0.02935858692 0.04376581566 0.03588267853 0.04480634927 0.02665206607)
5(0.03201484333 0.04667492821 0.03726357993 0.04522643486 0.02472897239)
5(0.03478632352 0.04959932894 0.03836411576 0.04503646885 0.02226677264)
5(0.03760387785 0.052354537 0.03892716357 0.04394361498 0.01867003558)
5(0.04055207224 0.05461232931 0.03900497197 0.04229170482 0.01381074356)
5(0.04360368316 0.05710261911 0.0384734573 0.03951520503 0.007897949437)
5(0.04674835987 0.05887350992 0.03706397432 0.03565435402 0.0006227061251)
5(0.04950112595 0.0600954296 0.03489541329 0.03018486001 -0.008618669311)
5(0.05302074154 0.06084987866 0.03142570894 0.02327995334 -0.01918601967)
5(0.05647817881 0.06077403659 0.02663780796 0.0144606178 -0.03172330019)
5(0.06020257238 0.05966364795 0.01985168693 0.003486692124 -0.04747778399)
5(0.06425300771 0.0573946869 0.01149256383 -0.009515796444 -0.06553629841)
5(0.06804171011 0.05374522303 0.001191892502 -0.02516579372 -0.08660850002)
5(0.07355524218 0.04972811472 -0.01157390216 -0.04311987818 -0.1097438391)
5(0.0796548341 0.04371017645 -0.02585455049 -0.06473070075 -0.1347995509)
5(0.08717140878 0.03588577315 -0.04171465547 -0.0891893179 -0.1601870372)
5(0.09605287453 0.02657721337 -0.05974397353 -0.1154090535 -0.183965336)
5(0.1052218415 0.01840922839 -0.07909830304 -0.1422601815 -0.2050900355)
5(0.1151240574 0.01128414973 -0.09987443163 -0.1656292612 -0.220939746)
5(0.1260067706 0.006198334343 -0.1198042105 -0.1843971425 -0.2301619408)
5(0.1395047422 0.0007513027458 -0.136192689 -0.1981234879 -0.2324217754)
5(0.1600643331 0.001262975955 -0.146870253 -0.2027346082 -0.2258064586)
5(0.186112391 0.003638345794 -0.148774748 -0.1982436657 -0.2119328051)
5(0.2151019738 0.01156755731 -0.1403770293 -0.1846901055 -0.1921657374)
5(0.2452964176 0.02663554784 -0.1226160047 -0.1624766634 -0.1671628543)
5(0.2748585482 0.05079883924 -0.09598395471 -0.1341923082 -0.1386107916)
5(0.3036155199 0.07962700282 -0.0618566458 -0.1004462182 -0.1073545479)
5(0.3269574452 0.1133964754 -0.02201515425 -0.06333213993 -0.07545323732)
5(0.3489202083 0.1510685422 0.02059110198 -0.02412726184 -0.04232371518)
5(0.3748874973 0.1928519585 0.06810975512 0.01709062831 -0.008962543231)
5(0.4482624975 0.2820983974 0.1484341423 0.07305727479 0.0320757899)
5(0.5026457526 0.3818233404 0.2675328258 0.1659876817 0.143149768)
)


60
(
5(8.324176362e-05 0.0002755750104 0.0004216843089 0.001423970814 0.000818060118)
5(0.0001220032332 0.0003212557412 0.0005528686501 0.001393413552 0.0009564174493)
5(0.0002350554549 0.0005432215802 0.0008977989141 0.001964578453 0.002019748612)
5(0.0003825887073 0.0008552727989 0.001366909835 0.002825665134 0.003107978746)
5(0.000590385849 0.001282869289 0.002009793799 0.004005290977 0.004497437875)
5(0.0008814504403 0.001862372511 0.002876625957 0.005506381285 0.006238787375)
5(0.001264932452 0.00259381828 0.003927824288 0.007220204871 0.008189659755)
5(0.00173870743 0.003456432034 0.005100088946 0.00905839356 0.01028897925)
5(0.002301441735 0.004485194175 0.006414041851 0.01109585959 0.01246921524)
5(0.002992860146 0.00570160072 0.007903313598 0.01337236317 0.01482432094)
5(0.00381564913 0.007135204246 0.009655828269 0.01598356567 0.01745332382)
5(0.004788971932 0.008806127891 0.01163359469 0.01883924298 0.02024044924)
5(0.005940482672 0.01070039294 0.0138674515 0.02196957762 0.02327317741)
5(0.007227356113 0.01282207483 0.01629663899 0.02525559851 0.02630817656)
5(0.008709482337 0.01518070279 0.01894121982 0.02874907122 0.02958837521)
5(0.0104092186 0.01780543816 0.02178760072 0.03235225416 0.03283241931)
5(0.01224358684 0.0206372232 0.02478439263 0.03625747402 0.03615506006)
5(0.01430477183 0.02372425764 0.02803883407 0.04009884155 0.03942354475)
5(0.01655595069 0.02707408516 0.03143448477 0.04416981713 0.04287139222)
5(0.01901949902 0.03064255366 0.03496336261 0.04832811069 0.04628762705)
5(0.02168085812 0.03441130131 0.03871870437 0.05258500513 0.0496089262)
5(0.02454559329 0.03849068883 0.04254740927 0.0568352638 0.0527459599)
5(0.027681959 0.04274335441 0.04652095879 0.0611350925 0.05572058835)
5(0.03104175199 0.04715909889 0.05050892509 0.06543410887 0.05866757459)
5(0.03451534451 0.05180748172 0.05475497646 0.06957155011 0.0613543693)
5(0.03835628455 0.05668993946 0.05901147361 0.07370439387 0.06394626657)
5(0.04242329104 0.06169155914 0.06340903566 0.07776950164 0.06599305882)
5(0.04666441475 0.06695606678 0.06769384981 0.08164674703 0.0679410287)
5(0.05108908841 0.07235660699 0.07200904231 0.08522297832 0.06915200994)
5(0.05595256163 0.07783926648 0.07636564929 0.08863718955 0.07013581172)
5(0.06105820976 0.08353529748 0.08062223963 0.09158401437 0.0704093829)
5(0.06649738216 0.08940411052 0.08434162388 0.09409873501 0.07016428097)
5(0.07227868369 0.09506260436 0.088321542 0.09598776818 0.06836741573)
5(0.07845006442 0.1010682735 0.09174594964 0.09716794974 0.06648267795)
5(0.08511931434 0.1068399189 0.0949728402 0.09760146194 0.06253990544)
5(0.09216541752 0.1128391731 0.09751132756 0.0973450122 0.05774058697)
5(0.1000694158 0.118652302 0.09922995099 0.0955857149 0.05111393786)
5(0.1088430956 0.1242610067 0.1005055309 0.09247142126 0.04256446334)
5(0.1185407219 0.1298913503 0.100913531 0.08778907802 0.03227383196)
5(0.1297437803 0.1357994412 0.1001614192 0.08156981002 0.0191092011)
5(0.1427678101 0.1418287234 0.09836528131 0.07382626066 0.004607885251)
5(0.1579932951 0.1481756179 0.09491721793 0.06414685642 -0.01450826218)
5(0.1758897064 0.1547794598 0.09135549197 0.05125949513 -0.03699870017)
5(0.1961083872 0.1608488433 0.08660716174 0.03420475394 -0.06261960684)
5(0.2183396657 0.16813044 0.08164810957 0.01331636057 -0.08969872624)
5(0.2423627826 0.1762278124 0.07456414886 -0.01016063825 -0.1165897615)
5(0.2664785871 0.1859522649 0.06761408994 -0.03467041064 -0.1408806733)
5(0.2931576062 0.2003069473 0.05881559092 -0.05661895898 -0.1608870486)
5(0.3181375364 0.2169088516 0.04898524619 -0.07504901747 -0.1737550729)
5(0.3535452396 0.2351700587 0.04429498272 -0.08713623502 -0.1791384337)
5(0.3897049525 0.2516619661 0.04522059112 -0.09051095474 -0.1744511358)
5(0.4288552344 0.2731119021 0.05384462183 -0.08314123512 -0.1621622569)
5(0.4688288091 0.2960168693 0.07258927984 -0.06635921839 -0.1410563861)
5(0.509309717 0.3248778829 0.09853015096 -0.04022259528 -0.1137526315)
5(0.5451853185 0.3550424979 0.1308123528 -0.007534706008 -0.07980423525)
5(0.5796893672 0.3884725403 0.1680620535 0.03106716627 -0.04180352848)
5(0.6097254254 0.421834388 0.2106595156 0.0758480049 -0.002679787098)
5(0.6411690885 0.4600054279 0.2584612141 0.1229202939 0.03915966384)
5(0.7258245025 0.5566202502 0.3779644047 0.2075199026 0.1020468559)
5(0.7032985933 0.5920450986 0.4907595062 0.3152572795 0.2258114617)
)


60
(
5(0.0001329807104 0.0003818573483 0.0006441572387 0.001945646806 0.001391180603)
5(0.0001979657868 0.0004777038045 0.0009147484544 0.002112110269 0.001893868699)
5(0.0003848891759 0.000833355686 0.001471839625 0.00303883593 0.00351314316)
5(0.0006229978408 0.001297334417 0.002191075004 0.004351892268 0.005257293452)
5(0.0009298907488 0.001905329511 0.003149225362 0.006021653043 0.007162562053)
5(0.001366359379 0.002711133741 0.004399637386 0.008049687236 0.009589763363)
5(0.001920310082 0.00370674022 0.005886962424 0.01036684358 0.01232917785)
5(0.002599776383 0.004871040479 0.007552985242 0.01284911401 0.01519346267)
5(0.003401433036 0.006241686181 0.009409938759 0.01559322703 0.01828889237)
5(0.004360324462 0.007838530174 0.01149370322 0.01864348657 0.02150401424)
5(0.005482697478 0.009705141471 0.01389405509 0.0220496909 0.02507887114)
5(0.00682212602 0.01183062896 0.01658707548 0.02580172837 0.02885161688)
5(0.00834187203 0.01423520389 0.0195905437 0.02981482236 0.03284431812)
5(0.01006527385 0.01689916839 0.02280734446 0.03405976055 0.03701035598)
5(0.01197817902 0.01982655842 0.02631038086 0.03853370484 0.04127286157)
5(0.01411013287 0.02302674612 0.02999141298 0.04319610611 0.04559116003)
5(0.01648651626 0.02649494695 0.03399379607 0.04808230478 0.05005828376)
5(0.0190410642 0.0302310095 0.03819079812 0.0529898174 0.05454790266)
5(0.02184717509 0.03421845944 0.04256630897 0.05832444785 0.05919742192)
5(0.02488171412 0.0384606986 0.04720023245 0.0635659362 0.06361535912)
5(0.02804271437 0.04290315448 0.05195928771 0.06902476291 0.06832245359)
5(0.03155492591 0.04768891201 0.05694863102 0.0746143952 0.07279632051)
5(0.03522384816 0.0526066882 0.06203928342 0.08010611396 0.07712817888)
5(0.03905656498 0.05777183988 0.06730198866 0.08576059042 0.0815643414)
5(0.04323398457 0.06313819844 0.07276807926 0.09144245335 0.08576038498)
5(0.04756124253 0.06873577266 0.07832841409 0.09696735468 0.08958636288)
5(0.05218747239 0.07458722699 0.08397108411 0.1026105109 0.09364524068)
5(0.05698579335 0.08062091833 0.08956661348 0.1081998354 0.09729117509)
5(0.06216579404 0.08674861954 0.09554102813 0.1137614161 0.10044211)
5(0.06759728057 0.09318354929 0.1014345473 0.118814937 0.1033912743)
5(0.07336615529 0.0999210085 0.1072859392 0.1240951766 0.1058841273)
5(0.07939029307 0.1065519854 0.112935915 0.1288688925 0.1076533066)
5(0.08579739445 0.113611409 0.1188080013 0.1334292543 0.1090539183)
5(0.09291986588 0.1207189617 0.1247548494 0.1374244558 0.1098283981)
5(0.100514501 0.1281005567 0.1300739602 0.141181202 0.1096740053)
5(0.1086565926 0.1360653125 0.1357595486 0.1442736386 0.1079987131)
5(0.1180105582 0.1435546749 0.1408881236 0.1463005866 0.105203691)
5(0.1282685438 0.1519614804 0.1459943981 0.1477503268 0.1010708387)
5(0.1402078007 0.1612390248 0.1508875046 0.1487140072 0.09602829505)
5(0.1541061755 0.1706771813 0.155221969 0.1490466233 0.08914660648)
5(0.1699706831 0.1816003202 0.159867294 0.1481080843 0.08032445813)
5(0.1881287907 0.1932170751 0.1644774167 0.1471134987 0.0685379026)
5(0.2084682663 0.2065151391 0.1687110663 0.143232891 0.05206345081)
5(0.231516807 0.221103865 0.1746991991 0.1371083998 0.03149112725)
5(0.2563967572 0.2368549598 0.1816466291 0.1263733685 0.0067788512)
5(0.2835256205 0.2546741307 0.1898168354 0.1115648476 -0.02015327481)
5(0.3100472364 0.2772722502 0.1976797693 0.09424627654 -0.04622150286)
5(0.3373707822 0.3012803478 0.202423938 0.07630924081 -0.0710205725)
5(0.3661706347 0.3279298055 0.2069722324 0.06096962352 -0.09162280454)
5(0.3997167901 0.3558730277 0.2144899604 0.05037417551 -0.1057366144)
5(0.4353831012 0.3816373433 0.2252308703 0.04695442689 -0.1102537931)
5(0.4750849667 0.4079040642 0.2404618573 0.05175550303 -0.1058352022)
5(0.5082381522 0.4368210407 0.2658732984 0.06809381552 -0.09017805446)
5(0.5395686304 0.4695294463 0.2962157264 0.09357451982 -0.06362914367)
5(0.5698184663 0.5064579678 0.3320586676 0.1285879128 -0.02897459232)
5(0.6032160652 0.5442679814 0.3699343875 0.1702798455 0.01298202141)
5(0.6396604429 0.5836783216 0.411716422 0.2173574987 0.05898524842)
5(0.6813688573 0.6259942954 0.4571786929 0.2701014867 0.1111814269)
5(0.7920708104 0.7295327572 0.5804687014 0.3748413458 0.1953384524)
5(0.7691452262 0.7270052212 0.6314990724 0.4641885651 0.3359299113)
)


60
(
5(0.0001901686479 0.0004872418429 0.0008681117133 0.002429935352 0.001886029335)
5(0.0002900135421 0.000637769654 0.001294621225 0.002836237747 0.002819584996)
5(0.0005568768655 0.001137021782 0.002097446754 0.004163807877 0.004914375016)
5(0.0008973305336 0.001759128115 0.003079556402 0.005864234484 0.007238295795)
5(0.001315661136 0.002540438291 0.004339407278 0.008001046881 0.009816731872)
5(0.001890768271 0.003545607908 0.00594522913 0.01053991525 0.01280992896)
5(0.002627642385 0.00477173098 0.007821616427 0.01339378095 0.01625858037)
5(0.003486256548 0.006190172358 0.009921888744 0.01644834474 0.01981753561)
5(0.00451191987 0.007829662534 0.01221865664 0.01975457563 0.02364982766)
5(0.005687205808 0.009713720529 0.01479300789 0.02345309681 0.02767999217)
5(0.007061762354 0.01187229726 0.01767699587 0.02749165632 0.03191930201)
5(0.008651597439 0.01432044393 0.02092288711 0.03190941656 0.0365069876)
5(0.01047817071 0.01703500958 0.02445512462 0.03659023374 0.04130211296)
5(0.01247592591 0.02000244123 0.02825814643 0.04155612921 0.046310847)
5(0.01466879099 0.02324597101 0.03229153827 0.04673620729 0.05147011903)
5(0.01708236224 0.02674453116 0.03658957303 0.05216031107 0.05670294358)
5(0.01966549241 0.03049257934 0.04110271833 0.05773320242 0.06202054702)
5(0.02256776822 0.03447146022 0.04582718081 0.06353553267 0.06736241551)
5(0.02550060246 0.03864620699 0.05081127786 0.06945018132 0.07287397899)
5(0.02874700526 0.04309645802 0.05594466288 0.07556680173 0.07844859485)
5(0.032199063 0.04770994091 0.06127067383 0.08177616739 0.08394968178)
5(0.03567664814 0.05258016728 0.06678933171 0.08814112705 0.08955465597)
5(0.03951782325 0.05759175217 0.07240037303 0.09454761019 0.09505575564)
5(0.04335233393 0.06275353464 0.07822447347 0.1010771131 0.1004722726)
5(0.04738221236 0.06817513083 0.08411530273 0.1075066058 0.1059143243)
5(0.05177355472 0.07371578004 0.09014229825 0.1141222916 0.1113794287)
5(0.05616588904 0.07934399634 0.0962636588 0.1209428089 0.1167304788)
5(0.06057588871 0.08511200357 0.102582447 0.1275692424 0.1216286581)
5(0.06564353078 0.09125935203 0.1089860573 0.1340073227 0.126486186)