/*--------------------------------*- C++ -*----------------------------------*\
| =========                 |                                                 |
| \\      /  F ield         | OpenFOAM: The Open Source CFD Toolbox           |
|  \\    /   O peration     | Version:  2.3.1                                 |
|   \\  /    A nd           | Web:      www.OpenFOAM.org                      |
|    \\/     M anipulation  |                                                 |
\*---------------------------------------------------------------------------*/
FoamFile
{
    version     2.0;
    format      ascii;
    class       dictionary;
    location    "constant";
    object      PM14;
}
// * * * * * * * * * * * * * * * * * * * * * * * * * * * * * * * * * * * * * //

PM14_table
60
(

60
(
5(0.0001440440381 0.000161464494 0.0006388738815 0.0006156186307 0.003884165579)
5(0.001333328514 4.607590749e-05 0.0001751425464 0.0002532238706 0.003812874076)
5(-0.0001844311889 0.0003368504761 0.0001937773266 0.0001759512975 0.0001336238145)
5(-0.0009637303069 0.0007310043559 0.000379233892 0.0004153486922 0.00247466299)
5(-0.001213939858 0.0008302486759 0.0003917845525 0.0009864302392 0.0009300408153)
5(-0.0001414157532 0.0006613361096 0.0003624637532 0.001146960126 0.001689416702)
5(0.0009426786054 0.0005309802438 0.0009911860199 0.001619806697 0.003863458138)
5(-0.0005185388332 0.0009342361024 0.001634717361 0.002369937211 0.002124663085)
5(-0.00181939927 0.001662887293 0.001986342999 0.003397623894 0.006098490728)
5(-0.001143095483 0.002319753791 0.00321067614 0.004268248111 0.007771006182)
5(0.0001491559327 0.003052782357 0.00386805147 0.005891498622 0.009439080152)
5(0.002244892534 0.003727286775 0.00470070532 0.007855395084 0.01126407147)
5(0.002828043752 0.004484367448 0.006405480036 0.01020849407 0.01495400355)
5(0.00305053788 0.005663400316 0.008150359409 0.01195319282 0.01778289615)
5(0.003622003364 0.006924303263 0.01010527048 0.01575195191 0.02177873618)
5(0.004605490057 0.008617663012 0.01282173092 0.01887359056 0.02689735063)
5(0.006022077847 0.01085734505 0.01570450742 0.02322593489 0.03311681367)
5(0.007646483958 0.01344256306 0.01930159048 0.02798130219 0.03826649737)
5(0.009542354489 0.01663531416 0.02313288579 0.0329212531 0.04416813429)
5(0.01188339156 0.02016423225 0.02751428762 0.03921085576 0.04965192759)
5(0.01407477183 0.02301962148 0.03156225776 0.04301889431 0.0558379742)
5(0.0170557963 0.02737823997 0.0368634816 0.04719313555 0.0633488704)
5(0.02038937298 0.03238373958 0.04252325866 0.05797277961 0.07461415019)
5(0.02397999014 0.03826483421 0.04894139715 0.06469276273 0.08154137114)
5(0.02841242843 0.04360025656 0.05706892351 0.07468180587 0.09159029637)
5(0.03292085534 0.04977341527 0.06535140892 0.08417127727 0.09874219138)
5(0.03802779656 0.05621975328 0.07222310943 0.09384023692 0.1081329647)
5(0.04403900715 0.06473568981 0.08246306902 0.1027270663 0.1174417851)
5(0.05158862675 0.07368739298 0.08978213433 0.1110400829 0.1279937831)
5(0.05935323901 0.0840048113 0.09983196699 0.1204729173 0.1379085572)
5(0.06862523535 0.0945653544 0.1117507144 0.1325641472 0.1430791721)
5(0.07767962294 0.104728484 0.1202775856 0.1368618072 0.1462744639)
5(0.08864719644 0.1187183795 0.1351173201 0.151279164 0.1681248029)
5(0.1016862099 0.1332092453 0.1484052676 0.1573852339 0.1565491593)
5(0.1151610362 0.1474084745 0.1625126297 0.1696846223 0.1713909355)
5(0.1309901444 0.1659036175 0.1778094595 0.1764325283 0.1782983647)
5(0.14569779 0.1744608247 0.1757465593 0.1856568827 0.1733425008)
5(0.1648733008 0.1968058661 0.1969937377 0.1913801695 0.1524166039)
5(0.1859888189 0.2130405722 0.2165049859 0.2034040548 0.1537066837)
5(0.2087051287 0.231071712 0.2304019684 0.1814638939 0.06205657419)
5(0.224891272 0.2410491634 0.2278080355 0.1662844896 0.1006079038)
5(0.2448121284 0.2552543273 0.2250345424 0.1108775794 0.1209239834)
5(0.2651940358 0.2654048374 0.2208074627 0.09348777285 0.1700781016)
5(0.2906043809 0.2944976174 0.2575519751 0.1300736421 0.1785127262)
5(0.306361263 0.2987020654 0.2270684323 0.1396911675 0.1764836594)
5(0.3209766184 0.3057291026 0.1678662655 0.1519530844 0.1804982637)
5(0.328266738 0.2482705391 0.1064046031 0.1829506836 0.1853267366)
5(0.3204306519 0.2223530499 0.1435250714 0.1971191649 0.1917836931)
5(0.3419574443 0.1891277946 0.1631050267 0.2043694734 0.1986237072)
5(0.2728614037 0.1149936283 0.2025170859 0.2111300454 0.2062643038)
5(0.2139235686 0.1761662225 0.210402977 0.2210723947 0.2158542346)
5(0.1774170274 0.2148634606 0.2181427562 0.232019615 0.2270738589)
5(0.2300218796 0.2352786929 0.2277995065 0.2458695634 0.2412367337)
5(0.2564673477 0.2476011395 0.2415417218 0.2626625675 0.2596274111)
5(0.2747712035 0.2624562048 0.2596351759 0.2864299887 0.2807760473)
5(0.3082747909 0.281414527 0.28409403 0.313294139 0.3071037312)
5(0.3705449216 0.3113540499 0.3194117409 0.3513375489 0.3395033002)
5(0.4768949584 0.3854443683 0.3760793757 0.419835879 0.3662184921)
5(0.6071967105 0.5296966252 0.494041047 0.3293033112 0.440899906)
5(0.3371098662 0.4792257998 0.416765384 0.5198926707 0.6168093191)
)


60
(
5(0.0002299792413 0.0001813644059 0.0009890606432 0.001259035386 0.004477193483)
5(0.0001343398534 0.0001018622071 0.0004829705497 0.0008308751587 0.001895786038)
5(-0.0002891233769 0.0002323797818 0.0004112574968 0.0007419247922 0.0006526001732)
5(-0.0007028238098 0.0003946397721 0.0006974784039 0.0007644856503 0.003118440289)
5(-0.001135748356 0.0005372512539 0.0009924050951 0.00155736173 0.002997039879)
5(-0.001210312221 0.0007121210577 0.0008020346586 0.002164634174 0.00320640354)
5(0.0004823119036 0.0009740291853 0.001295513109 0.002522194668 0.006094784834)
5(0.0004673350944 0.00139574001 0.00236655554 0.003831190265 0.005109817114)
5(-0.0009170739211 0.002029421224 0.003023111217 0.005382316288 0.008240308917)
5(-0.001331891728 0.002799682206 0.004659599376 0.0068734224 0.01119084126)
5(-0.001047377975 0.003709521474 0.006126100143 0.009014292047 0.01445251484)
5(0.001047554159 0.00507339388 0.007411445868 0.01154664822 0.01721659314)
5(0.002881590289 0.006626410121 0.009334248183 0.01505141502 0.02189995987)
5(0.004139881471 0.00854436378 0.01199263704 0.01778890729 0.02609521325)
5(0.005059572222 0.01052772779 0.01464958465 0.022387605 0.03145199873)
5(0.006494876592 0.0129603025 0.01830556687 0.02711147704 0.03763814579)
5(0.008255995163 0.01597834892 0.02227428617 0.03253686352 0.04533774853)
5(0.01045157164 0.01949854084 0.02703310931 0.03917620677 0.05341436971)
5(0.01292304163 0.02364200132 0.03228455122 0.04578333078 0.06184116825)
5(0.01613369082 0.02892924849 0.03878336225 0.05473143491 0.07076984703)
5(0.0194111452 0.03362877532 0.04463283233 0.06268282517 0.08051476104)
5(0.02340681258 0.03935502404 0.05232974289 0.06844139409 0.08882111848)
5(0.02839445471 0.04618950275 0.06023883989 0.08033511452 0.1025638894)
5(0.03324225285 0.054455782 0.06928904218 0.09097140007 0.1142257312)
5(0.03941960367 0.06279490301 0.07976930546 0.1039591655 0.1283149982)
5(0.04607746939 0.07168301727 0.09225132429 0.1185105319 0.14182996)
5(0.05379856808 0.08124716147 0.102485502 0.1329653909 0.1563757154)
5(0.0619640084 0.09241965607 0.1164477048 0.1478460774 0.1712577069)
5(0.07258324931 0.1053945734 0.1292445159 0.1622934867 0.1875440858)
5(0.08359913164 0.1201047317 0.1436038805 0.1756335921 0.2024413251)
5(0.09659988296 0.1360696312 0.1615175731 0.1951469467 0.2198057281)
5(0.1104409576 0.1518564006 0.1767973108 0.2085496704 0.2271629852)
5(0.1255204026 0.1706190902 0.1964316784 0.2269268272 0.2530327357)
5(0.1431910954 0.1915500476 0.2188520144 0.2444433976 0.2590825465)
5(0.1631040742 0.2123034889 0.2386493708 0.2636964623 0.2759578433)
5(0.184801814 0.2388811024 0.2687710565 0.2846821459 0.2921958666)
5(0.2089739173 0.2580994553 0.2786912854 0.2982905097 0.3094941199)
5(0.2343908927 0.28800891 0.3021452377 0.3215156687 0.297152504)
5(0.2639950857 0.3146698922 0.3301202428 0.3372030499 0.3357804834)
5(0.2993782125 0.3451969813 0.3616506424 0.3589534932 0.2622234725)
5(0.3321273828 0.3698588294 0.3758394986 0.3700800203 0.2749549254)
5(0.3646247744 0.3989498551 0.3953434999 0.3458400235 0.2843266393)
5(0.4007847695 0.4207894496 0.4093775784 0.2881471568 0.2954035425)
5(0.439775161 0.4557324755 0.4616810733 0.3008426008 0.3101628899)
5(0.479696917 0.4803488835 0.4637837648 0.3125002136 0.3176264836)
5(0.5111353771 0.5108864315 0.4549856084 0.326396972 0.3264089628)
5(0.5444368136 0.5205613118 0.3643955486 0.3398534375 0.335046827)
5(0.5702258783 0.4975724332 0.347734451 0.3515773209 0.344260004)
5(0.604729094 0.5216840353 0.3585120039 0.3640430484 0.3543428043)
5(0.6280868916 0.4043762812 0.3723117855 0.3762915269 0.3643496564)
5(0.6285317058 0.4177176289 0.3866786221 0.391517541 0.3766350126)
5(0.5101875799 0.4362287538 0.4021855476 0.4078803013 0.3904250665)
5(0.4857545893 0.4557771278 0.4188928675 0.4266909712 0.4059993579)
5(0.5030396755 0.4756444206 0.4396476739 0.4481783374 0.4279389356)
5(0.5276956072 0.4991154367 0.4642286335 0.4761826146 0.4517818284)
5(0.5782177775 0.5290282708 0.496037467 0.5070341243 0.4811572953)
5(0.6687164862 0.5723975609 0.539160382 0.5476301366 0.5165528322)
5(0.7788342382 0.6585542013 0.6048697424 0.603598542 0.5520068971)
5(0.9010698348 0.8197161853 0.7724883552 0.5790649784 0.6239964258)
5(0.569902825 0.5749628107 0.4175798878 0.623405192 0.8180883946)
)


60
(
5(0.0004533408337 0.0005400892306 0.002163038271 0.003429161376 0.009564960426)
5(0.0003706512196 0.0006967084984 0.001610887575 0.003132534662 0.006407359408)
5(0.0004135249438 0.001034083207 0.001686568589 0.00362850662 0.006140863676)
5(0.0005746489212 0.001565499336 0.002336712553 0.004900365691 0.007787809734)
5(0.0009058365163 0.002346475167 0.003612886896 0.007015815821 0.01123748533)
5(0.001476642468 0.003442622579 0.005512886275 0.009868911246 0.01607911565)
5(0.002239567638 0.004925851197 0.007831578127 0.01352180236 0.02139638565)
5(0.003195696368 0.00680849548 0.01062037888 0.01784156917 0.02713657674)
5(0.004404615813 0.009154433263 0.01392727297 0.02286768679 0.03381744097)
5(0.006060723493 0.01210729294 0.01805786018 0.02898929756 0.04172553632)
5(0.008090566052 0.01574559862 0.0230727778 0.0362002879 0.051270181)
5(0.01074502871 0.02006951277 0.02914958208 0.04451627216 0.06218748883)
5(0.01394981303 0.02522174683 0.03620386672 0.05393856954 0.074091849)
5(0.017690153 0.03119445685 0.04422325546 0.06466559627 0.08723248042)
5(0.02218622889 0.03808082468 0.05330046645 0.07647176601 0.1014501275)
5(0.02757846152 0.04607875164 0.06367882323 0.08960571158 0.1169369449)
5(0.03379196055 0.05515489471 0.07535141603 0.1040590579 0.1335791289)
5(0.040874214 0.06544684045 0.08831428307 0.1197953964 0.1515367502)
5(0.04926337518 0.07683075073 0.1025269565 0.1368613953 0.1707523734)
5(0.05846562244 0.08959585555 0.1181225245 0.155402735 0.1913178469)
5(0.06905534261 0.1037621829 0.1350881848 0.1749049151 0.2123593109)
5(0.08129203151 0.1193278169 0.1534716143 0.1962272621 0.235353914)
5(0.09473015482 0.1363695561 0.1733507071 0.2185334191 0.2590945277)
5(0.109279789 0.1550946502 0.1951065349 0.2419404014 0.283898849)
5(0.1258237314 0.1753890671 0.2178966791 0.2672863731 0.3094321676)
5(0.1442389034 0.1973927695 0.2430928661 0.2941213547 0.3364757403)
5(0.1644305114 0.2210195046 0.2694891611 0.322323895 0.3645559804)
5(0.1864831995 0.2469775921 0.2975293953 0.3517115865 0.3930445282)
5(0.2108520525 0.2749088217 0.3275410542 0.3824090936 0.4234015609)
5(0.2377903347 0.3047242252 0.3591483954 0.4144412102 0.4534662906)
5(0.2668454014 0.3367092906 0.3926017646 0.4477073656 0.485538584)
5(0.2986594412 0.3709964111 0.4277284327 0.4823007308 0.5172216652)
5(0.3334498668 0.407686543 0.4646672371 0.517760995 0.5493321587)
5(0.3712032284 0.4466127195 0.5031510976 0.5541667141 0.5813147833)
5(0.4120004045 0.4881910773 0.5434932857 0.5912394082 0.6143943376)
5(0.4566735376 0.5319240149 0.5851163588 0.6290301801 0.6453463427)
5(0.5042511863 0.5780655775 0.628443147 0.6662224211 0.6768634438)
5(0.5570718347 0.6272073965 0.6726071165 0.7041519112 0.7078834915)
5(0.6131471501 0.6773547835 0.7177666307 0.7421240645 0.734702573)
5(0.6734127993 0.7315850663 0.7634336621 0.7785252034 0.7580133787)
5(0.7387962466 0.7855166983 0.8077333478 0.8132004203 0.7740420867)
5(0.807735285 0.8444965162 0.854350022 0.8441038774 0.7861685695)
5(0.8839925194 0.9030725747 0.900099481 0.8684683546 0.7941482166)
5(0.9637303412 0.9600899794 0.9447664263 0.8862041399 0.7998434083)
5(1.048411066 1.020869374 0.9846878212 0.8977839408 0.8032261266)
5(1.134115169 1.081712942 1.019425825 0.9057583319 0.8039166698)
5(1.22377467 1.142409505 1.043612637 0.9113248829 0.8022126562)
5(1.311140629 1.196995487 1.061512469 0.9149600334 0.800025002)
5(1.405792688 1.24498867 1.072574056 0.9173008093 0.7974143271)
5(1.484808944 1.278904749 1.07949789 0.9188318039 0.7964471824)
5(1.559970213 1.298816382 1.082506436 0.9195840516 0.797099965)
5(1.615966838 1.308459821 1.082732192 0.9197644729 0.7994241344)
5(1.646910534 1.310326725 1.081237728 0.9212648923 0.803432141)
5(1.645398548 1.302931015 1.077310606 0.9249411827 0.8131259295)
5(1.615173814 1.292837071 1.074092178 0.9321510331 0.8255666517)
5(1.568077112 1.277010149 1.070832349 0.9426648786 0.8434588911)
5(1.506675731 1.260165881 1.070345888 0.9565952707 0.8665740003)
5(1.446728959 1.24763256 1.076564566 0.9785626964 0.8978239329)
5(1.410173329 1.259360432 1.105154308 1.013583866 0.9406947338)
5(1.345665457 1.182214187 1.19072077 1.173016615 1.104510664)
)


60
(
5(0.0007274053968 0.0009846790028 0.003598073659 0.006166576502 0.01514336393)
5(0.0006535954292 0.001281875232 0.003019124234 0.005916897893 0.01189834586)
5(0.0008009570219 0.001894738954 0.003362917035 0.006866991823 0.01203558263)
5(0.001128504768 0.002819047899 0.00453488259 0.008960027497 0.01451155987)
5(0.001732250084 0.004112652287 0.006618706432 0.01218487268 0.01936006165)
5(0.002697358414 0.005871540781 0.009526162392 0.01642970629 0.02575100199)
5(0.00397907506 0.00815848417 0.01307711173 0.02168659713 0.03312017056)
5(0.005573200742 0.01102365836 0.0172906312 0.02783121098 0.04105895603)
5(0.007592746359 0.01454546502 0.02225730474 0.03500281168 0.05008030785)
5(0.01012803804 0.01883072307 0.0281590171 0.0432592875 0.06056650883)
5(0.01331853934 0.02393841228 0.03525401523 0.05284591628 0.07267427694)
5(0.01719706236 0.02996154785 0.04350101848 0.06367300796 0.08591713007)
5(0.02187470714 0.03702346603 0.05293446709 0.07586306263 0.1005474152)
5(0.02743167514 0.04509868878 0.0635461256 0.08927474508 0.1162521897)
5(0.03373295417 0.05428627145 0.07540623773 0.1039965623 0.1330836318)
5(0.04091736219 0.06460933695 0.08856788864 0.120064473 0.1511726836)
5(0.04960456489 0.07618487134 0.1030852703 0.1374762667 0.1705886281)
5(0.05921561053 0.08908763385 0.1188782381 0.1562952116 0.1907359468)
5(0.07012119222 0.1033565402 0.1363088438 0.1761354867 0.212343777)
5(0.08236037685 0.1190701421 0.1549368711 0.197626885 0.2351670214)
5(0.0958316971 0.1363098451 0.1751403683 0.220310809 0.2592304407)
5(0.1109982094 0.1550467548 0.1967146773 0.2441169945 0.2839648235)
5(0.127705108 0.1753981947 0.2200241434 0.2696045146 0.3098794049)
5(0.1460553037 0.1973750796 0.2447068854 0.2961436208 0.3375092166)
5(0.1662886913 0.220888073 0.2709761624 0.3240835552 0.3654586774)
5(0.1880465438 0.2463899117 0.2988642225 0.3536443469 0.3946467913)
5(0.2120334331 0.2730564428 0.32822018 0.3843521879 0.4253809551)
5(0.237829241 0.3022725516 0.3596799254 0.4170323649 0.4567279055)
5(0.2668737915 0.3330687145 0.3924061676 0.450269474 0.4896460191)
5(0.2968952325 0.3660200421 0.4272408378 0.4855940128 0.5227002193)
5(0.3305805797 0.4015848547 0.4639944066 0.5219504657 0.5578066311)
5(0.3667094956 0.439154884 0.5022097857 0.5596804556 0.5941438808)
5(0.4053232845 0.4786067194 0.5427934995 0.5990137524 0.6298161926)
5(0.4471109073 0.5218404946 0.5852511695 0.6396958951 0.666770698)
5(0.4925771116 0.5669153759 0.6292324718 0.6815777628 0.7048145134)
5(0.540607274 0.6150560635 0.6761068406 0.7244486818 0.7430476384)
5(0.5936674169 0.6661635284 0.7248493875 0.7685896855 0.7810588483)
5(0.6528242582 0.7206067022 0.7759103174 0.8139158934 0.8202833952)
5(0.7156172087 0.7786015143 0.8289828581 0.8605247431 0.8581814377)
5(0.7844296757 0.8400561542 0.8840439253 0.9080477826 0.8937413221)
5(0.8588287644 0.9062197346 0.9423133681 0.9561185687 0.9280552413)
5(0.9419328553 0.9779779547 1.002275098 1.003887569 0.957720674)
5(1.033621346 1.053526773 1.065680704 1.047989945 0.9832483386)
5(1.132047392 1.134150434 1.131198668 1.08792803 1.004672574)
5(1.239989087 1.218030162 1.197390139 1.123594131 1.022981534)
5(1.352724982 1.308711045 1.261615074 1.154405765 1.037194081)
5(1.47043481 1.404602566 1.320551857 1.181519545 1.048168225)
5(1.591740308 1.501587029 1.373279841 1.205368779 1.05738152)
5(1.716991161 1.592811432 1.419552814 1.22392306 1.065017477)
5(1.846952636 1.679724321 1.45841853 1.240053822 1.072161173)
5(1.975436266 1.75085166 1.489515949 1.252417296 1.077639173)
5(2.091286594 1.808468268 1.512802148 1.262652558 1.083759696)
5(2.185974067 1.8489503 1.52922039 1.271767753 1.092176665)
5(2.248430067 1.874862307 1.536821353 1.277278333 1.097007238)
5(2.277864456 1.882329129 1.538745588 1.283506906 1.107389133)
5(2.261992825 1.874637123 1.534801478 1.289902334 1.120405228)
5(2.216196051 1.855943371 1.52773007 1.297875249 1.137426079)
5(2.146431526 1.831177968 1.527244682 1.311343172 1.161234689)
5(2.046958174 1.825476063 1.56450723 1.351512337 1.206015067)
5(1.656564028 1.449275479 1.579347912 1.486996986 1.306419984)
)


60
(
5(0.001050179508 0.001539526402 0.00519789132 0.009249251703 0.02075248617)
5(0.001007107374 0.001957541968 0.004649105852 0.009007589811 0.01763125987)
5(0.001234706301 0.002831130405 0.005242029414 0.01026525867 0.01791203319)
5(0.001766359865 0.004107216223 0.006858225916 0.01295080411 0.02124641779)
5(0.002646737959 0.005836231806 0.009563083135 0.01699504005 0.02679340116)
5(0.003974700416 0.008141196193 0.01326108056 0.02223969572 0.03397987069)
5(0.005764596171 0.01110372493 0.01775904593 0.02856690289 0.04258545815)
5(0.007928654811 0.01474735 0.02302751391 0.03591299663 0.05175934562)
5(0.01062348034 0.01914826865 0.02919964494 0.04438462164 0.06207855945)
5(0.01389981241 0.02441018096 0.03636362489 0.0540561417 0.07376830573)
5(0.01801172243 0.03061116064 0.04478292247 0.06501396996 0.08690575314)
5(0.02281967819 0.03781770068 0.0544128561 0.07728387944 0.1014914136)
5(0.02860312908 0.04607928755 0.06530345581 0.09093663703 0.1171150139)
5(0.0353381832 0.05549388288 0.07740389054 0.1058593562 0.1337822204)
5(0.04312081304 0.06603880932 0.09077563764 0.1219932824 0.1518886565)
5(0.05183858766 0.07784785394 0.1054562015 0.1393040704 0.1707925276)
5(0.06165464591 0.0908727789 0.1214381701 0.1580703094 0.1910789347)
5(0.07306335417 0.1052229908 0.1387423432 0.1777610557 0.2121181347)
5(0.08526107446 0.1209894673 0.1574330248 0.1989690603 0.2345461395)
5(0.09949165164 0.1381328375 0.1774203282 0.2212383244 0.2577093809)
5(0.1149434525 0.1566477731 0.1990171827 0.245060004 0.2822110383)
5(0.1308785155 0.1768285011 0.2217826812 0.2698829005 0.3073578642)
5(0.1493117206 0.1983427789 0.2461807401 0.2961510849 0.3339358255)
5(0.1701795693 0.2214252046 0.2716456279 0.323567613 0.3614440369)
5(0.191613623 0.2460311996 0.2990391318 0.3523192934 0.3908684766)
5(0.2152149173 0.2724686142 0.3278670378 0.3823399537 0.4201225992)
5(0.2407882437 0.3006069249 0.3582760634 0.4137251847 0.4509290496)
5(0.2684894461 0.3306873487 0.3901115609 0.4466306786 0.4831863547)
5(0.2980456785 0.3625972139 0.4236632879 0.4806012975 0.5163604107)
5(0.329934037 0.3963603609 0.4591458317 0.5163462753 0.5508685596)
5(0.3649788301 0.4324164125 0.4964587277 0.5533619354 0.5862913989)
5(0.4019674779 0.4707690385 0.5348235729 0.5918842592 0.6236935511)
5(0.4416019443 0.5112496775 0.5765236638 0.6320692506 0.6614276128)
5(0.4844638046 0.5545031064 0.6196155113 0.6739745187 0.7007306939)
5(0.5304891447 0.6001661158 0.6653553564 0.7175733808 0.7411325028)
5(0.5814239302 0.6494286146 0.7135405291 0.7634823859 0.7837699707)
5(0.6356219445 0.702050306 0.7637978322 0.8109706935 0.8263160805)
5(0.6953191581 0.758593902 0.8181898404 0.8602583766 0.8697346917)
5(0.7602902155 0.8196365672 0.8755373361 0.9119396635 0.9165678897)
5(0.8322152959 0.8858009498 0.9366819403 0.9671720443 0.9627158269)
5(0.9104422447 0.9579872381 1.002162983 1.02563015 1.009208871)
5(0.998731752 1.036470988 1.071995054 1.086069548 1.055533609)
5(1.094503735 1.122064247 1.147835176 1.147648262 1.096652731)
5(1.198609966 1.214645689 1.229978626 1.207710756 1.135864294)
5(1.308687768 1.314956376 1.318833988 1.265238318 1.169824927)
5(1.42707755 1.42230855 1.408949736 1.320552746 1.201142069)
5(1.545869011 1.537405247 1.501512844 1.372569815 1.230454687)
5(1.680288261 1.661237949 1.592209855 1.422133425 1.254616185)
5(1.810301269 1.788617444 1.675079707 1.467475558 1.278090488)
5(1.957440981 1.91528908 1.75538697 1.508333903 1.297741017)
5(2.11090552 2.033919556 1.828469223 1.544551109 1.318346282)
5(2.260860024 2.14403861 1.890686015 1.575563916 1.333232181)
5(2.404799015 2.240648741 1.943253349 1.601781642 1.348839298)
5(2.529421963 2.318618771 1.981932731 1.622199405 1.362653283)
5(2.625671092 2.369885811 2.003992508 1.63600414 1.377694199)
5(2.679017197 2.396382138 2.012642758 1.646797602 1.395120213)
5(2.693952996 2.394067072 2.011997015 1.658189284 1.412139317)
5(2.663278206 2.373220614 2.005145618 1.671108121 1.43909556)
5(2.526961618 2.295843539 1.997383789 1.712499479 1.495172879)
5(2.00282522 1.918927771 1.823233922 1.71235402 1.568180174)
)


60
(
5(0.001419175444 0.002180653083 0.006918155662 0.01252198899 0.02621905844)
5(0.001411308996 0.002701286709 0.00639207376 0.01220418043 0.02316539612)
5(0.001740789328 0.003800185699 0.007162472152 0.01364596806 0.02351324317)
5(0.002434727326 0.005373621197 0.009136683985 0.01667260452 0.02684803)
5(0.00361360293 0.007465390751 0.0123158619 0.02117494837 0.03283192453)
5(0.005266912196 0.01022141841 0.01658984383 0.0270415661 0.04041742388)
5(0.007504217084 0.01369525597 0.02178315462 0.03415342147 0.04953091591)
5(0.01018885114 0.01794910777 0.02779287867 0.04233224608 0.05952939621)
5(0.01340766955 0.02303606259 0.03476481916 0.05154299562 0.07038795798)
5(0.01739059145 0.0289730559 0.04276509572 0.06196499597 0.0829059944)
5(0.02213404315 0.03593650886 0.05201028954 0.07371584982 0.09624226092)
5(0.02770483347 0.04388495799 0.06243757696 0.08678165489 0.1111992168)
5(0.03438055022 0.052966146 0.07427697463 0.1010304864 0.1271512821)
5(0.0419331011 0.06315690737 0.08717923612 0.1165524456 0.1443035495)
5(0.05069018709 0.07451710148 0.1013818173 0.1332338215 0.1624400039)
5(0.0604898065 0.08711875493 0.1166298313 0.1510373238 0.1816016568)
5(0.07129109097 0.1009426616 0.133394041 0.1701632432 0.2016995886)
5(0.08342401815 0.1160762017 0.1513534761 0.1900937979 0.2230999295)
5(0.09723652413 0.1324917122 0.1704428511 0.2117346201 0.2449527731)
5(0.1117754601 0.1502304155 0.1909566957 0.2340647746 0.2684700043)
5(0.128101952 0.1692308738 0.2126233657 0.2577593888 0.2921031203)
5(0.1460513771 0.1898288816 0.2357037993 0.2826424135 0.3171673079)
5(0.1648513009 0.2116247527 0.2600343665 0.3085244064 0.3435104507)
5(0.1861564189 0.2348900552 0.28582296 0.3357748307 0.3701395631)
5(0.208053671 0.2597222024 0.3130439089 0.3641342005 0.3987429207)
5(0.2323407352 0.2859109388 0.3414492646 0.3936831152 0.427746185)
5(0.258919082 0.3142079584 0.3714637509 0.4246359186 0.4587193794)
5(0.287024332 0.3441017746 0.4029335299 0.4568076988 0.4903273704)
5(0.3153655692 0.375605869 0.4362344107 0.4906036074 0.5227763969)
5(0.3481949125 0.4090429999 0.4710127461 0.5255005538 0.5567801571)
5(0.3821401633 0.4447537441 0.5075501357 0.5620741949 0.5929776565)
5(0.4195360488 0.4821981907 0.5458011636 0.5998702031 0.6280397397)
5(0.4584823584 0.5223037342 0.5862261103 0.6399393623 0.667982074)
5(0.5016184627 0.5646746482 0.6293201015 0.681642206 0.7075302388)
5(0.5481623304 0.6101024257 0.6743129462 0.7256131982 0.7497668756)
5(0.5979136515 0.6590542849 0.7225461232 0.7719206761 0.7931652178)
5(0.6518750594 0.7109788976 0.7732982914 0.8203519192 0.8389666079)
5(0.7114012778 0.7676600066 0.8283085692 0.8714856138 0.8861347136)
5(0.7764646592 0.8296415635 0.8873828776 0.9262026111 0.9359005391)
5(0.847177305 0.8968898776 0.951066594 0.9859243434 0.9910778583)
5(0.9259703142 0.971066862 1.020372761 1.049894181 1.046267539)
5(1.010357621 1.051655401 1.09624023 1.119514387 1.102030257)
5(1.099441187 1.139381923 1.179194519 1.192383209 1.159388195)
5(1.198878112 1.23441911 1.271438569 1.268492686 1.212660062)
5(1.301808608 1.336694821 1.371251965 1.344943865 1.2666971)
5(1.41152071 1.446547413 1.480679807 1.421771282 1.316201272)
5(1.52698043 1.566649779 1.594627395 1.499424923 1.366803524)
5(1.647430513 1.695344879 1.708626293 1.576156349 1.413082022)
5(1.77556418 1.831668518 1.823332962 1.653872084 1.458138298)
5(1.913530185 1.976240845 1.940600775 1.730124316 1.500026374)
5(2.06275476 2.120016566 2.055042562 1.802844087 1.540261688)
5(2.219902048 2.262874284 2.163465458 1.8681964 1.576912403)
5(2.369304908 2.403434927 2.265451253 1.927381738 1.607234583)
5(2.514312274 2.532136888 2.352138565 1.974879938 1.640307632)
5(2.647487156 2.644168486 2.415515066 2.013428842 1.666898882)
5(2.772701414 2.730011514 2.456250276 2.041701122 1.692122808)
5(2.862082506 2.781269199 2.475182368 2.062042883 1.720711007)
5(2.912543617 2.793053654 2.468958543 2.076637757 1.753529387)
5(2.852685317 2.670328186 2.367584576 2.073779456 1.80944078)
5(2.260696883 2.137714663 2.10320203 1.956342399 1.831360686)
)


60
(
5(0.001821868879 0.002901365935 0.008682084008 0.01578962601 0.03148904197)
5(0.001844736355 0.003501938993 0.00815861693 0.01534141729 0.02831560111)
5(0.002296211514 0.004778742853 0.009048265198 0.01682299509 0.02877931112)
5(0.00313746738 0.006618115228 0.01128355329 0.02006888389 0.03173626917)
5(0.0045365228 0.009012155523 0.01480127801 0.02484877939 0.03762522932)
5(0.006543281526 0.01209581521 0.01949883269 0.03104277298 0.0453691015)
5(0.009097861895 0.0159940985 0.02514485926 0.03852391027 0.05445993768)
5(0.01222660835 0.02068244937 0.03175392771 0.04720974426 0.06508764197)
5(0.0159140171 0.02623342031 0.03925210975 0.05687733875 0.07623291515)
5(0.02040376436 0.03271965563 0.04782952777 0.06774261796 0.0886004501)
5(0.02571638625 0.04014955886 0.05746589623 0.07974055891 0.1019878128)
5(0.03205207176 0.04866427939 0.06848680838 0.09307367336 0.1167716184)
5(0.03918197398 0.05824098316 0.08055062626 0.1075243332 0.1327814824)
5(0.04737198128 0.06892791266 0.09397999553 0.1232751793 0.1496324868)
5(0.05668076697 0.08073151962 0.1084332005 0.1399478044 0.167344477)
5(0.06698723562 0.09372934926 0.1241262978 0.1578334836 0.1861923139)
5(0.07901886546 0.1079547421 0.1409430991 0.1766545196 0.2057309196)
5(0.09137389557 0.1233662824 0.1589755543 0.1967085509 0.2269165146)
5(0.1060988229 0.1399415185 0.1781817379 0.2176449969 0.2483348558)
5(0.12098952 0.1578127339 0.1985270033 0.2398776751 0.2708549785)
5(0.1374092736 0.1768771348 0.2199975049 0.2630151538 0.2943312761)
5(0.1559566797 0.1974390342 0.2428942958 0.2873507915 0.3181751409)
5(0.1751850108 0.219147648 0.2668080786 0.3126924727 0.3441065174)
5(0.1964698147 0.2422126704 0.2920744164 0.3392557133 0.3701442653)
5(0.2187652045 0.2668038313 0.3186972366 0.3666769998 0.397122987)
5(0.2436374704 0.292766612 0.346369575 0.3954427516 0.42578493)
5(0.2691528236 0.3203748272 0.3756245933 0.4257267278 0.4552585676)
5(0.2959680237 0.3493460513 0.4063612964 0.4567954844 0.4864949517)
5(0.3263178158 0.3800871457 0.4384998516 0.4892454723 0.5182547993)
5(0.3583581736 0.4129450809 0.4723794441 0.5233450468 0.5517427978)
5(0.3908816067 0.447142884 0.507690582 0.5586758759 0.5862369163)
5(0.4272009856 0.4833826007 0.5450922984 0.5957726857 0.6215670104)
5(0.4664806338 0.522516514 0.5845652966 0.634701591 0.6596033449)
5(0.5086184017 0.5637454623 0.6263293495 0.6755292005 0.6991930208)
5(0.5543094739 0.6081438817 0.6700530629 0.7189927005 0.7400267459)
5(0.6020961493 0.6554668669 0.7173429865 0.7644059926 0.7836605222)
5(0.6553025799 0.7064903173 0.7684342954 0.8124860069 0.8297446431)
5(0.7126288864 0.7623693658 0.8226630119 0.8639931092 0.8796565391)
5(0.7751448717 0.8227980125 0.8815737404 0.9199838703 0.9310673879)
5(0.8436073389 0.8884631384 0.9458834252 0.9807007041 0.9889723105)
5(0.9161878843 0.960372688 1.015565849 1.047940572 1.053387326)
5(0.9938636188 1.038302698 1.093087791 1.121866062 1.116424926)
5(1.076574276 1.122817423 1.177943927 1.202633414 1.185206729)
5(1.160023049 1.212986984 1.272715921 1.288531737 1.250359135)
5(1.254612089 1.310014186 1.376014761 1.378276634 1.317593508)
5(1.3507583 1.412075848 1.488624046 1.469957824 1.38754316)
5(1.454934259 1.522926835 1.607338052 1.567095763 1.457758652)
5(1.562099321 1.642229569 1.729616556 1.66669443 1.528768806)
5(1.676285977 1.772964974 1.858004266 1.77067652 1.601829317)
5(1.802119632 1.911411295 1.989593078 1.877925376 1.674322736)
5(1.932895736 2.054522029 2.124520141 1.984635315 1.740800238)
5(2.063529195 2.201117841 2.264430379 2.091312498 1.811083718)
5(2.19664629 2.34936249 2.40201949 2.190472884 1.871296328)
5(2.331784145 2.496411946 2.535768227 2.280736408 1.927606527)
5(2.463349828 2.647260881 2.652781789 2.355708812 1.97990061)
5(2.596387205 2.783358685 2.747974593 2.412707787 2.020710511)
5(2.723587146 2.898780005 2.806865346 2.44936746 2.066148315)
5(2.836819938 2.978493678 2.824715571 2.463197921 2.107124087)
5(2.911884566 2.935446476 2.657053711 2.371728084 2.117043976)
5(2.602786296 2.331032572 1.851755134 1.888440332 1.932305723)
)


60
(
5(0.002251014017 0.003663661435 0.01040775773 0.01896795002 0.0363273403)
5(0.002333551391 0.004336892152 0.009898121714 0.01839411013 0.0332214252)
5(0.002881344424 0.005755061058 0.01085084848 0.01980644174 0.03329559523)