/*--------------------------------*- C++ -*----------------------------------*\
| =========                 |                                                 |
| \\      /  F ield         | OpenFOAM: The Open Source CFD Toolbox           |
|  \\    /   O peration     | Version:  2.3.1                                 |
|   \\  /    A nd           | Web:      www.OpenFOAM.org                      |
|    \\/     M anipulation  |                                                 |
\*---------------------------------------------------------------------------*/
FoamFile
{
    version     2.0;
    format      ascii;
    class       dictionary;
    location    "constant";
    object      PM15;
}
// * * * * * * * * * * * * * * * * * * * * * * * * * * * * * * * * * * * * * //

PM15_table
60
(

60
(
5(-3.215744536e-06 5.364081053e-05 3.941929259e-05 4.201015686e-05 0.0006116993971)
5(0.0006454874089 -2.691997096e-05 -4.953684743e-05 -5.916210654e-05 0.001287219059)
5(0.0007036753577 -0.0001294066406 -6.840716079e-05 -1.12507072e-05 -0.0001163166411)
5(0.0006696759985 -0.0002880069486 -0.0001093438323 -0.0002471512784 -0.0003125929944)
5(0.0004532272769 -0.0004447034919 -0.0001362703673 -0.0004470875001 -0.0003955236389)
5(-0.0002397492987 -0.0004988123767 -0.0002416427579 -0.0006087437263 -0.00103518966)
5(-0.0007287570403 -0.0002703802296 -0.000525818139 -0.0009556807159 -0.001732252935)
5(0.0006184294159 -0.0004446464874 -0.0007368768187 -0.001327284585 -0.001555904018)
5(0.0008952584629 -0.000941742063 -0.0009684512832 -0.001860661942 -0.003210793985)
5(0.0002040772404 -0.001276918233 -0.001428213663 -0.002447381498 -0.004179848143)
5(-0.0008669183126 -0.001751250819 -0.001881415599 -0.003354797285 -0.00531534695)
5(-0.001914601022 -0.001961399078 -0.002477026863 -0.004443836399 -0.006719115684)
5(-0.001578961218 -0.002121204638 -0.003351634531 -0.00565254402 -0.008705537534)
5(-0.001380881813 -0.002704094753 -0.00426539276 -0.007005049332 -0.01071022275)
5(-0.001710367912 -0.003310795312 -0.005346870807 -0.008841192894 -0.01309408517)
5(-0.002097728894 -0.004123010396 -0.006672984367 -0.01070084562 -0.01600898855)
5(-0.002872087075 -0.005366380304 -0.008356326758 -0.01318194368 -0.01925834104)
5(-0.003694109923 -0.006699564908 -0.01029994143 -0.01563396521 -0.02224343698)
5(-0.004615632175 -0.008217230505 -0.01224938362 -0.01838918913 -0.02575493935)
5(-0.005664276032 -0.009799017552 -0.01444088298 -0.02140572673 -0.02950818367)
5(-0.006856099995 -0.01154925446 -0.01699399822 -0.02438030561 -0.03370381976)
5(-0.008299454238 -0.01373535682 -0.01985311912 -0.0282196931 -0.03883357853)
5(-0.00984834966 -0.01611834553 -0.02303015889 -0.03273547747 -0.04379887305)
5(-0.01170087012 -0.0187429337 -0.02647691426 -0.03677761586 -0.04851602078)
5(-0.01379419557 -0.02151067833 -0.03033958072 -0.0413893209 -0.05366136181)
5(-0.01608477171 -0.02473288191 -0.03429787711 -0.04581807638 -0.0584812817)
5(-0.01870176016 -0.02834450331 -0.03871468662 -0.05076633518 -0.06387012603)
5(-0.02178222567 -0.03241663361 -0.04346639404 -0.05570093712 -0.06937374118)
5(-0.0250875 -0.03657581663 -0.04833383438 -0.06112110943 -0.07522000851)
5(-0.02878837182 -0.04112184693 -0.05378810444 -0.0672976932 -0.08140583844)
5(-0.0328832915 -0.04593299978 -0.05931037619 -0.07283521198 -0.0861199614)
5(-0.0373856129 -0.05126581035 -0.06524628226 -0.07869707822 -0.09279487217)
5(-0.04256420551 -0.05716162799 -0.07173103348 -0.08555152936 -0.0990289326)
5(-0.04818398994 -0.06320896479 -0.07773187614 -0.0909956793 -0.1029292851)
5(-0.0542162079 -0.06978277773 -0.08480255956 -0.09757685406 -0.1095614166)
5(-0.06100454445 -0.07641626001 -0.0901874308 -0.1023192601 -0.1141630425)
5(-0.06798324867 -0.08376652403 -0.09810521129 -0.1102446526 -0.116096445)
5(-0.07587556892 -0.09096958959 -0.1061444671 -0.1130429404 -0.1176597094)
5(-0.08373043372 -0.09852384126 -0.1126632579 -0.1208788726 -0.1101729587)
5(-0.09123447284 -0.1057987642 -0.1176377565 -0.1070493657 -0.03571320779)
5(-0.09949383764 -0.1134778755 -0.1243879163 -0.1015784021 -0.09832375915)
5(-0.1085019455 -0.1206716 -0.1262134428 -0.07517512942 -0.1120083052)
5(-0.1161942934 -0.1279547275 -0.1222181294 -0.1009435833 -0.1281608512)
5(-0.1238079575 -0.1336917967 -0.1187683817 -0.1218287411 -0.1235616072)
5(-0.1300247612 -0.13879327 -0.1163078764 -0.1207907609 -0.1189619934)
5(-0.1386950914 -0.1409793478 -0.0911335347 -0.1206374159 -0.1129977181)
5(-0.1435211737 -0.1270796287 -0.09773942811 -0.1262037628 -0.1070002421)
5(-0.1440717011 -0.1306087963 -0.131335242 -0.123040483 -0.1013299671)
5(-0.1459414243 -0.1031096293 -0.1332335865 -0.1171600473 -0.09542223049)
5(-0.06251623214 -0.1093555536 -0.1407425985 -0.1106633743 -0.08980793572)
5(-0.0552651894 -0.1375237085 -0.1346313859 -0.1048842293 -0.08464199554)
5(-0.1455449077 -0.1442452055 -0.1272374326 -0.09818247345 -0.07954480159)
5(-0.1627720304 -0.138667071 -0.1196358806 -0.09129523389 -0.07423027801)
5(-0.1531208584 -0.1286962935 -0.1119270595 -0.08420425324 -0.06953961614)
5(-0.1386515258 -0.1181142733 -0.1031650073 -0.07647490324 -0.06360810944)
5(-0.1180815121 -0.1048094761 -0.09244864701 -0.06688762962 -0.0570877793)
5(-0.08161093782 -0.08744940361 -0.07809534187 -0.0546090025 -0.05194857138)
5(-0.01782297784 -0.05427311424 -0.05600504253 -0.02622339759 -0.04002676854)
5(0.09917590508 0.02013260678 0.007893799537 -0.07945503418 -0.04978350239)
5(0.2254171691 0.2687046922 0.3092321001 0.3269938316 0.3238662796)
)


60
(
5(-1.127959236e-05 -4.347820984e-06 -4.228509002e-05 -1.475896185e-05 -0.0002121720688)
5(-1.074350113e-05 -9.837895323e-06 -5.43285442e-05 -8.781163407e-05 -0.000341218406)
5(0.0001318223927 -2.520068e-05 -3.559509295e-05 -9.131459088e-05 -0.0001978431502)
5(0.0004280680323 -3.803020887e-05 -3.579583288e-05 -7.579135402e-05 -0.0002155661907)
5(0.0005638900652 -4.793878771e-05 -4.810152018e-05 -0.0001279402405 -0.0002954924231)
5(0.0004245857847 -5.693726382e-05 -5.456476009e-07 -0.0001408411539 -0.0003190929624)
5(5.566372661e-06 -7.432409983e-05 -3.046849899e-05 -0.0001357414666 -0.0006121851547)
5(3.501544623e-05 -0.0001101610069 -0.0001196398685 -0.0002527771979 -0.0005631242878)
5(0.00050077776 -0.000171495351 -0.0001524326444 -0.0004053919586 -0.0009340932835)
5(0.0007285328449 -0.0002304974926 -0.0002735518923 -0.0005439488981 -0.001274219934)
5(0.0007714291367 -0.0003091885001 -0.0003927830607 -0.0007551424887 -0.001748600359)
5(0.0003531237231 -0.0004742949297 -0.000524343244 -0.001027764792 -0.002183744555)
5(3.390301003e-06 -0.000639658148 -0.0007205342206 -0.001404536961 -0.002853233617)
5(-6.470705295e-05 -0.000853408458 -0.001009570487 -0.001802924034 -0.003626571571)
5(-0.0001110808983 -0.001111650158 -0.001355480473 -0.002400124012 -0.004563624545)
5(-0.0001679648927 -0.001374791147 -0.001793277684 -0.003048486162 -0.005615622393)
5(-0.0003056215209 -0.001793978799 -0.002323907194 -0.003858269634 -0.006951105988)
5(-0.0005252978302 -0.00229829712 -0.003030331948 -0.004862645219 -0.008475775683)
5(-0.0007861941613 -0.002909405963 -0.003832093088 -0.005992671331 -0.0101378715)
5(-0.001112151313 -0.00363463044 -0.004789622718 -0.007340315223 -0.01204500325)
5(-0.001493227673 -0.004432980734 -0.005870162217 -0.008845880391 -0.01417952963)
5(-0.002014059407 -0.005377767235 -0.007156718611 -0.01063284872 -0.01670808384)
5(-0.00262473401 -0.006456507947 -0.008664510337 -0.01261699093 -0.01931990456)
5(-0.003298132721 -0.007686727341 -0.01036181625 -0.0148574818 -0.02225515062)
5(-0.004159981852 -0.00909249172 -0.01228376523 -0.01731560356 -0.02530852384)
5(-0.005145145977 -0.01065795058 -0.01436530737 -0.0198961381 -0.02869538246)
5(-0.006291080667 -0.01245194119 -0.01673367876 -0.0227729669 -0.03232772951)
5(-0.007628894806 -0.01447129156 -0.01927950518 -0.02594303621 -0.03629601609)
5(-0.009179193993 -0.01663270713 -0.02216524236 -0.02954907608 -0.04052107271)
5(-0.01090938026 -0.01895629358 -0.02534947229 -0.0336273763 -0.04510655954)
5(-0.01282493099 -0.02155489864 -0.02864922984 -0.03754128402 -0.04990649124)
5(-0.01504914373 -0.02448534875 -0.03257148102 -0.04259134316 -0.05628069057)
5(-0.01761326095 -0.02759661466 -0.03658366259 -0.0475077574 -0.06052881233)
5(-0.02037183606 -0.03092025989 -0.04070549535 -0.05312979184 -0.06832998375)
5(-0.02352709373 -0.03474414762 -0.04561870524 -0.05903482714 -0.07474207368)
5(-0.02700573881 -0.03836814954 -0.04970856192 -0.06513724155 -0.08148856654)
5(-0.0311077851 -0.0436158778 -0.05750764454 -0.07312029584 -0.08849410756)
5(-0.03552073426 -0.04802115238 -0.0639026711 -0.07978339051 -0.1016953563)
5(-0.04028222632 -0.05358330298 -0.07002620683 -0.08833549526 -0.1041708752)
5(-0.04514040281 -0.05916822733 -0.07556994988 -0.09578354099 -0.1308371387)
5(-0.05119025884 -0.06661233473 -0.0856792642 -0.1057332366 -0.1384796884)
5(-0.05870097861 -0.07402023418 -0.09507388745 -0.1245535442 -0.1448331495)
5(-0.06622072238 -0.0833577335 -0.1060731536 -0.149708161 -0.147946019)
5(-0.07403633844 -0.08987491153 -0.1047620663 -0.1565563611 -0.1478428246)
5(-0.08223726769 -0.0991507539 -0.1168424912 -0.1594955099 -0.1478074071)
5(-0.09317588605 -0.1064225443 -0.1303838882 -0.160905049 -0.1442303885)
5(-0.1034112303 -0.1193433396 -0.1681872545 -0.1589879677 -0.1379335475)
5(-0.1158562462 -0.1414129738 -0.1790775809 -0.1543424176 -0.1300549812)
5(-0.1220888009 -0.1429128038 -0.1791814222 -0.1472595963 -0.1209270049)
5(-0.1289059415 -0.1890421032 -0.1747718543 -0.1375892482 -0.1107920555)
5(-0.1393028082 -0.1863322276 -0.1668796198 -0.1268399131 -0.100625614)
5(-0.1888837213 -0.1790232547 -0.1560085619 -0.1145640061 -0.09026436937)
5(-0.1941800548 -0.167062472 -0.1427830235 -0.1012367481 -0.07944105256)
5(-0.1812103876 -0.150926271 -0.1278850335 -0.08726409575 -0.06878199786)
5(-0.158385362 -0.1310279016 -0.1105156986 -0.07194740385 -0.05736968331)
5(-0.1242879483 -0.1070962326 -0.09032012246 -0.05503981999 -0.04500191187)
5(-0.066546288 -0.07694677193 -0.06468507604 -0.03457518105 -0.0335824969)
5(0.0165214422 -0.02372739445 -0.02772689744 -0.008433802399 -0.01832878649)
5(0.1687073544 0.1004106026 0.09717415869 -0.02243251011 0.009716338917)
5(0.3459960646 0.3585073596 0.3677342864 0.4384222949 0.3507528582)
)


60
(
5(5.35966767e-08 1.55336117e-05 1.499035888e-05 0.0001387357938 -3.803199122e-05)
5(6.694772737e-06 1.032354721e-05 2.017072545e-05 7.15928946e-05 -0.0001181684288)
5(2.204966313e-05 2.076011324e-05 6.170089543e-05 0.0001169976504 4.920445626e-05)
5(4.295075433e-05 4.044968223e-05 0.0001212399842 0.0002211221007 0.0001997917419)
5(7.198474281e-05 7.569221426e-05 0.0002069761631 0.0003849227695 0.0003876854505)
5(0.0001141572376 0.0001315041064 0.0003318386951 0.0006145480235 0.0006488786605)
5(0.0001741418992 0.0002047196155 0.0004813976123 0.0008769873392 0.0009524945917)
5(0.0002491354784 0.0002920719062 0.000656785805 0.001169769534 0.001285108539)
5(0.0003480278091 0.0003987335513 0.000859864743 0.001496276481 0.001630084002)
5(0.0004719707578 0.0005342815841 0.001109216451 0.001897490722 0.002017723784)
5(0.0006262977605 0.0007086679516 0.001416934558 0.00239646225 0.002540938065)
5(0.0008115725112 0.0009168211186 0.001796885487 0.002984165748 0.003150443843)
5(0.001035754688 0.001172562522 0.00223400667 0.003631645438 0.003788928192)
5(0.00131100658 0.001474169159 0.002723118948 0.004364734536 0.004532623981)
5(0.001627663225 0.001818040669 0.003261527218 0.005172580512 0.005324159579)
5(0.001973587702 0.002211142517 0.003872683485 0.006039483254 0.006158585127)
5(0.002379631718 0.002667694674 0.00456152839 0.0070125555 0.007094040283)
5(0.002857240239 0.00319131994 0.005334701465 0.008068766493 0.008099158031)
5(0.003387802592 0.003758214857 0.006173938558 0.009212506012 0.009157961699)
5(0.003989155381 0.004417747377 0.007112461529 0.01044175362 0.01027686652)
5(0.004644697855 0.005158108476 0.008125036432 0.01171186008 0.01145804103)
5(0.00535981548 0.005989586861 0.009229347278 0.01317415475 0.0127346409)
5(0.006207448329 0.006921634244 0.01043053551 0.01462252434 0.01400819798)
5(0.007160117656 0.007984838605 0.01183201415 0.0161257778 0.01532079915)
5(0.008194311132 0.009174471484 0.01323016992 0.01780172738 0.01668714578)
5(0.009418646608 0.01051625351 0.0149375841 0.01966688448 0.01822843156)
5(0.01082745882 0.01198919228 0.01670788259 0.02160324358 0.01965344178)
5(0.01231545973 0.0137119517 0.01864770411 0.02366408199 0.02109247508)
5(0.01412515115 0.01573720025 0.02085959022 0.0258187992 0.02283806714)
5(0.01615395176 0.01789494743 0.02319537336 0.02808525706 0.02423127568)
5(0.01848911529 0.02039332404 0.02584156315 0.03042242401 0.02572202904)
5(0.02120069187 0.02323457702 0.02865930723 0.03284587487 0.02705559679)
5(0.0242679711 0.02633444048 0.03157118294 0.03526004507 0.02828016382)
5(0.02773059818 0.02977927309 0.03478289214 0.03764652492 0.02922201209)
5(0.03167503543 0.03362428508 0.03812581453 0.03982354063 0.0299102117)
5(0.03607432696 0.03763665236 0.04151576027 0.04193767339 0.02999105621)
5(0.04062739868 0.04192821316 0.04503977342 0.04344566732 0.02985121873)
5(0.04626472034 0.04665304043 0.04817803356 0.04472603013 0.02915089784)
5(0.05215631534 0.05104311261 0.0511636796 0.04566823203 0.02744382853)
5(0.05830177625 0.05583876591 0.05367150729 0.04556786568 0.02462643306)
5(0.0646502436 0.05968217552 0.05506671984 0.04456829536 0.01948623234)
5(0.07090493257 0.06417442927 0.05655103854 0.04247073329 0.01330014841)
5(0.07778773301 0.0675437267 0.0569182554 0.03869156761 0.006041514122)
5(0.08418432337 0.06931227081 0.05657357052 0.03340534872 -0.001152578823)
5(0.09057883509 0.0714081377 0.0547465231 0.02642702057 -0.007918362778)
5(0.09615319308 0.07243845477 0.05223155251 0.01923043442 -0.01365468898)
5(0.1019488785 0.07309670442 0.04758134989 0.01241523706 -0.01855981585)
5(0.1074260748 0.07272861824 0.04182149397 0.006683527838 -0.02207491999)
5(0.115925973 0.07237877509 0.03527598125 0.002483693781 -0.02380066236)
5(0.1222649643 0.0705432029 0.02972513471 0.0003511986682 -0.02326187706)
5(0.1317245327 0.06755864757 0.02550744539 -0.0001122841846 -0.02068298692)
5(0.1408466947 0.06498949543 0.02291802361 0.001134200008 -0.01613023985)
5(0.1492290442 0.0639665983 0.0228106329 0.004705259834 -0.01008360173)
5(0.153705167 0.06432828202 0.02494818576 0.01067535451 -0.0009188287268)
5(0.1559224048 0.06896248452 0.02991356574 0.01917633444 0.009127733287)
5(0.1579103341 0.07585610279 0.03771881552 0.03016962603 0.02162487443)
5(0.1615770544 0.08744352751 0.04954053077 0.04354731201 0.03590328633)
5(0.1766662734 0.1078509951 0.06799682831 0.06227226776 0.0535544672)
5(0.2478228344 0.1637967318 0.1188810657 0.1019780773 0.0836891591)
5(0.4171281697 0.4808976123 0.3565243843 0.2438029437 0.247359605)
)


60
(
5(1.739892599e-05 5.554223919e-05 0.0001179759203 0.0004071815683 0.0003330590102)
5(3.694495616e-05 6.929697161e-05 0.0001628344779 0.0003951381756 0.0003636842063)
5(7.535784287e-05 0.0001240855418 0.0002784726401 0.0005861144685 0.0007258593855)
5(0.0001304602508 0.0002062992076 0.0004514688372 0.0009010764501 0.00116436722)
5(0.0002108790359 0.0003292042248 0.000701649852 0.001358401877 0.001769596114)
5(0.0003245388348 0.0005049476741 0.001044792282 0.001963139113 0.00254620596)
5(0.0004791365958 0.0007305839563 0.001464838613 0.002661532791 0.003410103042)
5(0.0006759282229 0.001008717098 0.001951405603 0.003435549405 0.004360918629)
5(0.0009274707173 0.001349822564 0.002525843055 0.004341383044 0.00543103979)
5(0.001239255102 0.001770491569 0.003213412154 0.005410777236 0.006683950524)
5(0.001621511795 0.002280342313 0.004044678112 0.00667690218 0.008107235402)
5(0.002088948596 0.002891026208 0.005022769635 0.008101908437 0.009710892093)
5(0.002643742907 0.003615115013 0.006136557181 0.009704999621 0.01150050858)
5(0.003303866563 0.004448403876 0.007387649435 0.01146500957 0.01340098189)
5(0.00406773974 0.005401449277 0.008787903783 0.01339687924 0.01543560597)
5(0.004941931776 0.006479565838 0.01035135806 0.01547984877 0.01763527067)
5(0.005933616416 0.007697148146 0.01207830415 0.01777064857 0.01998966192)
5(0.007088985154 0.009070693839 0.01395324618 0.02025127626 0.02245362534)
5(0.008338820086 0.01058052392 0.01604991083 0.02284722846 0.02510301676)
5(0.009782166104 0.01229302174 0.01828526493 0.02563009841 0.02781014596)
5(0.01141623742 0.0141559038 0.02069868562 0.02858723775 0.03080383989)
5(0.01316128153 0.01619331416 0.02332674577 0.03172736703 0.03385130436)
5(0.0150367907 0.0184704106 0.02619791517 0.03506410063 0.03689903522)
5(0.01730704679 0.02100951314 0.02924540338 0.03855683412 0.04017832831)
5(0.0197415283 0.023696911 0.03251064811 0.04221907175 0.04347374775)
5(0.022424611 0.02673399574 0.03609009761 0.04614245294 0.04701949689)
5(0.02537202602 0.02990535739 0.03987204369 0.05023989027 0.05062562157)
5(0.02864866199 0.03357674498 0.04403953446 0.05465533637 0.05420379984)
5(0.03237340866 0.03749282226 0.04840634837 0.05904816092 0.05801687426)
5(0.03639590349 0.04179143395 0.05313201548 0.06377322719 0.0617563788)
5(0.04095168829 0.04659041785 0.05827594143 0.06867659919 0.06572397826)
5(0.04596005674 0.05171955892 0.06353515286 0.07357691758 0.06956935203)
5(0.05146353743 0.05712457912 0.06924455366 0.07876209364 0.07307302081)
5(0.05758557308 0.06337784614 0.07524903315 0.08390236968 0.07656575124)
5(0.06432016112 0.06982361554 0.08125171438 0.08907177083 0.07990026882)
5(0.07142486873 0.07676419027 0.08778161515 0.09390552397 0.08252754217)
5(0.07951024413 0.08409848924 0.09430167752 0.09861796589 0.08503433661)
5(0.08830169011 0.09173281976 0.1008551787 0.1031611687 0.08709484274)
5(0.09762886812 0.09968817227 0.1072484555 0.1069928396 0.08774478847)
5(0.1076812253 0.1075632417 0.1131184271 0.1100135673 0.08724665971)
5(0.1178872563 0.1156495633 0.1188483378 0.1119314892 0.08522115128)
5(0.1293436466 0.1239387573 0.1236686376 0.1128770354 0.08155639189)
5(0.1411964237 0.1316801111 0.1277904469 0.1119146267 0.07641074494)
5(0.153590941 0.1390524456 0.1307890314 0.1092856311 0.07036278418)
5(0.1666598765 0.1453573561 0.1326749255 0.105265204 0.06415803942)
5(0.1801883353 0.151997712 0.1333820658 0.09970624341 0.05737891964)
5(0.194038509 0.1585401388 0.1323207587 0.09375447892 0.05107029949)
5(0.209049613 0.1650350065 0.1298986793 0.08842890405 0.04558289714)
5(0.2244423083 0.170326592 0.1268094954 0.08300382411 0.04091030536)
5(0.2430604807 0.177292867 0.1239801474 0.0790157421 0.03855694316)
5(0.2641511588 0.1831229869 0.1219948372 0.0763654872 0.03756912123)
5(0.2861742498 0.1899047145 0.1212990467 0.07543446525 0.03881529397)
5(0.3097545511 0.1975453543 0.1226156509 0.07705563535 0.04288334202)
5(0.3339956281 0.2079613513 0.1255774255 0.08030436143 0.047732693)
5(0.3597241826 0.2197406281 0.1314205082 0.08650670217 0.05555894229)
5(0.3812168337 0.233986472 0.1401847744 0.09564420212 0.06548092304)
5(0.4050203661 0.2537978564 0.1533957733 0.1089208165 0.07868975638)
5(0.4384397818 0.2849851189 0.1800015119 0.1294166103 0.09614183082)
5(0.5608965476 0.4185774786 0.289960322 0.1974502275 0.1438745874)
5(0.7155710625 0.6869036752 0.5555869096 0.3603660273 0.4425817081)
)


60
(
5(4.333666922e-05 0.0001132011295 0.0002665562691 0.0007768254069 0.0008604375273)
5(8.073796843e-05 0.0001552097071 0.0003686718239 0.000850565932 0.001035875708)
5(0.000153557836 0.0002717419629 0.0005881148152 0.001229417803 0.001644837632)
5(0.0002539539251 0.0004339603675 0.0009058913572 0.001792584765 0.002414438636)
5(0.0003992682289 0.0006623279379 0.001346839324 0.002563872148 0.00344246508)
5(0.0006020329635 0.0009750466685 0.001924863893 0.003540794435 0.004702120048)
5(0.0008684511196 0.001371878884 0.002626030642 0.004667498553 0.006104029554)
5(0.001204287692 0.001852440635 0.003436569918 0.005923779156 0.007636903044)
5(0.001620993195 0.002436628439 0.004384534871 0.007369634653 0.009345127933)
5(0.002138663269 0.003140430603 0.005494572956 0.009033108732 0.01128724048)
5(0.002767792809 0.003982773821 0.00681288393 0.01096096044 0.01349021772)
5(0.003512698865 0.004976386739 0.00831820628 0.01310567196 0.01588602139)
5(0.004403415422 0.006121942407 0.01003022489 0.01549132899 0.0184990524)
5(0.00542151671 0.007426809862 0.01192886222 0.01806642278 0.0212423639)
5(0.006608304368 0.008904301189 0.01403992381 0.02087450821 0.02425552489)
5(0.007975245677 0.01057813431 0.01636436257 0.02386080997 0.02739331157)
5(0.009485580127 0.01242345389 0.01887921761 0.02714879823 0.03072984491)
5(0.01121388895 0.01447561895 0.02164478107 0.03054393261 0.03416876573)
5(0.01311623199 0.01675123724 0.02462482371 0.03421374886 0.03789413731)
5(0.01526205608 0.01923763644 0.02781364345 0.03808913981 0.04174094452)
5(0.01761905324 0.02193482984 0.03128907076 0.0422062442 0.04575744372)
5(0.02016680642 0.02492208369 0.0349544794 0.04649257183 0.04984363311)
5(0.0230441816 0.02814337372 0.03890300163 0.05101092952 0.05409349614)
5(0.02623549824 0.03161767082 0.04303467583 0.05579066969 0.05857496935)
5(0.0295940866 0.0353701698 0.04756813942 0.06073813811 0.06317576822)
5(0.03339659558 0.03947730298 0.05237521164 0.06594725166 0.06795913549)
5(0.03752304309 0.04390121228 0.05751563986 0.07141114831 0.07274194637)
5(0.04201176986 0.04873322283 0.062929411 0.07711276743 0.0777852799)
5(0.04682171477 0.05390135603 0.0686842215 0.08299456085 0.08285759075)
5(0.05222847122 0.05949709211 0.07487336159 0.08919948927 0.0881267174)
5(0.05816493231 0.06558510645 0.08141316066 0.09556207948 0.09346115109)
5(0.06456278075 0.07211839394 0.08806345611 0.1021937117 0.09894023172)
5(0.07156262053 0.07911885837 0.0954610811 0.1087662035 0.1038365058)
5(0.07924744262 0.0866434493 0.1030254246 0.1156451432 0.109267064)
5(0.08760070881 0.09460284654 0.1109238058 0.1224731847 0.1140290208)
5(0.09665398266 0.1031590492 0.119097016 0.1294479601 0.1189414777)
5(0.1063696728 0.1121813827 0.1272960754 0.1362552365 0.1233063593)
5(0.1169777005 0.1216575969 0.1359764669 0.1426921776 0.1270420653)
5(0.1283355917 0.1315519831 0.1446073076 0.1487003501 0.1303620239)
5(0.1406142968 0.1418519894 0.1530898958 0.1541945231 0.1321093745)
5(0.1537925897 0.1525237715 0.1613489532 0.1590010599 0.133001224)
5(0.1681307594 0.1634312901 0.169086614 0.1623544674 0.1318347867)
5(0.1833203211 0.1745106344 0.1761521778 0.1643202212 0.1287326087)
5(0.1996719898 0.1857346048 0.1826214573 0.1645461973 0.1244534455)
5(0.2166825266 0.1970374042 0.1884162119 0.1626261756 0.1186460372)
5(0.2349809848 0.2083701031 0.1925593996 0.1593804209 0.1122748117)
5(0.2535858631 0.2202179849 0.196161806 0.1549897691 0.1056644685)
5(0.2748258574 0.2333982287 0.198946015 0.1501811083 0.09829970409)
5(0.2945863153 0.2473039339 0.1998579855 0.1454742192 0.09236181986)
5(0.3184975782 0.2620472177 0.2024200475 0.1416971775 0.0870196953)
5(0.3436254075 0.2778763189 0.2067367891 0.1391653652 0.08415267107)
5(0.3709846905 0.2960108272 0.2125722246 0.1388528252 0.08272574123)
5(0.4021675109 0.3180747903 0.2218369081 0.1413968395 0.08405994949)
5(0.4382139024 0.3437771227 0.2340759117 0.1457942076 0.08694128255)
5(0.4774996571 0.371408658 0.2484073047 0.1531806764 0.09413456653)
5(0.5217605224 0.404521101 0.2668669808 0.1649507107 0.104604054)
5(0.5712666833 0.4418081857 0.2940931272 0.1846047378 0.1189163039)
5(0.6327373426 0.4944926549 0.338634943 0.2157266728 0.1425576581)
5(0.8160911508 0.6893624301 0.5508354225 0.3491564485 0.2286971481)
5(0.9369873283 0.8786255665 0.8295627976 0.6095515389 0.5346089093)
)


60
(
5(7.910444111e-05 0.0001879340419 0.0004569560437 0.001221027668 0.001484295494)
5(0.000137000687 0.0002656579059 0.0006296158743 0.001400110236 0.001817408128)
5(0.0002541849315 0.0004570639987 0.0009720329586 0.001986761573 0.002730395468)
5(0.0004120735807 0.0007089974534 0.001448266736 0.002826491307 0.003881055803)
5(0.0006291767451 0.001051390864 0.002088935142 0.003912676018 0.005269725469)
5(0.0009298469301 0.001509269194 0.002903939965 0.005237908345 0.00696105053)
5(0.001315026294 0.002078232412 0.00387603336 0.006760794925 0.00883069312)
5(0.001798006651 0.002762115757 0.004994887871 0.008446160688 0.01083924817)
5(0.002388968157 0.003582866315 0.006292846174 0.01036698079 0.0131087997)
5(0.003114637511 0.004555868062 0.007795587915 0.01256036668 0.01563316735)
5(0.003975566751 0.005709513506 0.009545545162 0.01503981253 0.01843426747)
5(0.005004534455 0.007042153771 0.01152295422 0.01779785554 0.02146443239)
5(0.006201656603 0.008572202448 0.01375132453 0.02079107221 0.02469850146)
5(0.007576482999 0.01029659215 0.01618016156 0.02402427564 0.02815712902)
5(0.00914436768 0.01222830515 0.0188749744 0.02750504024 0.0318086933)
5(0.01091818431 0.01437958855 0.02176991171 0.031207608 0.0356450533)
5(0.01291404953 0.01675744934 0.02496778659 0.03518301436 0.03969223287)
5(0.01511773605 0.01937000649 0.02838415302 0.03929921063 0.04392726142)
5(0.01759807296 0.02222630513 0.03204399085 0.04382326488 0.04836366154)
5(0.02030118259 0.02532800204 0.03598373688 0.04841839715 0.05287444931)
5(0.02322973329 0.02866257823 0.04013859202 0.0533200097 0.05767920727)
5(0.02652516152 0.03233216947 0.04460670284 0.05845964443 0.06259261412)
5(0.03004416754 0.03622843643 0.04931031901 0.06374349083 0.06765148897)
5(0.03388379317 0.04042134084 0.0543078135 0.06937471393 0.07295151328)
5(0.03805340601 0.04494590185 0.0596723244 0.0752307536 0.07840382643)
5(0.04259264004 0.04975208754 0.06528601786 0.08126182061 0.08383213774)
5(0.04756929359 0.05506061174 0.07122777379 0.08762288902 0.08971184101)
5(0.05289686002 0.06068023928 0.07754262741 0.09422463436 0.0956348077)
5(0.0586058436 0.066660432 0.08424800373 0.1011243574 0.1016170561)
5(0.06496402078 0.07311040959 0.09131317334 0.1082363011 0.1078168077)
5(0.07174146077 0.0800967567 0.09872128351 0.1156279029 0.1142650576)
5(0.07910450565 0.08747653826 0.1064713606 0.1231725211 0.1203764527)
5(0.08703319234 0.09539236183 0.1146609772 0.1310305307 0.1269100265)
5(0.09578737036 0.1038085775 0.1233684303 0.1389346756 0.1333225418)
5(0.1052501607 0.1128292142 0.1323494829 0.1471209403 0.1399109806)
5(0.1152535129 0.1223936853 0.1417105896 0.1553816134 0.1459102786)
5(0.1262742714 0.1324347847 0.1512334756 0.163532164 0.1518703813)
5(0.1380806843 0.1430893146 0.1612202269 0.1715103912 0.1574522231)
5(0.1509540541 0.1544697391 0.1713183546 0.1793998633 0.1625278768)
5(0.1648154121 0.1662845896 0.1815720934 0.1869938574 0.1664629229)
5(0.1798580659 0.178763485 0.1918125411 0.1933596865 0.1688223889)
5(0.195800329 0.1916366074 0.2019317685 0.1993185487 0.1702346938)
5(0.2124988886 0.2050459243 0.2116538142 0.2035601749 0.1697313703)
5(0.2308234564 0.2190295596 0.2211840333 0.2066927807 0.1677812588)
5(0.2500385204 0.2336782004 0.2299954118 0.2077090163 0.1639854969)
5(0.2704586264 0.248924601 0.2389727149 0.2070446445 0.1585666518)
5(0.2922967958 0.2656493702 0.2474474903 0.2053686009 0.1525201355)
5(0.3140763139 0.2831478979 0.2547416457 0.202292862 0.1448285512)
5(0.3365161681 0.3014371898 0.262409502 0.2000619013 0.1373780655)
5(0.3608263905 0.3223523761 0.2727397888 0.1986977789 0.1307979037)
5(0.3855849658 0.3441432688 0.2852884309 0.1994870938 0.1263697831)
5(0.4136009284 0.3692316683 0.3009843197 0.2019603405 0.1232009724)
5(0.441903629 0.400124297 0.3222868229 0.2096746143 0.1231007)
5(0.4748970778 0.435704706 0.3495025069 0.2199144474 0.127763464)
5(0.5127132257 0.479009694 0.3796951094 0.2366737174 0.1356674547)
5(0.5634729264 0.5301630868 0.4171154893 0.2601101271 0.1489219496)
5(0.6221389761 0.5904516382 0.4663035867 0.2937530174 0.1688619041)
5(0.6999172245 0.6672193589 0.535485692 0.3489986632 0.205370603)
5(0.9193503775 0.9112761192 0.8017965639 0.5507272023 0.3394451861)
5(1.058262712 1.076187234 1.025707502 0.8610036511 0.7283890193)
)


60
(
5(0.0001246109391 0.000280067717 0.000684085316 0.001725333705 0.002177768583)
5(0.0002090377711 0.0003990864814 0.0009355735591 0.002025598079 0.002687967311)
5(0.0003764068498 0.0006741121414 0.00141661569 0.002836684115 0.00386982942)
5(0.0005995220128 0.001025183623 0.00205907688 0.003919197967 0.005339112793)
5(0.0008963582187 0.001487871378 0.002895675304 0.005306476665 0.007132236008)
5(0.001300933457 0.002089735765 0.003940565014 0.006968109671 0.009186496046)
5(0.001814842412 0.002831488812 0.00516839143 0.00884904213 0.01145710527)
5(0.002443015606 0.003715095567 0.006583100548 0.01092714654 0.0139054051)
5(0.003216125583 0.004760092967 0.008194494078 0.01325258704 0.01663704311)
5(0.004137714626 0.005988173544 0.01005714932 0.01590963715 0.01965764467)
5(0.005232116374 0.007419377926 0.01217338443 0.01885045835 0.0229006364)
5(0.006523602144 0.009070416635 0.01457624374 0.02209592991 0.02643519369)
5(0.008015253485 0.01093518145 0.01721420491 0.02558253837 0.03018075858)
5(0.009702499095 0.01302176544 0.02011956364 0.02935011552 0.03414679273)
5(0.01161240316 0.01534486108 0.02326291363 0.03335061544 0.03833149823)
5(0.01375616262 0.0179105758 0.02668679752 0.03763123531 0.04271708657)
5(0.01616103676 0.02072959923 0.03035730668 0.04211708522 0.04727217577)
5(0.01882537599 0.02379655745 0.03429126105 0.04689490529 0.05202504036)
5(0.02173423281 0.02710162114 0.03850423124 0.05184800847 0.05695502216)
5(0.02490978112 0.0307167471 0.0429704524 0.05710489475 0.06210093845)
5(0.02840002227 0.03455703544 0.04770568611 0.06253487705 0.06734540435)
5(0.03215006341 0.03874346035 0.05275341236 0.06824307238 0.07282599262)
5(0.03628377701 0.04319151528 0.05802252896 0.07418699849 0.07850307942)
5(0.0406691081 0.04791810839 0.06362938527 0.08039525302 0.08429568018)
5(0.04538969138 0.05305069313 0.06956655828 0.08677461677 0.09028465319)
5(0.05067566252 0.05847521803 0.07574598203 0.09349191125 0.09655421689)
5(0.05617639722 0.06428885046 0.08236571496 0.1005786528 0.1029804131)
5(0.06193063027 0.07045148085 0.08930221504 0.1077624957 0.1094596917)
5(0.06859207483 0.07710310027 0.09659183171 0.1152656512 0.1161642358)
5(0.07556101259 0.08424561852 0.1043179197 0.1231046376 0.1231797345)