/*--------------------------------*- C++ -*----------------------------------*\
| =========                 |                                                 |
| \\      /  F ield         | OpenFOAM: The Open Source CFD Toolbox           |
|  \\    /   O peration     | Version:  2.3.1                                 |
|   \\  /    A nd           | Web:      www.OpenFOAM.org                      |
|    \\/     M anipulation  |                                                 |
\*---------------------------------------------------------------------------*/
FoamFile
{
    version     2.0;
    format      ascii;
    class       dictionary;
    location    "constant";
    object      PM1;
}
// * * * * * * * * * * * * * * * * * * * * * * * * * * * * * * * * * * * * * //

PM1_table
60
(

60
(
5(3.941636533e-05 5.28357923e-05 4.550348967e-05 3.64985317e-05 5.152076483e-05)
5(4.385411739e-05 2.695806324e-05 3.060977906e-05 3.027636558e-05 5.391612649e-05)
5(3.239978105e-05 2.225581557e-05 2.443790436e-05 2.822745591e-05 2.092309296e-05)
5(2.605188638e-05 2.483883873e-05 2.343859524e-05 2.341065556e-05 1.660455018e-05)
5(2.207467332e-05 2.616271377e-05 2.925284207e-05 2.186605707e-05 2.926494926e-05)
5(2.168212086e-05 2.602115273e-05 2.666283399e-05 2.478808165e-05 2.295244485e-05)
5(2.620834857e-05 2.531707287e-05 2.245791256e-05 2.387072891e-05 2.383161336e-05)
5(2.596341074e-05 2.473499626e-05 2.289842814e-05 2.263206989e-05 2.404861152e-05)
5(2.477131784e-05 2.452125773e-05 2.346839756e-05 2.333847806e-05 2.10525468e-05)
5(2.558343112e-05 2.473872155e-05 2.319738269e-05 2.349587157e-05 2.231262624e-05)
5(2.552988008e-05 2.495665103e-05 2.445373684e-05 2.330355346e-05 2.300739288e-05)
5(2.597318962e-05 2.488167956e-05 2.447608858e-05 2.313684672e-05 2.282485366e-05)
5(2.555595711e-05 2.480298281e-05 2.389866859e-05 2.344092354e-05 2.26451084e-05)
5(2.550845966e-05 2.500554547e-05 2.391031012e-05 2.348283306e-05 2.283137292e-05)
5(2.571800724e-05 2.500507981e-05 2.387398854e-05 2.314895391e-05 2.261158079e-05)
5(2.545933239e-05 2.488307655e-05 2.372637391e-05 2.330355346e-05 2.245791256e-05)
5(2.557854168e-05 2.495432273e-05 2.38311477e-05 2.322951332e-05 2.243835479e-05)
5(2.561579458e-05 2.490542829e-05 2.382602543e-05 2.327142283e-05 2.257013693e-05)
5(2.55049672e-05 2.472708002e-05 2.371752635e-05 2.317503095e-05 2.265442163e-05)
5(2.549658529e-05 2.485653386e-05 2.384139225e-05 2.319458872e-05 2.267630771e-05)
5(2.557272092e-05 2.503208816e-05 2.388656139e-05 2.378830686e-05 2.290215343e-05)
5(2.54472252e-05 2.48523429e-05 2.379156649e-05 2.347724512e-05 2.265628427e-05)
5(2.549472265e-05 2.469029278e-05 2.382695675e-05 2.310471609e-05 2.245418727e-05)
5(2.552941442e-05 2.471962944e-05 2.373103052e-05 2.322439104e-05 2.259016037e-05)
5(2.547050826e-05 2.485932782e-05 2.359924838e-05 2.307258546e-05 2.25706026e-05)
5(2.547889017e-05 2.492172644e-05 2.377480268e-05 2.312241122e-05 2.26534903e-05)
5(2.550217323e-05 2.489518374e-05 2.382416278e-05 2.324674278e-05 2.266513184e-05)
5(2.542790025e-05 2.477038652e-05 2.377061173e-05 2.337293699e-05 2.267304808e-05)
5(2.537295222e-05 2.467469312e-05 2.388330176e-05 2.355547622e-05 2.274988219e-05)
5(2.538622357e-05 2.466002479e-05 2.371938899e-05 2.3386674e-05 2.276943997e-05)
5(2.537667751e-05 2.477364615e-05 2.379645593e-05 2.346676774e-05 2.316804603e-05)
5(2.543139271e-05 2.479483373e-05 2.384767868e-05 2.35971529e-05 2.28327699e-05)
5(2.540298738e-05 2.469471656e-05 2.365303226e-05 2.348399721e-05 2.291752025e-05)
5(2.535723615e-05 2.476247028e-05 2.376898192e-05 2.3531029e-05 2.332311124e-05)
5(2.536794636e-05 2.469890751e-05 2.362835221e-05 2.34679319e-05 2.293335274e-05)
5(2.538203262e-05 2.488750033e-05 2.405466512e-05 2.371962182e-05 2.295989543e-05)
5(2.539122943e-05 2.491544001e-05 2.43417453e-05 2.368725836e-05 2.398341894e-05)
5(2.537446562e-05 2.479087561e-05 2.384744585e-05 2.36518681e-05 2.312660217e-05)
5(2.528901678e-05 2.490612678e-05 2.370285802e-05 2.369051799e-05 2.563279122e-05)
5(2.535106614e-05 2.505653538e-05 2.414756455e-05 2.384372056e-05 2.518668771e-05)
5(2.55391933e-05 2.517970279e-05 2.448866144e-05 2.50833109e-05 2.266187221e-05)
5(2.558622509e-05 2.528610639e-05 2.449098974e-05 2.685328946e-05 2.262415364e-05)
5(2.556724939e-05 2.520298585e-05 2.373242751e-05 2.523465082e-05 2.24316027e-05)
5(2.560741268e-05 2.520810813e-05 2.390774898e-05 2.33030878e-05 2.257362939e-05)
5(2.581824083e-05 2.53317412e-05 2.522557043e-05 2.324068919e-05 2.272613347e-05)
5(2.597726416e-05 2.556829713e-05 2.691987902e-05 2.32856255e-05 2.258759923e-05)
5(2.602499444e-05 2.651754767e-05 2.610241063e-05 2.327607945e-05 2.253847197e-05)
5(2.60687666e-05 2.599461004e-05 2.446747385e-05 2.32703751e-05 2.249889076e-05)
5(2.6106718e-05 2.695037983e-05 2.385489643e-05 2.320541535e-05 2.243486233e-05)
5(2.607144415e-05 2.620276064e-05 2.373440657e-05 2.313719597e-05 2.235081047e-05)
5(2.638751175e-05 2.483685967e-05 2.367317211e-05 2.303393558e-05 2.221239265e-05)
5(2.653326374e-05 2.478261013e-05 2.358586062e-05 2.286751987e-05 2.19985377e-05)
5(2.590788063e-05 2.469134051e-05 2.34679901e-05 2.266658703e-05 2.171547385e-05)
5(2.545374446e-05 2.455594949e-05 2.327928087e-05 2.239277819e-05 2.137059346e-05)
5(2.515563392e-05 2.437393414e-05 2.300855704e-05 2.205104101e-05 2.095766831e-05)
5(2.461561235e-05 2.409541048e-05 2.263806527e-05 2.163180034e-05 2.056715311e-05)
5(2.394826151e-05 2.339422645e-05 2.211084939e-05 2.11175211e-05 2.017247607e-05)
5(2.35713087e-05 2.226112701e-05 2.094240335e-05 2.252370177e-05 1.968001015e-05)
5(2.304978261e-05 2.035022771e-05 1.78712653e-05 1.69128034e-05 1.582525874e-05)
5(2.400079393e-05 2.179574221e-05 1.932014129e-05 1.450805576e-05 1.239945414e-05)
)


60
(
5(2.933386713e-05 2.481369302e-05 3.023119643e-05 2.666283399e-05 3.195554018e-05)
5(2.73459591e-05 2.500228584e-05 2.637272701e-05 2.494221553e-05 2.622045577e-05)
5(2.594105899e-05 2.491753548e-05 2.462277189e-05 2.382649109e-05 2.291612327e-05)
5(2.577342093e-05 2.484861761e-05 2.375477925e-05 2.341391519e-05 2.244766802e-05)
5(2.56174244e-05 2.48379074e-05 2.349307761e-05 2.322439104e-05 2.217292786e-05)
5(2.540787682e-05 2.487050369e-05 2.385675907e-05 2.327747643e-05 2.248864621e-05)
5(2.553965896e-05 2.492126077e-05 2.395687625e-05 2.337154001e-05 2.264929935e-05)
5(2.567889169e-05 2.497341484e-05 2.398528159e-05 2.344185486e-05 2.279318869e-05)
5(2.56379135e-05 2.496363595e-05 2.398667857e-05 2.34390609e-05 2.278620377e-05)
5(2.560857683e-05 2.49161385e-05 2.392753959e-05 2.339622006e-05 2.271588892e-05)
5(2.558086999e-05 2.491287887e-05 2.388469875e-05 2.338737249e-05 2.265535295e-05)
5(2.555618994e-05 2.491381019e-05 2.387957647e-05 2.339063212e-05 2.267491072e-05)
5(2.557830885e-05 2.490589395e-05 2.389820293e-05 2.337666228e-05 2.269726247e-05)
5(2.557341941e-05 2.490915358e-05 2.390518785e-05 2.337992191e-05 2.27028504e-05)
5(2.556387335e-05 2.489611506e-05 2.389354631e-05 2.338644117e-05 2.270564437e-05)
5(2.554897219e-05 2.487376332e-05 2.386514097e-05 2.336828038e-05 2.269865945e-05)
5(2.553663217e-05 2.485932782e-05 2.385303378e-05 2.335896716e-05 2.269307151e-05)
5(2.551381476e-05 2.485094592e-05 2.384511754e-05 2.33524479e-05 2.268888056e-05)
5(2.549611963e-05 2.483651042e-05 2.383580431e-05 2.333987504e-05 2.2680033e-05)
5(2.547493204e-05 2.480833791e-05 2.381950617e-05 2.333521843e-05 2.268422395e-05)
5(2.54556071e-05 2.478761598e-05 2.380646765e-05 2.332497388e-05 2.269307151e-05)
5(2.543372102e-05 2.477061935e-05 2.37938948e-05 2.331822179e-05 2.26823613e-05)
5(2.539670095e-05 2.474826761e-05 2.376944758e-05 2.332543954e-05 2.268515527e-05)
5(2.536689863e-05 2.472288907e-05 2.375617623e-05 2.331379801e-05 2.269074321e-05)
5(2.533500083e-05 2.469844185e-05 2.372846939e-05 2.328748815e-05 2.269167453e-05)
5(2.52968166e-05 2.467585728e-05 2.370285802e-05 2.327491529e-05 2.269912511e-05)
5(2.526375465e-05 2.464302815e-05 2.370006405e-05 2.32742168e-05 2.271356061e-05)
5(2.522510476e-05 2.460344695e-05 2.367887646e-05 2.327980474e-05 2.271635458e-05)
5(2.517737448e-05 2.458295785e-05 2.365931869e-05 2.32772436e-05 2.273009159e-05)
5(2.513139043e-05 2.455804497e-05 2.364488319e-05 2.327375114e-05 2.275034785e-05)
5(2.508587204e-05 2.452707849e-05 2.363789827e-05 2.327910624e-05 2.276990563e-05)
5(2.50391895e-05 2.449983731e-05 2.362485975e-05 2.328725532e-05 2.280063927e-05)
5(2.499180846e-05 2.44777184e-05 2.361577936e-05 2.330425195e-05 2.285139635e-05)
5(2.49465229e-05 2.445443533e-05 2.361787483e-05 2.332776785e-05 2.28905119e-05)
5(2.489821054e-05 2.443953417e-05 2.36236956e-05 2.336129546e-05 2.295058221e-05)
5(2.486247104e-05 2.444139682e-05 2.364930697e-05 2.341717482e-05 2.301088534e-05)
5(2.483546268e-05 2.444302663e-05 2.367678098e-05 2.347445115e-05 2.307235263e-05)
5(2.481427509e-05 2.447969746e-05 2.373219468e-05 2.35424377e-05 2.314965241e-05)
5(2.482777927e-05 2.452649642e-05 2.381787635e-05 2.364558168e-05 2.33608298e-05)
5(2.486712765e-05 2.460635733e-05 2.394593321e-05 2.379296347e-05 2.347608097e-05)
5(2.49480363e-05 2.471078187e-05 2.406118438e-05 2.39785295e-05 2.3733126e-05)
5(2.505269367e-05 2.485094592e-05 2.419250086e-05 2.418947406e-05 2.395664342e-05)
5(2.520147245e-05 2.507725731e-05 2.436339855e-05 2.437131479e-05 2.413056791e-05)
5(2.542731818e-05 2.529728226e-05 2.461974509e-05 2.467143349e-05 2.426863648e-05)
5(2.571113873e-05 2.551474608e-05 2.490635961e-05 2.492940985e-05 2.437829971e-05)
5(2.602685709e-05 2.57785432e-05 2.524466254e-05 2.511334606e-05 2.446444705e-05)
5(2.636481076e-05 2.606515773e-05 2.544233575e-05 2.523721196e-05 2.451078035e-05)
5(2.670066897e-05 2.637074795e-05 2.567400225e-05 2.532103099e-05 2.448842861e-05)
5(2.708320972e-05 2.67928699e-05 2.587516792e-05 2.536224201e-05 2.43880786e-05)
5(2.747692633e-05 2.698099706e-05 2.600695007e-05 2.53401231e-05 2.422579564e-05)
5(2.787506673e-05 2.729846165e-05 2.607353963e-05 2.523977309e-05 2.398970537e-05)
5(2.808228601e-05 2.747855615e-05 2.606248017e-05 2.507306635e-05 2.370891161e-05)
5(2.84119742e-05 2.756598406e-05 2.598878928e-05 2.485653386e-05 2.334953751e-05)
5(2.879765816e-05 2.756353933e-05 2.586375922e-05 2.453802153e-05 2.290064003e-05)
5(2.910254989e-05 2.751150168e-05 2.568314085e-05 2.413772745e-05 2.239248715e-05)
5(2.938555554e-05 2.746959217e-05 2.544437302e-05 2.367940033e-05 2.180004958e-05)
5(2.971844515e-05 2.738658804e-05 2.516192035e-05 2.314726589e-05 2.115443931e-05)
5(3.001929144e-05 2.739463525e-05 2.49070581e-05 2.255459549e-05 2.046138979e-05)
5(3.201051732e-05 2.880216925e-05 2.770338324e-05 2.34064355e-05 2.024423156e-05)
5(2.658081939e-05 2.3538596e-05 1.973641338e-05 1.808456727e-05 1.730548684e-05)
)


60
(
5(2.750148997e-05 2.350239083e-05 2.835970372e-05 2.571521327e-05 2.950616181e-05)
5(2.676760778e-05 2.394756302e-05 2.63126567e-05 2.477271482e-05 2.628751099e-05)
5(2.600462176e-05 2.440577373e-05 2.450821921e-05 2.369098365e-05 2.372357994e-05)
5(2.543209121e-05 2.453336492e-05 2.360809594e-05 2.311356366e-05 2.243276685e-05)
5(2.510403283e-05 2.453103662e-05 2.332869917e-05 2.293940634e-05 2.195406705e-05)
5(2.516875975e-05 2.461159602e-05 2.351216972e-05 2.305186354e-05 2.215104178e-05)
5(2.542464063e-05 2.471846528e-05 2.38022767e-05 2.323323861e-05 2.255523577e-05)
5(2.557085827e-05 2.476549707e-05 2.394104376e-05 2.333591692e-05 2.277037129e-05)
5(2.557481639e-05 2.47801654e-05 2.39405781e-05 2.333638258e-05 2.273358405e-05)
5(2.553896047e-05 2.477434464e-05 2.38660723e-05 2.329633571e-05 2.263579518e-05)
5(2.550752833e-05 2.477341332e-05 2.38113571e-05 2.327747643e-05 2.260925248e-05)
5(2.548377961e-05 2.476945519e-05 2.380739897e-05 2.328399569e-05 2.261856571e-05)
5(2.549099736e-05 2.47634016e-05 2.382369712e-05 2.329540439e-05 2.265186049e-05)
5(2.550077625e-05 2.477038652e-05 2.383184619e-05 2.330890857e-05 2.267630771e-05)
5(2.549844794e-05 2.476759255e-05 2.383161336e-05 2.331240103e-05 2.268515527e-05)
5(2.547563054e-05 2.476084046e-05 2.381857485e-05 2.330122516e-05 2.268026583e-05)
5(2.544838935e-05 2.474710345e-05 2.38053035e-05 2.329237759e-05 2.268492244e-05)
5(2.543570008e-05 2.472521737e-05 2.379203215e-05 2.329261042e-05 2.26914417e-05)
5(2.54123006e-05 2.47110147e-05 2.378155477e-05 2.328702249e-05 2.268888056e-05)
5(2.539693378e-05 2.469215542e-05 2.377596684e-05 2.328353003e-05 2.26884149e-05)
5(2.536317334e-05 2.466794103e-05 2.37650238e-05 2.329144627e-05 2.270122059e-05)
5(2.532906365e-05 2.464838326e-05 2.374849282e-05 2.328492701e-05 2.271379344e-05)
5(2.530356869e-05 2.462929115e-05 2.372497693e-05 2.328073606e-05 2.27142591e-05)
5(2.527004108e-05 2.460880205e-05 2.371170558e-05 2.328166738e-05 2.272101119e-05)
5(2.523011062e-05 2.458295785e-05 2.369727008e-05 2.326257527e-05 2.273544669e-05)
5(2.51843594e-05 2.455990762e-05 2.368516289e-05 2.325419337e-05 2.273893915e-05)
5(2.51531601e-05 2.452428453e-05 2.366257831e-05 2.324697562e-05 2.274638973e-05)
5(2.50992598e-05 2.449133899e-05 2.364453394e-05 2.324883826e-05 2.275640145e-05)
5(2.504547592e-05 2.44678231e-05 2.362474333e-05 2.32483726e-05 2.27689743e-05)
5(2.499844413e-05 2.442253754e-05 2.359971404e-05 2.32408056e-05 2.27834098e-05)
5(2.494244836e-05 2.438563388e-05 2.358946949e-05 2.324674278e-05 2.27978453e-05)
5(2.488738392e-05 2.43637478e-05 2.356921323e-05 2.323975787e-05 2.283230424e-05)
5(2.482917625e-05 2.431881148e-05 2.354453318e-05 2.324616071e-05 2.286978997e-05)
5(2.477562521e-05 2.427888103e-05 2.354115713e-05 2.32658349e-05 2.291519195e-05)
5(2.474058419e-05 2.425641287e-05 2.353359014e-05 2.328900155e-05 2.296245657e-05)
5(2.468330786e-05 2.424127888e-05 2.353079617e-05 2.332497388e-05 2.301041968e-05)
5(2.462777775e-05 2.423475962e-05 2.355559263e-05 2.33752653e-05 2.307095565e-05)
5(2.461241093e-05 2.423510887e-05 2.360588405e-05 2.34474428e-05 2.319330815e-05)
5(2.461811528e-05 2.427666914e-05 2.36814376e-05 2.355827019e-05 2.342124935e-05)
5(2.4670735e-05 2.435373608e-05 2.377294004e-05 2.371403389e-05 2.373452298e-05)
5(2.47376156e-05 2.44488474e-05 2.39108922e-05 2.393650357e-05 2.407119609e-05)
5(2.485921141e-05 2.46083946e-05 2.408784349e-05 2.425874118e-05 2.436176874e-05)
5(2.506672172e-05 2.484110883e-05 2.429657616e-05 2.466363367e-05 2.458947711e-05)
5(2.533494262e-05 2.513581421e-05 2.459611278e-05 2.507329918e-05 2.475967631e-05)
5(2.568628406e-05 2.544757444e-05 2.49951845e-05 2.543360461e-05 2.491055056e-05)
5(2.612255048e-05 2.577836858e-05 2.549157944e-05 2.570578363e-05 2.504826989e-05)
5(2.662441693e-05 2.621737076e-05 2.603023313e-05 2.589949872e-05 2.513756044e-05)
5(2.716638846e-05 2.679042518e-05 2.649589442e-05 2.605491318e-05 2.516061068e-05)
5(2.774520544e-05 2.741243225e-05 2.682732884e-05 2.615619451e-05 2.509821206e-05)
5(2.836436033e-05 2.801720984e-05 2.70397868e-05 2.617877908e-05 2.495083027e-05)
5(2.904480789e-05 2.851820318e-05 2.715515438e-05 2.612452954e-05 2.475397196e-05)
5(2.974970266e-05 2.880691318e-05 2.719007898e-05 2.599915024e-05 2.45111296e-05)
5(3.039080184e-05 2.891308395e-05 2.715410665e-05 2.580124419e-05 2.419634257e-05)
5(3.086478682e-05 2.894346835e-05 2.7044327e-05 2.552085789e-05 2.378923818e-05)
5(3.118044697e-05 2.89332238e-05 2.687051892e-05 2.517126268e-05 2.330477582e-05)
5(3.137145541e-05 2.88481242e-05 2.664595377e-05 2.475414658e-05 2.275925362e-05)
5(3.14656063e-05 2.876413055e-05 2.639295417e-05 2.426933497e-05 2.214949927e-05)
5(3.172081779e-05 2.880897955e-05 2.619426232e-05 2.379753278e-05 2.151392982e-05)
5(3.527650551e-05 3.128559911e-05 3.00105894e-05 2.567352203e-05 2.191808017e-05)
5(3.538231249e-05 3.038879368e-05 3.098321031e-05 2.480450348e-05 2.081905404e-05)
)


60
(
5(2.620927989e-05 2.260389738e-05 2.705678344e-05 2.493802458e-05 2.787215635e-05)
5(2.607190982e-05 2.329726703e-05 2.571055666e-05 2.430705354e-05 2.567423508e-05)
5(2.575828694e-05 2.411007881e-05 2.425117418e-05 2.346606925e-05 2.348283306e-05)
5(2.53666658e-05 2.440437675e-05 2.352008596e-05 2.300832421e-05 2.235220745e-05)
5(2.509704791e-05 2.445396967e-05 2.331892028e-05 2.287491225e-05 2.195453271e-05)
5(2.517551184e-05 2.454104833e-05 2.350728028e-05 2.301158383e-05 2.215104178e-05)
5(2.543418668e-05 2.466142178e-05 2.379040234e-05 2.321205102e-05 2.254638821e-05)
5(2.559670247e-05 2.473662607e-05 2.394197509e-05 2.331030555e-05 2.275663428e-05)
5(2.561160363e-05 2.475362271e-05 2.394709736e-05 2.33121682e-05 2.27461569e-05)
5(2.55627092e-05 2.475013025e-05 2.38858629e-05 2.32886523e-05 2.266746014e-05)
5(2.553546801e-05 2.475338988e-05 2.384185791e-05 2.328166738e-05 2.263323404e-05)
5(2.553337254e-05 2.475758083e-05 2.383603714e-05 2.328539267e-05 2.264161594e-05)
5(2.55361665e-05 2.476666123e-05 2.38516368e-05 2.329400741e-05 2.268911339e-05)
5(2.553290688e-05 2.476992086e-05 2.386164851e-05 2.331333235e-05 2.27112323e-05)
5(2.552755177e-05 2.476316877e-05 2.385419793e-05 2.332194708e-05 2.271379344e-05)
5(2.551823854e-05 2.474826761e-05 2.384395339e-05 2.331053838e-05 2.271868289e-05)
5(2.549018245e-05 2.473942004e-05 2.383859828e-05 2.33091414e-05 2.271565609e-05)
5(2.546724863e-05 2.472172491e-05 2.382602543e-05 2.330448478e-05 2.272543497e-05)
5(2.544652671e-05 2.470449544e-05 2.381647937e-05 2.329680137e-05 2.272776328e-05)
5(2.541579306e-05 2.469052561e-05 2.380064689e-05 2.328981645e-05 2.272706479e-05)
5(2.539216075e-05 2.466025762e-05 2.378388308e-05 2.329098061e-05 2.274126746e-05)
5(2.536014654e-05 2.463627607e-05 2.377317287e-05 2.329121344e-05 2.274522558e-05)
5(2.531544305e-05 2.462114207e-05 2.37589702e-05 2.327817492e-05 2.274475992e-05)
5(2.527411561e-05 2.459518146e-05 2.3733126e-05 2.327328548e-05 2.273637801e-05)
5(2.523919102e-05 2.455769572e-05 2.370146103e-05 2.326001413e-05 2.273870632e-05)
5(2.519367263e-05 2.45225383e-05 2.368213609e-05 2.323905937e-05 2.275314182e-05)
5(2.514582593e-05 2.449157182e-05 2.366106492e-05 2.32255552e-05 2.274382859e-05)
5(2.509192564e-05 2.445094287e-05 2.363603562e-05 2.322124783e-05 2.275081351e-05)
5(2.503255382e-05 2.441077959e-05 2.360437065e-05 2.320483327e-05 2.274569124e-05)
5(2.497714013e-05 2.436863724e-05 2.357491758e-05 2.318643965e-05 2.274266444e-05)
5(2.49161385e-05 2.43219547e-05 2.355163451e-05 2.317701001e-05 2.274964936e-05)
5(2.485106234e-05 2.427538857e-05 2.351007424e-05 2.3155706e-05 2.275442239e-05)
5(2.478994429e-05 2.422300167e-05 2.346886322e-05 2.314511221e-05 2.277374733e-05)
5(2.472579945e-05 2.417410724e-05 2.344406676e-05 2.314255107e-05 2.28054123e-05)
5(2.466223668e-05 2.412742469e-05 2.342101652e-05 2.313381992e-05 2.283137292e-05)
5(2.461031545e-05 2.409354784e-05 2.34056497e-05 2.314650919e-05 2.285058144e-05)
5(2.456369111e-05 2.406851854e-05 2.339691855e-05 2.317933831e-05 2.290541306e-05)
5(2.45385454e-05 2.40537338e-05 2.341077197e-05 2.323207445e-05 2.300506458e-05)
5(2.454221249e-05 2.407724969e-05 2.345244866e-05 2.332066651e-05 2.321915235e-05)
5(2.457288792e-05 2.411595779e-05 2.353778109e-05 2.345768735e-05 2.353463788e-05)
5(2.466340084e-05 2.420204692e-05 2.366676927e-05 2.367515117e-05 2.38729408e-05)
5(2.480740659e-05 2.436304931e-05 2.382835373e-05 2.40043737e-05 2.420449164e-05)
5(2.501346171e-05 2.459250391e-05 2.404395491e-05 2.44389521e-05 2.44822586e-05)
5(2.530479105e-05 2.488325117e-05 2.436013892e-05 2.490787301e-05 2.471869811e-05)
5(2.568843774e-05 2.523540752e-05 2.482777927e-05 2.534710802e-05 2.495874651e-05)
5(2.618337749e-05 2.566864714e-05 2.541067079e-05 2.572662197e-05 2.519506961e-05)
5(2.673169365e-05 2.617773134e-05 2.60618981e-05 2.603826579e-05 2.540566493e-05)
5(2.736476017e-05 2.681912156e-05 2.666399814e-05 2.631195821e-05 2.552894875e-05)
5(2.800539369e-05 2.76058563e-05 2.712500282e-05 2.654269338e-05 2.555828542e-05)
5(2.871040488e-05 2.841179958e-05 2.750242129e-05 2.670742106e-05 2.550357021e-05)
5(2.956663957e-05 2.906500595e-05 2.77768122e-05 2.675841097e-05 2.535386011e-05)
5(3.040255979e-05 2.948578913e-05 2.793245949e-05 2.671522088e-05 2.514210064e-05)
5(3.116234438e-05 2.973282244e-05 2.799899084e-05 2.659123857e-05 2.485816367e-05)
5(3.177660983e-05 2.988986671e-05 2.797704656e-05 2.635555575e-05 2.446770668e-05)
5(3.220757935e-05 2.994324313e-05 2.78618536e-05 2.603023313e-05 2.39693909e-05)
5(3.246992128e-05 2.993407543e-05 2.767061233e-05 2.560281428e-05 2.341519576e-05)
5(3.266203566e-05 2.992522786e-05 2.745847451e-05 2.514675725e-05 2.281292109e-05)
5(3.305749851e-05 3.00744141e-05 2.737887553e-05 2.47444259e-05 2.218119334e-05)
5(3.659937647e-05 3.43300635e-05 3.176965402e-05 2.696197771e-05 2.341557411e-05)
5(3.425122122e-05 3.121700138e-05 3.099617606e-05 2.607417991e-05 2.207166108e-05)
)


60
(
5(2.530915663e-05 2.199551091e-05 2.613058314e-05 2.438714728e-05 2.671545371e-05)
5(2.5536865e-05 2.286699601e-05 2.521416172e-05 2.395338379e-05 2.512056381e-05)
5(2.560764551e-05 2.395734191e-05 2.408167347e-05 2.332683653e-05 2.330588177e-05)
5(2.538133413e-05 2.439180389e-05 2.350681461e-05 2.298713662e-05 2.233777195e-05)
5(2.516084351e-05 2.446351573e-05 2.337619662e-05 2.290052362e-05 2.200575545e-05)
5(2.525537275e-05 2.45643314e-05 2.357456833e-05 2.304394729e-05 2.221134491e-05)
5(2.551870421e-05 2.470123582e-05 2.384861e-05 2.323836088e-05 2.259295434e-05)
5(2.567190677e-05 2.477108501e-05 2.40043737e-05 2.334592864e-05 2.279761247e-05)
5(2.569286153e-05 2.480787225e-05 2.401531674e-05 2.336222678e-05 2.28008721e-05)
5(2.565491013e-05 2.480763942e-05 2.395780757e-05 2.333824523e-05 2.273079008e-05)
5(2.563046291e-05 2.480810508e-05 2.391752787e-05 2.332823351e-05 2.269959077e-05)
5(2.562627196e-05 2.482463606e-05 2.391333692e-05 2.33403407e-05 2.27172859e-05)
5(2.564070746e-05 2.482510172e-05 2.393266186e-05 2.335943282e-05 2.27545388e-05)
5(2.563931048e-05 2.482626587e-05 2.394709736e-05 2.337177284e-05 2.278294414e-05)
5(2.561882138e-05 2.482300624e-05 2.394756302e-05 2.337736078e-05 2.279481851e-05)
5(2.560880966e-05 2.481578849e-05 2.393010072e-05 2.337340266e-05 2.279016189e-05)
5(2.558762208e-05 2.480344847e-05 2.390751615e-05 2.337712795e-05 2.278760076e-05)
5(2.556084655e-05 2.478202805e-05 2.390518785e-05 2.335966565e-05 2.279086038e-05)
5(2.553605009e-05 2.476503141e-05 2.389447764e-05 2.334429882e-05 2.279458568e-05)
5(2.550845966e-05 2.474640496e-05 2.387468703e-05 2.334685996e-05 2.279435284e-05)
5(2.547272015e-05 2.471869811e-05 2.385908738e-05 2.334010787e-05 2.279877663e-05)
5(2.543977462e-05 2.469448373e-05 2.384488471e-05 2.333847806e-05 2.279900946e-05)
5(2.540496644e-05 2.466887236e-05 2.382067032e-05 2.333265729e-05 2.279155888e-05)
5(2.535700332e-05 2.463441342e-05 2.379063517e-05 2.33114697e-05 2.278713509e-05)
5(2.531148493e-05 2.460647374e-05 2.376316115e-05 2.328609116e-05 2.278271131e-05)
5(2.526119351e-05 2.456386574e-05 2.373603638e-05 2.326269168e-05 2.277246676e-05)
5(2.52071768e-05 2.451729961e-05 2.370530274e-05 2.324464731e-05 2.275942825e-05)
5(2.515234519e-05 2.448144369e-05 2.36708438e-05 2.322264481e-05 2.275337465e-05)
5(2.509646583e-05 2.443394624e-05 2.363300882e-05 2.319866326e-05 2.274429426e-05)
5(2.503360156e-05 2.437375952e-05 2.359296195e-05 2.317503095e-05 2.272916026e-05)
5(2.496154048e-05 2.432055771e-05 2.355268225e-05 2.314418089e-05 2.272252459e-05)
5(2.489611506e-05 2.426560968e-05 2.350541763e-05 2.310937271e-05 2.270471305e-05)
5(2.483301796e-05 2.420996316e-05 2.344709355e-05 2.308015246e-05 2.269691322e-05)
5(2.477096859e-05 2.415280323e-05 2.340506762e-05 2.305780072e-05 2.270983532e-05)
5(2.470985055e-05 2.408633009e-05 2.336478792e-05 2.303544898e-05 2.271402627e-05)
5(2.465088619e-05 2.404488623e-05 2.332148142e-05 2.30279984e-05 2.271588892e-05)
5(2.46114214e-05 2.401415259e-05 2.329947893e-05 2.302764915e-05 2.273661084e-05)
5(2.459279494e-05 2.397457138e-05 2.32916791e-05 2.304837108e-05 2.281554043e-05)
5(2.460065298e-05 2.397748176e-05 2.331973519e-05 2.311263233e-05 2.299773041e-05)
5(2.465257421e-05 2.4021836e-05 2.33798055e-05 2.321996726e-05 2.329680137e-05)
5(2.47527496e-05 2.410943853e-05 2.347200643e-05 2.34185718e-05 2.364173997e-05)
5(2.49191653e-05 2.426444553e-05 2.362439409e-05 2.373603638e-05 2.395734191e-05)
5(2.515822416e-05 2.447783481e-05 2.383638639e-05 2.416677307e-05 2.424186096e-05)
5(2.547481563e-05 2.477894304e-05 2.415454946e-05 2.466095611e-05 2.452614717e-05)
5(2.585205948e-05 2.514850348e-05 2.462754492e-05 2.513907384e-05 2.483208664e-05)
5(2.63240654e-05 2.557988046e-05 2.526608296e-05 2.559076529e-05 2.515455708e-05)
5(2.687238157e-05 2.613890683e-05 2.600485459e-05 2.601416782e-05 2.54510669e-05)
5(2.748629777e-05 2.686266089e-05 2.672104165e-05 2.6387861e-05 2.568552736e-05)
5(2.817524364e-05 2.77440995e-05 2.732255962e-05 2.675002906e-05 2.583954483e-05)
5(2.893363126e-05 2.865615534e-05 2.782663796e-05 2.705934457e-05 2.588739153e-05)
5(2.980005229e-05 2.942985157e-05 2.825097181e-05 2.724863589e-05 2.583710011e-05)
5(3.075331915e-05 3.000342986e-05 2.854771446e-05 2.733559813e-05 2.569821663e-05)
5(3.166147508e-05 3.036943963e-05 2.871168545e-05 2.727424726e-05 2.544641029e-05)
5(3.238598583e-05 3.060052404e-05 2.877018414e-05 2.709269756e-05 2.508901525e-05)
5(3.28993774e-05 3.073300468e-05 2.873357153e-05 2.682581544e-05 2.462801058e-05)
5(3.324705176e-05 3.079383168e-05 2.859794768e-05 2.644833876e-05 2.40796362e-05)
5(3.350505722e-05 3.083774936e-05 2.844558912e-05 2.600083826e-05 2.346979454e-05)
5(3.399638808e-05 3.110786201e-05 2.844296978e-05 2.561538713e-05 2.285730443e-05)
5(3.739111708e-05 3.444490721e-05 3.326003207e-05 2.865807619e-05 2.507965837e-05)
5(3.445748007e-05 3.17855156e-05 3.098222078e-05 2.697047603e-05 2.38140783e-05)
)


60
(
5(2.467352897e-05 2.161646262e-05 2.546189353e-05 2.399017103e-05 2.586469054e-05)
5(2.515106462e-05 2.261530608e-05 2.483744174e-05 2.370518632e-05 2.467259765e-05)
5(2.553476952e-05 2.390681766e-05 2.397969365e-05 2.326001413e-05 2.318667248e-05)
5(2.546282485e-05 2.444465645e-05 2.355081961e-05 2.302019857e-05 2.237316221e-05)
5(2.529122867e-05 2.455408685e-05 2.34823674e-05 2.297526225e-05 2.209446393e-05)
5(2.538738772e-05 2.466281876e-05 2.369144931e-05 2.312380821e-05 2.23016832e-05)
5(2.564908937e-05 2.479879186e-05 2.39519868e-05 2.331659198e-05 2.267328091e-05)
5(2.580415457e-05 2.487702295e-05 2.410565503e-05 2.342485823e-05 2.287467942e-05)
5(2.582697198e-05 2.491171472e-05 2.412335016e-05 2.344627865e-05 2.288259566e-05)
5(2.579926513e-05 2.492335625e-05 2.40735244e-05 2.342811786e-05 2.282159403e-05)
5(2.577551641e-05 2.492964268e-05 2.40385998e-05 2.34215986e-05 2.279505134e-05)
5(2.577458508e-05 2.493872307e-05 2.403510734e-05 2.343417145e-05 2.28129793e-05)
5(2.578110434e-05 2.494989894e-05 2.405443229e-05 2.345186658e-05 2.28502322e-05)
5(2.578669228e-05 2.495059744e-05 2.406537533e-05 2.346513793e-05 2.287561074e-05)
5(2.57792417e-05 2.494640648e-05 2.406327985e-05 2.346863039e-05 2.28844583e-05)
5(2.575688995e-05 2.493476495e-05 2.404931001e-05 2.346839756e-05 2.288329415e-05)
5(2.573616803e-05 2.492172644e-05 2.403696999e-05 2.34588515e-05 2.288166434e-05)
5(2.570869401e-05 2.490682527e-05 2.4021836e-05 2.344883978e-05 2.287863754e-05)
5(2.568168566e-05 2.488447353e-05 2.400716767e-05 2.344022505e-05 2.288026735e-05)
5(2.565362956e-05 2.486258745e-05 2.399249934e-05 2.342904918e-05 2.28760764e-05)
5(2.561660949e-05 2.483511344e-05 2.396921627e-05 2.342346124e-05 2.287258394e-05)
5(2.558331471e-05 2.480740659e-05 2.394896001e-05 2.341647632e-05 2.286746167e-05)
5(2.554443199e-05 2.477818634e-05 2.39238143e-05 2.339971252e-05 2.285814844e-05)
5(2.549472265e-05 2.474617213e-05 2.38919165e-05 2.33782921e-05 2.284860238e-05)
5(2.544804011e-05 2.470484469e-05 2.385908738e-05 2.33494211e-05 2.283416688e-05)
5(2.540182322e-05 2.466188744e-05 2.382684033e-05 2.331566066e-05 2.281763591e-05)
5(2.534443047e-05 2.461893018e-05 2.378714271e-05 2.328923438e-05 2.280133776e-05)
5(2.527970355e-05 2.457026858e-05 2.374476753e-05 2.326373942e-05 2.27780547e-05)
5(2.52207974e-05 2.451520413e-05 2.37027416e-05 2.322648652e-05 2.274930011e-05)
5(2.516189124e-05 2.446002327e-05 2.365664113e-05 2.319039777e-05 2.272741403e-05)
5(2.509693149e-05 2.44085677e-05 2.359843347e-05 2.314895391e-05 2.270203549e-05)
5(2.50316225e-05 2.433743794e-05 2.354267053e-05 2.310238779e-05 2.26739794e-05)
5(2.496386878e-05 2.427119762e-05 2.348725684e-05 2.305628732e-05 2.265709918e-05)
5(2.490449697e-05 2.421764657e-05 2.343067899e-05 2.301519271e-05 2.264149953e-05)
5(2.485071309e-05 2.415524796e-05 2.338003833e-05 2.298119944e-05 2.262357157e-05)
5(2.48105498e-05 2.410670277e-05 2.331973519e-05 2.295034938e-05 2.260459587e-05)
5(2.478383249e-05 2.406118438e-05 2.328073606e-05 2.293090802e-05 2.259470057e-05)
5(2.477964154e-05 2.403079998e-05 2.326397225e-05 2.292986028e-05 2.264836803e-05)
5(2.481136471e-05 2.404703991e-05 2.326222602e-05 2.29642028e-05 2.280599438e-05)
5(2.488266909e-05 2.408178989e-05 2.331356518e-05 2.304487862e-05 2.307922114e-05)
5(2.501305426e-05 2.416368807e-05 2.339540515e-05 2.321542706e-05 2.339039929e-05)
5(2.520316048e-05 2.432585461e-05 2.352776937e-05 2.351391595e-05 2.368574496e-05)
5(2.544553718e-05 2.453872003e-05 2.372288145e-05 2.392067108e-05 2.397364005e-05)
5(2.574193059e-05 2.482766286e-05 2.402806422e-05 2.439809032e-05 2.426141873e-05)
5(2.611184027e-05 2.519413829e-05 2.451409819e-05 2.489436883e-05 2.458819654e-05)
5(2.657494042e-05 2.56227213e-05 2.517073881e-05 2.537062392e-05 2.495967783e-05)
5(2.707098611e-05 2.617790597e-05 2.595398109e-05 2.585246693e-05 2.535199746e-05)
5(2.761674114e-05 2.690992551e-05 2.668879461e-05 2.634560224e-05 2.568820491e-05)
5(2.827111166e-05 2.781412331e-05 2.736481838e-05 2.681103069e-05 2.594466787e-05)
5(2.899346873e-05 2.873939229e-05 2.800981747e-05 2.724782098e-05 2.61348905e-05)
5(2.985110041e-05 2.958450932e-05 2.854317427e-05 2.759159543e-05 2.618355211e-05)
5(3.084453056e-05 3.023562022e-05 2.896500519e-05 2.778717317e-05 2.611719538e-05)
5(3.184692468e-05 3.07004666e-05 2.92561017e-05 2.786255209e-05 2.59790686e-05)