/*--------------------------------*- C++ -*----------------------------------*\
| =========                 |                                                 |
| \\      /  F ield         | OpenFOAM: The Open Source CFD Toolbox           |
|  \\    /   O peration     | Version:  2.3.1                                 |
|   \\  /    A nd           | Web:      www.OpenFOAM.org                      |
|    \\/     M anipulation  |                                                 |
\*---------------------------------------------------------------------------*/
FoamFile
{
    version     2.0;
    format      ascii;
    class       dictionary;
    location    "constant";
    object      PM22;
}
// * * * * * * * * * * * * * * * * * * * * * * * * * * * * * * * * * * * * * //

PM22_table
60
(

60
(
5(2.660642262 -0.2157151207 3.338454064 2.017051945 3.906261033)
5(-1.708409438 -1.881638692 0.2314594805 -0.08374457592 -4.11989688)
5(-2.950027424 -0.3397706637 -0.4527378103 -1.632420446 -2.577377442)
5(-2.48879841 -0.03212079219 0.09125469045 -1.34631648 1.145770227)
5(-1.626465384 -0.4290431813 -0.8168483616 -0.6167369694 -1.213175337)
5(-0.8551332609 -0.9401917391 -2.131028881 -0.9364679299 -1.490431314)
5(-0.9206303297 -1.031824824 -1.359023062 -1.171372218 -0.5327443629)
5(-1.372783816 -0.8373338533 -0.8849035045 -0.9628371855 -1.952314246)
5(-0.9309930945 -0.7441679432 -1.026177724 -0.8632025469 -0.9013162473)
5(-1.003586842 -0.6236394988 -0.697251998 -0.9453643318 -0.8795667887)
5(-0.9155448782 -0.6344355424 -0.8279358378 -0.8799997967 -0.9457134925)
5(-0.9495291825 -0.6280629978 -1.005543797 -0.8361550661 -1.064117448)
5(-1.002224825 -0.5798733513 -0.9616568638 -0.7507035615 -0.9510292501)
5(-0.8779259757 -0.5586781434 -0.9142224616 -0.8525062616 -0.9945645257)
5(-0.9669511106 -0.5874520335 -0.9206691991 -0.7296186216 -0.9591080779)
5(-0.8954757972 -0.5412398923 -0.8449171986 -0.7120875942 -0.8962195134)
5(-0.8864880131 -0.5423301981 -0.8317795703 -0.6798628882 -0.8168600954)
5(-0.881257786 -0.5319411967 -0.8057721247 -0.6300553987 -0.7964511474)
5(-0.8738945335 -0.5013846475 -0.7752246284 -0.6192214022 -0.7750181517)
5(-0.8311827008 -0.4463726723 -0.7289434836 -0.5438362575 -0.7828277098)
5(-0.8471350363 -0.495767423 -0.7578044027 -0.5880719825 -0.777035165)
5(-0.8318935385 -0.4840046566 -0.7199434697 -0.6784689255 -0.7952298901)
5(-0.8049755003 -0.4549835604 -0.7095449017 -0.546714265 -0.6815760526)
5(-0.8183978664 -0.4082574476 -0.6849668403 -0.5414998454 -0.6893680337)
5(-0.8035437179 -0.411697836 -0.6362907967 -0.4812345667 -0.6322107425)
5(-0.8094165856 -0.4179122809 -0.5891102373 -0.4296725203 -0.6289305831)
5(-0.8130796186 -0.4359894247 -0.6195937576 -0.4038922891 -0.6000422013)
5(-0.8231370738 -0.426520157 -0.5723076674 -0.392978987 -0.5810605907)
5(-0.801629855 -0.408158143 -0.5956280217 -0.4095624314 -0.5501979737)
5(-0.8077045573 -0.3813349641 -0.5848230818 -0.4321708659 -0.5420193548)
5(-0.8006357611 -0.3687869188 -0.5442323357 -0.3896535022 -0.5523016775)
5(-0.8174924788 -0.3857725012 -0.571558777 -0.4636412856 -0.6386474507)
5(-0.8303207122 -0.3655775226 -0.5248987317 -0.4258650464 -0.4615678967)
5(-0.8288789558 -0.347340654 -0.4881804208 -0.4509249237 -0.6520133418)
5(-0.8342737745 -0.3522894163 -0.4756497821 -0.4270228684 -0.5638776413)
5(-0.837632518 -0.3116487863 -0.4094859428 -0.4298183915 -0.5462485124)
5(-0.8475338129 -0.3801772752 -0.5673036444 -0.4570400809 -0.63073151)
5(-0.8399578967 -0.3167617134 -0.4875662124 -0.4458653573 -0.9130753828)
5(-0.8132511382 -0.3145735342 -0.4070407969 -0.424710002 -0.7521142277)
5(-0.7691304582 -0.2864421584 -0.3525642002 -0.5514797046 -2.097704463)
5(-0.7676616267 -0.3083883987 -0.4405490507 -0.7044003176 -1.212210161)
5(-0.7425999257 -0.2836097209 -0.4843980785 -1.318747583 -0.8871173963)
5(-0.6913157976 -0.2817791615 -0.5422976048 -1.392869878 -0.4823376146)
5(-0.6074757956 -0.1578374857 -0.247255901 -0.9154582229 -0.3131721899)
5(-0.5495260711 -0.15639615 -0.4757486188 -0.7085756175 -0.2043758461)
5(-0.5060173898 -0.1204407622 -1.009072602 -0.5119223266 -0.06192637804)
5(-0.484268536 -0.5042334081 -1.405185225 -0.2349117863 0.09558005444)
5(-0.5072639034 -0.6710869924 -0.9193794865 -0.06211666794 0.2598826881)
5(-0.3794896209 -0.9629826294 -0.6741234411 0.08510200122 0.4179185675)
5(-1.265323226 -1.335036986 -0.358838235 0.2372769192 0.5696860069)
5(-1.534983319 -0.7021201324 -0.217741876 0.3940878273 0.7104978137)
5(-1.127881383 -0.3866309458 -0.07808485359 0.5456916392 0.8395521637)
5(-0.7138065719 -0.2000751989 0.07081380881 0.6992619472 0.9633033556)
5(-0.5035583428 -0.04246760683 0.2337172096 0.8511428527 1.076145671)
5(-0.2969959466 0.1337931427 0.4108483231 0.9963871763 1.164525289)
5(-0.01788607531 0.332491997 0.6020328706 1.120898307 1.233994364)
5(0.3995712893 0.5782570697 0.8089654189 1.236383687 1.25702911)
5(0.765086984 0.9133509688 1.026924508 1.381117094 1.232306128)
5(0.3899852701 0.9604060267 1.286225467 0.8940683166 0.8015479164)
5(-2.133915295 -2.073556403 -2.25459274 -1.521303861 -0.9134953464)
)


60
(
5(2.780718521 1.903705074 3.317390596 2.553566602 3.796307539)
5(0.9574755162 -0.2580011722 1.304396374 1.212081827 1.729799617)
5(-1.234024644 0.5883826771 0.5296561355 0.3927401743 -1.118246819)
5(-2.027534777 0.8542639018 0.8687217869 -0.2024198211 1.770670572)
5(-1.429407437 0.6381368546 0.6231109607 0.3569100137 0.5618263724)
5(-0.2762877878 0.4295242391 -0.4657568156 0.283999674 -0.1059004143)
5(0.08262396565 0.3255884779 -0.3241650282 -0.02983213023 0.519961305)
5(-0.3915057494 0.3434408276 0.1147696439 0.1433122004 -0.3317725346)
5(-0.06011627354 0.4215404189 0.02904938134 0.2227006867 0.06576135609)
5(-0.09703489723 0.4995960592 0.2791136648 0.1742456246 0.1672513948)
5(-0.03772334712 0.500973017 0.2640689645 0.1997678337 0.181670304)
5(-0.03569538537 0.5043098391 0.1265740214 0.2083091585 0.08940828028)
5(-0.113600541 0.5236196227 0.09980897687 0.2823449585 0.1505123945)
5(0.009022318481 0.5460463354 0.1363423159 0.200874421 0.1140115756)
5(-0.06568560049 0.5036422249 0.1071093898 0.2581861792 0.1220990517)
5(-0.0224160738 0.5215575556 0.1504092049 0.2732649079 0.1439861074)
5(-0.01547200856 0.5116979923 0.1588976536 0.2810748157 0.1912355327)
5(-0.01374683671 0.5043984209 0.1664568841 0.3122206986 0.2137923976)
5(-0.02146007029 0.502999107 0.1723806889 0.3044937546 0.2230106613)
5(0.008234711464 0.539873456 0.2065115733 0.3582299455 0.2226082609)
5(-0.003191589575 0.4952270222 0.1745657945 0.3422608847 0.2235162622)
5(-0.006740407704 0.4783080072 0.1917222422 0.2447678573 0.1697645367)
5(0.01478320457 0.4801263878 0.1833858902 0.3052158762 0.2342199987)
5(-0.007736941496 0.5012484892 0.1865902775 0.3050431333 0.2303736722)
5(-0.004073928979 0.4883556887 0.2003826815 0.3328803208 0.2616752085)
5(-0.01543417104 0.465741929 0.2349656593 0.3683834572 0.2670159081)
5(-0.0222465198 0.433959042 0.1990673938 0.3801825535 0.2786883527)
5(-0.0457189649 0.4158099536 0.2176018767 0.3835606161 0.2847800323)
5(-0.03781898535 0.4126969437 0.1961479306 0.3671561357 0.2988618884)
5(-0.05180589689 0.4150894392 0.1838161486 0.3291614423 0.2903865125)
5(-0.05448446886 0.4104470412 0.2059244383 0.3576566107 0.3072894739)
5(-0.0715753343 0.3823687943 0.178707919 0.3075163507 0.2165206165)
5(-0.09451025394 0.3736039123 0.1905259645 0.3094762302 0.3237364819)
5(-0.1057961655 0.3710850408 0.2174003992 0.2992411113 0.2338781932)
5(-0.1149222448 0.3478126725 0.2073165325 0.3042910164 0.2572749399)
5(-0.124510638 0.3673645726 0.279206271 0.3254412544 0.2794776278)
5(-0.1325194058 0.3102500806 0.1800861128 0.2899056099 0.3114580338)
5(-0.1379513386 0.3358544621 0.1950237351 0.335392931 0.1178445597)
5(-0.1244744588 0.3304475759 0.2457558168 0.3381323415 0.3720287547)
5(-0.0838109478 0.3524721647 0.323842833 0.4034583704 -0.2189956055)
5(-0.05966180291 0.3456237631 0.2986050258 0.425471955 -0.06354118706)
5(-0.03894430963 0.3734282843 0.328626097 0.2639312495 0.08443799119)
5(0.01412727906 0.3834866485 0.3451981028 -0.1022548559 0.2562960838)
5(0.09284225046 0.4720199728 0.5972370439 0.05145420893 0.4401052852)
5(0.1835789075 0.5222976142 0.6147573558 0.2275936745 0.5485486474)
5(0.2532926659 0.6165198751 0.6107092576 0.3901608988 0.6698543214)
5(0.3429466615 0.6445152283 0.1932910615 0.541652401 0.7943246102)
5(0.4173664784 0.5611284703 0.1775540925 0.6718076406 0.9095054996)
5(0.5510871861 0.7123330421 0.3093139909 0.7890816481 1.012184715)
5(0.6674104606 0.2500964873 0.4367996417 0.8965570498 1.094775259)
5(0.727420182 0.3876361643 0.5449586343 0.991417264 1.154996663)
5(0.3804771777 0.5166126982 0.6367912341 1.072387354 1.201366951)
5(0.3626284487 0.6226498485 0.7200532236 1.140019125 1.23371907)
5(0.4721154075 0.7068462391 0.7976145304 1.190432252 1.249170492)
5(0.5859169121 0.781332499 0.8732026778 1.226235927 1.240240161)
5(0.7495915868 0.856279843 0.945552253 1.231444144 1.202599806)
5(0.967291691 0.935434197 1.009882946 1.204508965 1.120034999)
5(1.054872146 1.033343069 1.051432418 1.120445488 0.9966853388)
5(0.6492080211 0.8722632047 0.9414021283 0.8706430336 0.8212473629)
5(-1.654799359 -1.758016069 -1.905117494 -1.191772253 -0.2422779927)
)


60
(
5(3.484250352 3.400532416 3.931332318 3.523042787 4.262476565)
5(2.474320188 3.172459948 3.03046127 3.024544577 3.304170272)
5(2.052898822 3.116560733 2.505959063 2.711698294 2.659105863)
5(1.926748374 3.077219656 2.351578358 2.586913379 2.433787276)
5(1.935379099 3.046329087 2.374071359 2.564155118 2.429190483)
5(2.020190216 3.033510313 2.450692882 2.562335399 2.495508735)
5(2.075276364 3.029302218 2.47320315 2.575471121 2.53973161)
5(2.077943388 3.00612786 2.470979735 2.56817134 2.535316642)
5(2.061060054 2.970953869 2.44039898 2.534938817 2.501899322)
5(2.059993028 2.941908134 2.414740979 2.507949483 2.461472203)
5(2.046579755 2.916663709 2.394471636 2.486915953 2.446173687)
5(2.053542156 2.88454593 2.3868116 2.467117735 2.438321579)
5(2.052867568 2.855051725 2.375446023 2.445386781 2.423179727)
5(2.044797047 2.823128426 2.357741662 2.428550394 2.410664225)
5(2.033698527 2.787235831 2.335156191 2.406576968 2.391584926)
5(2.023788817 2.753881588 2.315396848 2.383233271 2.371777609)
5(2.010955086 2.71799777 2.296084884 2.360501964 2.352324646)
5(1.995527702 2.682268053 2.275803302 2.33796892 2.333894189)
5(1.98144955 2.640719927 2.252438115 2.313851719 2.314664134)
5(1.963931364 2.60270397 2.228724098 2.290605594 2.295863565)
5(1.944028529 2.561555133 2.202822091 2.262883043 2.271429744)
5(1.923169157 2.519610532 2.175841991 2.239193688 2.249534655)
5(1.899417061 2.475563917 2.146780161 2.210046475 2.226963628)
5(1.876176217 2.433062377 2.121213463 2.177356345 2.199535225)
5(1.849023483 2.385968979 2.087276077 2.14705589 2.17154759)
5(1.823160734 2.338126899 2.059194055 2.118445056 2.147626538)
5(1.795690102 2.2866952 2.025164946 2.087525693 2.120140667)
5(1.763175331 2.237313187 1.990155272 2.055819234 2.090014055)
5(1.731239132 2.18789059 1.955925727 2.021624675 2.063893611)
5(1.698881634 2.132532416 1.917702912 1.987096856 2.031938994)
5(1.66378825 2.077153458 1.881826794 1.952992685 2.004850789)
5(1.627557301 2.022559016 1.842638574 1.918072303 1.97472403)
5(1.591477064 1.965334978 1.801841322 1.883753448 1.948840637)
5(1.554515093 1.906614601 1.763358135 1.852722426 1.922179319)
5(1.516830076 1.851181501 1.725576289 1.8217238 1.901710207)
5(1.480580072 1.793276601 1.68891015 1.793443746 1.877754961)
5(1.447320089 1.73973053 1.654696855 1.766123284 1.859565802)
5(1.417290786 1.687695204 1.624492834 1.745601864 1.852186767)
5(1.390857425 1.638934507 1.598579226 1.736038957 1.858386648)
5(1.369849969 1.600332492 1.576501047 1.738935323 1.885701736)
5(1.351515692 1.559157769 1.560762812 1.76137676 1.925440858)
5(1.341639798 1.536180762 1.562956131 1.800321742 1.967814845)
5(1.344360218 1.517628495 1.577982142 1.851041267 2.001628092)
5(1.355489171 1.504803206 1.612253613 1.903522059 2.023775374)
5(1.376755701 1.507313851 1.660625891 1.947953379 2.032304262)
5(1.399860056 1.521874426 1.724447945 1.983030474 2.031600446)
5(1.42728654 1.556321271 1.784617144 2.004289855 2.025163513)
5(1.460878476 1.604612604 1.831106879 2.008212619 2.006706305)
5(1.516809621 1.657582095 1.85173256 1.993671981 1.972246854)
5(1.577199263 1.699902747 1.848234161 1.961299 1.921845317)
5(1.649151576 1.718224906 1.817463148 1.91016694 1.851865826)
5(1.700857367 1.702715365 1.758677824 1.840129243 1.7684046)
5(1.708270684 1.651433057 1.680566936 1.754028976 1.67110564)
5(1.656153047 1.568970894 1.585331434 1.648361109 1.564315538)
5(1.558782258 1.463999091 1.469746224 1.526807489 1.439362466)
5(1.421347069 1.332448197 1.337321863 1.387327204 1.296420072)
5(1.251391739 1.182304758 1.189597907 1.225613185 1.135942239)
5(1.057711278 1.016943937 1.023617681 1.042632221 0.9529609878)
5(0.7922526613 0.8319831725 0.8570402263 0.8355260363 0.7493259863)
5(0.0351449486 -0.2029054431 0.3389304569 0.4546674846 0.4136337313)
)


60
(
5(3.712244097 3.698959472 4.06106053 3.775267469 4.298868495)
5(2.994435682 3.608724959 3.520580374 3.476294955 3.730323719)
5(2.705151048 3.635296625 3.153613818 3.252450545 3.264839388)
5(2.599171047 3.624438174 3.011167344 3.145105755 3.049636481)
5(2.600938164 3.592017191 3.001316429 3.106550614 2.995348113)
5(2.653321943 3.571689302 3.039006871 3.099086308 3.014409248)
5(2.698170852 3.555854225 3.063368303 3.103227651 3.047883359)
5(2.704822185 3.5347821 3.059207647 3.087951502 3.047230256)
5(2.693398711 3.505198572 3.034648096 3.062637962 3.018417333)
5(2.678126289 3.473906241 3.003232932 3.032090314 2.989163126)
5(2.666370581 3.43950187 2.980934201 3.008198445 2.962509467)
5(2.659866382 3.40505398 2.961834289 2.982757314 2.940139634)
5(2.654929277 3.37381327 2.943452382 2.960658039 2.923447721)
5(2.646132296 3.338728244 2.92277223 2.93824086 2.904171474)
5(2.631742427 3.301472415 2.899477457 2.913185936 2.880225715)
5(2.612296257 3.26116925 2.874470787 2.886001577 2.855450165)
5(2.596624848 3.220797031 2.848001136 2.860186826 2.830559877)
5(2.578046094 3.179702988 2.817843548 2.835071734 2.802961254)
5(2.556532337 3.136358789 2.791909704 2.804070571 2.777117806)
5(2.53445874 3.093451456 2.759912215 2.774134923 2.748328504)
5(2.507510075 3.047220318 2.726582648 2.743786063 2.721955263)
5(2.481969889 3.000488718 2.693174863 2.710567773 2.691584385)
5(2.452854812 2.952991046 2.659672799 2.678251545 2.659811103)
5(2.423310324 2.903174351 2.622627173 2.642606119 2.625235978)
5(2.390025452 2.849234346 2.582508722 2.603945648 2.58833785)
5(2.356670044 2.7952658 2.541539817 2.56606411 2.552465792)
5(2.319801203 2.736146677 2.497438255 2.525407101 2.515786674)
5(2.27891221 2.678907447 2.453877634 2.486627211 2.475848154)
5(2.240250783 2.618479162 2.406300118 2.441843093 2.437333791)
5(2.199020349 2.555414704 2.358734534 2.398127596 2.394325762)
5(2.155699557 2.491750593 2.309985579 2.352985789 2.354867278)
5(2.109919575 2.426485712 2.257784875 2.304715096 2.313808247)
5(2.064961973 2.356316611 2.204281624 2.259905592 2.273176881)
5(2.017259376 2.290006395 2.151362582 2.215065365 2.234050458)
5(1.97084829 2.220532732 2.097387583 2.170445808 2.198303227)
5(1.919664761 2.151312102 2.045187971 2.127660297 2.163556828)
5(1.876163911 2.083506492 1.993050518 2.088011258 2.130957035)
5(1.833524856 2.01703278 1.944417646 2.052006515 2.109078174)
5(1.793786572 1.952866056 1.897126275 2.024937387 2.101944654)
5(1.757447453 1.890732802 1.857297478 2.013574246 2.119493399)
5(1.723341619 1.83482641 1.826672155 2.019943461 2.156638129)
5(1.697713263 1.78852516 1.803826272 2.048067393 2.202870974)
5(1.679092933 1.74733371 1.797279939 2.09234415 2.244701302)
5(1.668675921 1.711016954 1.810941835 2.143571391 2.271015485)
5(1.664554794 1.684081413 1.844787153 2.193217105 2.29054531)
5(1.660636881 1.67518477 1.89393824 2.232543475 2.304975675)
5(1.654739441 1.681333918 1.947685617 2.26329635 2.317076633)
5(1.650299424 1.707502565 1.994538266 2.27922402 2.317709893)
5(1.651220542 1.738636854 2.020663238 2.277587385 2.295050886)
5(1.679484119 1.77278969 2.023342613 2.25715522 2.249516414)
5(1.713484705 1.782331088 2.000452526 2.209492958 2.176575747)
5(1.723143609 1.758995798 1.949021626 2.134750505 2.080031419)
5(1.68909418 1.70233881 1.8713163 2.034852441 1.959672741)
5(1.59976812 1.613619003 1.767706436 1.907144097 1.816402247)
5(1.460297048 1.491974072 1.636548062 1.75214471 1.650264178)
5(1.27656239 1.339154353 1.479024516 1.5707734 1.463000379)
5(1.056964075 1.156645428 1.293672544 1.366885802 1.26023477)
5(0.7906962823 0.9392710094 1.081865631 1.137484306 1.034634962)
5(0.2994304214 0.5783086284 0.8066780886 0.8810058367 0.799981613)
5(-0.9578932929 -0.7492556495 0.07503850793 0.403114428 0.2654298613)
)


60
(
5(3.771556671 3.716487879 4.029903805 3.813351988 4.206415447)
5(3.237952353 3.712272923 3.69516463 3.619595538 3.841972253)
5(3.03188007 3.80666536 3.428813187 3.457410654 3.483546341)
5(2.95500267 3.822661298 3.309794698 3.37231554 3.29965208)
5(2.948544282 3.793890589 3.288621586 3.335127255 3.225904636)
5(2.990966882 3.776416389 3.316510405 3.328952633 3.228995582)
5(3.032492918 3.769081011 3.342386443 3.330842468 3.258664564)
5(3.041595653 3.748994619 3.341983702 3.320447581 3.263432328)
5(3.026291736 3.724404918 3.323182573 3.299735033 3.240694309)
5(3.01073219 3.69493746 3.29249141 3.272976213 3.208976407)
5(2.99942522 3.663770313 3.269163294 3.247484371 3.180299011)
5(2.98960012 3.633565312 3.246878623 3.223774435 3.158741095)
5(2.980671469 3.600159329 3.228678984 3.204286671 3.140832962)
5(2.966254411 3.566178368 3.207643154 3.182133603 3.116767312)
5(2.951978863 3.529694147 3.18450929 3.157589551 3.095783208)
5(2.933136099 3.493832674 3.15871064 3.130007717 3.068116291)
5(2.911472054 3.453564345 3.129210907 3.106247291 3.041504582)
5(2.891301453 3.411961187 3.101602867 3.074494698 3.011895831)
5(2.865077381 3.370866643 3.070128745 3.044620709 2.983362173)
5(2.840619354 3.326923088 3.035697067 3.013672155 2.954059572)
5(2.812324957 3.279687752 3.002295294 2.983124055 2.922017266)
5(2.780911462 3.233823425 2.966155472 2.949823371 2.887484315)
5(2.749443501 3.184163118 2.928342651 2.915140281 2.849980083)
5(2.716037944 3.131510555 2.88598809 2.876487953 2.811055847)
5(2.679831123 3.078179893 2.844699951 2.836023318 2.775129322)
5(2.641922558 3.022470537 2.799916147 2.793952879 2.734148559)
5(2.60206262 2.963683207 2.753818985 2.75093394 2.690966312)
5(2.55884521 2.904314385 2.704024732 2.706292203 2.649013223)
5(2.515589998 2.842524393 2.652109779 2.658373424 2.601977036)
5(2.469227827 2.775918706 2.599293891 2.610541763 2.556873228)
5(2.420026873 2.710004649 2.544833372 2.559881792 2.508433322)
5(2.372521355 2.643293183 2.484590458 2.507324811 2.462051369)
5(2.322473584 2.571132345 2.426344675 2.455705892 2.414044319)
5(2.271089383 2.500012995 2.366213153 2.404030806 2.370064702)
5(2.219578133 2.426318065 2.30699194 2.352765589 2.323503248)
5(2.166772356 2.355120132 2.245836778 2.304495702 2.280009613)
5(2.120212019 2.2832355 2.184548871 2.254908374 2.235941909)
5(2.073549341 2.209356185 2.125917876 2.208640367 2.200734893)
5(2.027901247 2.139260166 2.071878002 2.170630851 2.183326728)
5(1.988087434 2.074410745 2.020533247 2.145438166 2.188011939)
5(1.952313228 2.012817393 1.974686937 2.140387426 2.218539258)
5(1.921858386 1.956647996 1.936923164 2.15715402 2.254769382)
5(1.897478695 1.903945822 1.914969282 2.188712144 2.285321383)
5(1.873719358 1.853637885 1.910742754 2.227622982 2.30702272)
5(1.851465177 1.811872731 1.927236856 2.266176325 2.324148756)
5(1.828130617 1.780969731 1.958796882 2.300028466 2.341323074)
5(1.796609208 1.765613538 2.001481571 2.324923082 2.357332904)
5(1.765586556 1.772264027 2.03572441 2.339110488 2.366130365)
5(1.740182165 1.787170378 2.049211993 2.342751147 2.362558875)
5(1.740755707 1.795944372 2.045340748 2.330563404 2.329261324)
5(1.740874737 1.781044653 2.018407253 2.291904882 2.270326582)
5(1.725011499 1.73915546 1.965037328 2.226363125 2.179405964)
5(1.663673618 1.656996297 1.884865134 2.126595455 2.058123475)
5(1.545284945 1.539811951 1.773469228 1.994902047 1.910020789)
5(1.373004418 1.389959736 1.63038721 1.830159248 1.733995722)
5(1.151752601 1.203285901 1.453628506 1.632358643 1.531053099)
5(0.8886221294 0.9826496425 1.241281381 1.403769653 1.305976279)
5(0.576017568 0.7166720309 0.9806144252 1.138394724 1.057663663)
5(-0.09474808192 0.145825276 0.4726383579 0.7902102649 0.7940375933)
5(-1.267521645 -0.9332156141 -0.5291352121 0.06520325233 0.1843635862)
)


60
(
5(3.757018615 3.640623568 3.944778358 3.770019081 4.077350496)
5(3.344799539 3.697267524 3.740483072 3.64248409 3.834578242)
5(3.204474244 3.836813065 3.545607908 3.528837275 3.554973842)
5(3.146523872 3.86811881 3.449371164 3.463824979 3.39614463)
5(3.134828104 3.844001893 3.42877831 3.432839128 3.323980988)
5(3.167462292 3.829877178 3.451731058 3.426186412 3.320416841)
5(3.20152803 3.821097884 3.474742863 3.430041731 3.345841907)
5(3.205473689 3.802278316 3.475478086 3.424277296 3.355003306)
5(3.187587292 3.778868386 3.458078936 3.405621446 3.335141773)
5(3.167602379 3.747866952 3.428948687 3.38037507 3.304253298)
5(3.151066598 3.7191212 3.404337151 3.356929266 3.277166098)
5(3.136556903 3.685739512 3.381528197 3.336754318 3.255051172)
5(3.121625139 3.653602223 3.363036738 3.316204845 3.235755262)
5(3.101619165 3.619048033 3.339005985 3.295107882 3.215259511)
5(3.081692072 3.583127674 3.31491224 3.27145702 3.190331404)
5(3.058464889 3.544646775 3.284553271 3.246075276 3.162654597)
5(3.032602638 3.504434347 3.257334278 3.219133433 3.135008967)
5(3.004727033 3.463348801 3.226519022 3.187186892 3.105882505)
5(2.976862107 3.419500664 3.192497935 3.160213556 3.075922197)
5(2.945394349 3.374505985 3.158599929 3.127812101 3.044132703)
5(2.912709476 3.326353544 3.121208778 3.095500884 3.010616394)
5(2.878551486 3.279071377 3.083483128 3.061860215 2.974377363)
5(2.84024839 3.227908783 3.042114197 3.02359601 2.936464329)
5(2.801605899 3.175213803 2.999044563 2.98497466 2.896834322)
5(2.762908033 3.119524719 2.954512898 2.943517457 2.855533067)
5(2.718761975 3.062037627 2.907179816 2.898996589 2.81185159)
5(2.675130918 3.003481071 2.857048443 2.853899392 2.769139236)
5(2.627613724 2.942238067 2.803076867 2.807719105 2.723053988)
5(2.581671382 2.877835279 2.75067659 2.759190825 2.673472353)
5(2.531301143 2.812789204 2.694707355 2.706484418 2.625195714)
5(2.482691204 2.748203941 2.635746055 2.654868058 2.57373982)
5(2.431298716 2.677148661 2.573671594 2.600314285 2.520894124)
5(2.377621942 2.60789519 2.512859086 2.545542975 2.471465743)
5(2.326700474 2.536648718 2.451098241 2.490593041 2.422196622)
5(2.273841534 2.464687655 2.385851004 2.435468117 2.370692838)
5(2.223404598 2.395755503 2.322818192 2.380817623 2.320006428)
5(2.175287796 2.32040192 2.258181498 2.32587227 2.269737779)
5(2.127960897 2.25038291 2.196528436 2.273586716 2.224528934)
5(2.0846625 2.183857577 2.13593531 2.229095964 2.197045095)
5(2.047566785 2.116473116 2.078209216 2.197174563 2.193578441)
5(2.010708671 2.055219635 2.026848666 2.18301836 2.21206167)
5(1.977986501 1.995967483 1.983224208 2.1888035 2.231142912)
5(1.947521686 1.940787623 1.948853837 2.206558106 2.250060449)
5(1.915282327 1.88734724 1.934238523 2.233108799 2.257301285)
5(1.884438288 1.839434243 1.938619143 2.258228306 2.262695216)
5(1.853590332 1.80045613 1.959218852 2.275373365 2.266589684)
5(1.806132537 1.778679601 1.9854886 2.286333303 2.281206435)
5(1.766468117 1.771757129 1.999859708 2.291848711 2.291097013)
5(1.738180405 1.769787744 1.999483779 2.290270984 2.287157578)
5(1.727903013 1.760456405 1.981844249 2.27620889 2.266395677)
5(1.72544268 1.734667971 1.943895836 2.242970413 2.218553681)
5(1.715140822 1.677578251 1.877707599 2.178254684 2.136157665)
5(1.661972169 1.587569691 1.788857429 2.083696916 2.028649441)
5(1.557861451 1.462253496 1.663396723 1.953067718 1.885811492)
5(1.409975943 1.29953318 1.50295556 1.782922231 1.711764067)
5(1.199674034 1.095301426 1.306765996 1.575981386 1.506986407)
5(0.956392312 0.8566745435 1.066413773 1.325548065 1.270920252)
5(0.6557290122 0.5678178861 0.7740294201 1.027191367 1.007292903)
5(0.007513599713 -0.09413396876 0.1246020948 0.5556006411 0.6916251428)
5(-1.221625543 -1.177606915 -0.7091478938 -0.241947271 -0.01096872961)
)


60
(
5(3.709598806 3.540520258 3.847727021 3.699715944 3.949551907)
5(3.386166225 3.636200157 3.728932664 3.619482616 3.784228681)
5(3.297478402 3.803175387 3.591125435 3.542965374 3.567230679)
5(3.250143373 3.847547914 3.513960344 3.496517609 3.432520323)
5(3.231739692 3.826814862 3.49636182 3.471373977 3.366439849)
5(3.254607511 3.808664094 3.516662237 3.467578932 3.361689204)
5(3.281418901 3.798423778 3.533049421 3.471394166 3.386569637)
5(3.276347323 3.778239911 3.5348724 3.469280502 3.39867912)
5(3.254237899 3.752384332 3.514909936 3.452181527 3.381669053)
5(3.226869361 3.722448601 3.488471178 3.430316586 3.354518749)
5(3.204474584 3.688755281 3.459465792 3.407236914 3.328488329)
5(3.182052566 3.655409345 3.437231633 3.389130914 3.307940774)
5(3.161155346 3.620352115 3.414254722 3.369538169 3.289943596)
5(3.136408225 3.583353522 3.391226023 3.349910467 3.270533373)
5(3.109258515 3.545601849 3.363384298 3.326606549 3.247191046)
5(3.07816915 3.505705481 3.334185325 3.302442875 3.22173108)
5(3.04769283 3.463969225 3.302189646 3.274714815 3.193314988)
5(3.013815905 3.419618258 3.268543185 3.24679831 3.165017128)
5(2.980533927 3.373997845 3.234785349 3.216918659 3.135232547)
5(2.943785063 3.327376732 3.197632372 3.185008747 3.103065423)
5(2.905712452 3.278327417 3.158921398 3.152808445 3.07126114)
5(2.867120958 3.229627516 3.119127718 3.118386215 3.034402982)
5(2.824105428 3.175977122 3.076004896 3.081036667 2.996866073)
5(2.781478268 3.122184898 3.031869535 3.041879965 2.956291356)
5(2.735640799 3.066996125 2.984467101 2.99807544 2.915153476)
5(2.690077235 3.008851719 2.934486729 2.954144205 2.872199973)
5(2.641202934 2.948112295 2.881759382 2.910385095 2.827857315)
5(2.592869098 2.885401116 2.829759937 2.863819822 2.779939591)
5(2.543712395 2.823143872 2.775710756 2.811128104 2.729956272)
5(2.491341239 2.760303549 2.717012435 2.760954097 2.680904292)
5(2.436790179 2.691590225 2.657516107 2.707760707 2.625443082)
5(2.384731902 2.624083191 2.597258489 2.652117363 2.573605942)
5(2.333960175 2.557349582 2.534088572 2.595478959 2.520253974)
5(2.28172714 2.486437261 2.470869252 2.540372406 2.469021334)
5(2.229086145 2.41771253 2.40642236 2.484753708 2.414476298)
5(2.180766839 2.34776051 2.341533997 2.426863091 2.359781388)
5(2.13095949 2.277750653 2.278702967 2.371282062 2.305824647)
5(2.087603495 2.21165308 2.213951271 2.316956212 2.254677789)
5(2.045215932 2.145957818 2.153930891 2.268043857 2.21880797)
5(2.005632022 2.081652318 2.098231244 2.2280607 2.205456179)
5(1.96970851 2.024184752 2.043302231 2.209071397 2.212178181)
5(1.934815221 1.968458926 1.997395629 2.20653928 2.223685984)
5(1.900747968 1.914162439 1.95818193 2.21751918 2.226640329)
5(1.866615805 1.863787863 1.941321292 2.233424725 2.215670733)
5(1.829484839 1.816020612 1.938520258 2.243222286 2.200142425)
5(1.789486842 1.777868388 1.949118483 2.246127383 2.192644529)
5(1.74679912 1.750867426 1.960133588 2.24593204 2.190187988)
5(1.707248873 1.734367111 1.968577099 2.237404188 2.188439921)
5(1.678094375 1.729916201 1.957449506 2.225164757 2.18223364)
5(1.666031289 1.716087388 1.929152723 2.203011451 2.153543103)
5(1.67146364 1.688909788 1.881489616 2.16160064 2.107962232)
5(1.66775029 1.640534901 1.813595715 2.097225339 2.037731781)
5(1.642001879 1.570384913 1.718473028 1.99667661 1.933961809)
5(1.572580959 1.464035859 1.591374377 1.86131797 1.80170042)
5(1.469433661 1.326151349 1.426058991 1.684341582 1.631517558)
5(1.32854308 1.153418812 1.220339147 1.461426857 1.426378049)
5(1.14802612 0.940690488 0.970418763 1.192114721 1.185598183)
5(0.9300383967 0.6810893169 0.6613343086 0.8643657488 0.9016926208)
5(0.4733009273 0.08908897886 -0.04585383722 0.2669779789 0.4687116455)
5(-0.3351839891 -1.025539183 -1.25804997 -0.7271872324 -0.3335879417)
)


60
(
5(3.651596163 3.439005848 3.752268832 3.626468969 3.832590816)
5(3.396273957 3.56327394 3.692520572 3.575989935 3.718856819)
5(3.34735917 3.749129353 3.596556964 3.525496318 3.548764033)
5(3.310672749 3.799274535 3.535055263 3.491456896 3.437631035)
5(3.290229495 3.777981113 3.517721148 3.470960506 3.375346249)
5(3.30438206 3.756878998 3.530645885 3.46406962 3.368848061)
5(3.322655691 3.742488985 3.539949236 3.467217217 3.394282297)
5(3.311344478 3.718938882 3.536963363 3.46269445 3.403936339)
5(3.284678646 3.689731784 3.514244812 3.445878125 3.390002822)
5(3.252580884 3.657285248 3.484401084 3.422721621 3.363878312)
5(3.224374236 3.620609643 3.451492943 3.399763099 3.339370341)
5(3.196832898 3.584829261 3.425730962 3.379138116 3.318655597)
5(3.170187844 3.545953989 3.397549908 3.358941319 3.301829728)
5(3.140420973 3.507476018 3.371667095 3.337673553 3.281181596)
5(3.107169044 3.466053572 3.338773643 3.312435536 3.259399421)
5(3.073445197 3.423630853 3.305534284 3.286911457 3.232939952)
5(3.036874349 3.377758997 3.270230496 3.25829358 3.206318827)
5(3.000222492 3.332044224 3.233636666 3.229331602 3.175889212)
5(2.961067216 3.284541965 3.195653488 3.197267445 3.147321187)
5(2.921076215 3.235331172 3.155616532 3.164967396 3.115106002)
5(2.878571181 3.185043821 3.113634992 3.130675328 3.083538084)
5(2.834143308 3.132182337 3.06981048 3.094216924 3.044910126)
5(2.790571587 3.078585611 3.024376306 3.055916811 3.008528755)
5(2.742873347 3.023856788 2.977257562 3.015272553 2.967287156)
5(2.696054768 2.965890803 2.926843288 2.97207202 2.92636384)
5(2.646572885 2.90485893 2.876459747 2.928342685 2.883265341)
5(2.59528256 2.845779001 2.823298662 2.881903641 2.836842019)
5(2.544704463 2.784294878 2.76869474 2.831965033 2.789361768)
5(2.491314172 2.722650099 2.710701709 2.781230919 2.741126059)
5(2.439963104 2.656738643 2.65133039 2.732250679 2.689849413)
5(2.385596213 2.588985829 2.590410944 2.676979483 2.637090544)