/*--------------------------------*- C++ -*----------------------------------*\
| =========                 |                                                 |
| \\      /  F ield         | OpenFOAM: The Open Source CFD Toolbox           |
|  \\    /   O peration     | Version:  2.3.1                                 |
|   \\  /    A nd           | Web:      www.OpenFOAM.org                      |
|    \\/     M anipulation  |                                                 |
\*---------------------------------------------------------------------------*/
FoamFile
{
    version     2.0;
    format      ascii;
    class       dictionary;
    location    "constant";
    object      PM24;
}
// * * * * * * * * * * * * * * * * * * * * * * * * * * * * * * * * * * * * * //

PM24_table
60
(

60
(
5(0.747657546 -0.3599512786 0.9813883014 0.673657393 1.126014753)
5(-0.5484415382 -0.6055273061 0.2633806735 0.09273638415 -0.9550526401)
5(-1.043506467 -0.07666402433 0.07253635467 -0.4494357017 -0.5586261953)
5(-0.8898182076 0.04308103317 0.272647654 -0.3308687499 0.6890244291)
5(-0.5021204654 -0.08881481656 -0.07134200078 -0.05145943132 -0.1775513768)
5(-0.1332068448 -0.266639191 -0.5628189715 -0.1796384568 -0.2691282568)
5(-0.1588029555 -0.2919222419 -0.2562148149 -0.2625546906 0.09469858651)
5(-0.366770421 -0.2140336069 -0.07481444277 -0.1802587333 -0.4291467039)
5(-0.1624750416 -0.1791915988 -0.1331988012 -0.1411623197 -0.03763063792)
5(-0.2020335415 -0.132728024 -0.009071043215 -0.1775724028 -0.03431987238)
5(-0.1579010425 -0.1354906466 -0.06640394845 -0.1517752318 -0.06365194075)
5(-0.1667656271 -0.1314626247 -0.140477059 -0.1335886964 -0.1114305659)
5(-0.1874673348 -0.1107415087 -0.1236683832 -0.09850747285 -0.06843094549)
5(-0.1243081218 -0.1015716869 -0.1065267483 -0.1416213915 -0.08695966543)
5(-0.1700572027 -0.109680404 -0.1113229366 -0.08762274647 -0.07390560842)
5(-0.1318785889 -0.08852169852 -0.0812338934 -0.08056355101 -0.04991488888)
5(-0.1250492794 -0.08574331495 -0.07690964739 -0.06473626578 -0.0177448286)
5(-0.118967644 -0.07722651242 -0.06550981981 -0.04087017409 -0.009298450973)
5(-0.110664603 -0.05896162057 -0.05147201938 -0.03252701685 0.0005281531576)
5(-0.08199075791 -0.03059887685 -0.02988685605 0.00513839304 -0.001322799783)
5(-0.08475756985 -0.04505202185 -0.04027486706 -0.01145220304 0.003464251184)
5(-0.06768523696 -0.03098693552 -0.0195567924 -0.04789239494 -0.0007760210712)
5(-0.04277794186 -0.008170531497 -0.009620683567 0.02256153842 0.0535972532)
5(-0.03880749794 0.0246140109 0.008477125142 0.03192037739 0.05482118745)
5(-0.01575496188 0.03598385064 0.04065636008 0.07130755128 0.0871428225)
5(-0.002844727294 0.04873091795 0.07363465697 0.1078680035 0.09561807921)
5(0.0144950555 0.05839200463 0.0716390844 0.1349090024 0.1179060069)
5(0.0311729821 0.08495404568 0.1104899065 0.1556215415 0.1371666768)
5(0.07194342935 0.1175294867 0.1154954606 0.1646627893 0.1639791278)
5(0.09900490055 0.1580320596 0.140897836 0.1731512894 0.1813356627)
5(0.1394105322 0.1949859142 0.185001922 0.2172967024 0.1887595122)
5(0.1682262856 0.2207858911 0.1953403283 0.1998357051 0.1597314741)
5(0.2044662698 0.2706700491 0.2496502801 0.2477970377 0.2680619951)
5(0.2551862365 0.3229979707 0.3007839566 0.2587347447 0.1806113816)
5(0.3056772557 0.3672281088 0.3428444393 0.3010732518 0.2436228142)
5(0.3618627191 0.4398046893 0.4158193241 0.3256510376 0.2673856356)
5(0.416276514 0.4519237088 0.3617607589 0.3405634895 0.2310487726)
5(0.4852214032 0.5438682236 0.449498436 0.3717253004 0.07613728065)
5(0.5686734528 0.6000777865 0.5360045533 0.4134400007 0.174744769)
5(0.663659921 0.6715604846 0.6059102262 0.342267076 -0.6667280833)
5(0.7248125106 0.7094694839 0.5843938794 0.2511122662 -0.121458237)
5(0.7962207528 0.7728558575 0.5829400883 -0.180114254 0.06012940911)
5(0.8810855927 0.8168245525 0.5673304048 -0.2390018782 0.2915609936)
5(0.9779651377 0.9336787451 0.7766593591 0.08038585003 0.3714085725)
5(1.049347236 0.9648437937 0.6205163652 0.1935581914 0.4110967458)
5(1.097976005 1.00917792 0.2096630095 0.2923730151 0.4703101791)
5(1.129375673 0.7429824272 -0.1673192025 0.4572528818 0.5397004776)
5(1.115454488 0.6108945211 0.1710493405 0.5450642033 0.6156326201)
5(1.204492825 0.3145241646 0.3119179909 0.6106660657 0.691463051)
5(0.37319141 -0.1248082739 0.5136108366 0.680908846 0.771924069)
5(0.01283776521 0.3897320777 0.5727258652 0.7595395183 0.8524692252)
5(0.3220655223 0.6020521238 0.6294743999 0.8427006379 0.9375943432)
5(0.6427648661 0.7019199068 0.6966413912 0.9377358354 1.033143519)
5(0.7686468344 0.7736509847 0.7812146283 1.047685264 1.145198314)
5(0.885146669 0.8696087107 0.8920536524 1.181715511 1.259221035)
5(1.075457249 0.9874550678 1.033137418 1.330339653 1.401425597)
5(1.421684189 1.166550294 1.230798327 1.539014773 1.543477491)
5(1.864943812 1.550036133 1.529064618 1.862068546 1.670944887)
5(1.860002555 2.016270478 2.048347838 1.241086499 1.708394767)
5(-1.611966012 -0.7851079986 -1.364741695 -0.2135666892 0.6983488275)
)


60
(
5(0.9224303472 0.4681789638 1.119086232 0.9633106578 1.254993701)
5(0.5439122374 -0.08187092461 0.6451539365 0.5962371585 0.783530578)
5(-0.2740411874 0.2515451457 0.4537551976 0.3506867916 -0.07448970611)
5(-0.6376212463 0.3712787867 0.6146785242 0.1427459378 0.953750941)
5(-0.3734380381 0.3183548338 0.5411223591 0.377947845 0.5350754325)
5(0.1731774364 0.2625352736 0.1223905902 0.3608521415 0.2902016823)
5(0.3548499187 0.2386530071 0.1853737423 0.2426839841 0.5378724214)
5(0.1426371088 0.256837632 0.3642507771 0.3217102934 0.2175015586)
5(0.3011475714 0.2965633884 0.3351432524 0.3624562516 0.3754820968)
5(0.2875087434 0.3365899354 0.4412014118 0.349991576 0.4211889809)
5(0.3220326421 0.3479582625 0.4410977826 0.3684483033 0.4333325704)
5(0.3340637266 0.3599576076 0.3895921837 0.3798445053 0.4023658897)
5(0.3047492208 0.3780172751 0.3836203021 0.4199780252 0.4334579274)
5(0.3729229011 0.3975595453 0.4049103901 0.3922509477 0.4244977494)
5(0.3413839467 0.3915616908 0.3979194116 0.4259244019 0.4345832569)
5(0.370331715 0.4101517731 0.4231755436 0.4414771364 0.4504477411)
5(0.3817011888 0.4181068581 0.4341066808 0.4546223355 0.4784269074)
5(0.3915144724 0.4278091433 0.4456108573 0.4794945839 0.4968530318)
5(0.3971699125 0.440665544 0.4570741041 0.4872628092 0.5102743925)
5(0.4240483458 0.4714649637 0.4827592306 0.5253363923 0.5203612924)
5(0.4298033812 0.467608353 0.4787104898 0.5313736791 0.5318111138)
5(0.4413773906 0.4769890522 0.4989926788 0.4971158306 0.5185725595)
5(0.4688678545 0.4964149379 0.5082631397 0.542244469 0.5613472251)
5(0.473236539 0.5267273793 0.5247290311 0.5586400841 0.5736511213)
5(0.4945810908 0.5429040681 0.5484846232 0.5913693247 0.6039679024)
5(0.5095072461 0.5561074994 0.5849794772 0.6306601376 0.6231763662)
5(0.5297107534 0.5673185183 0.5878093637 0.6594156605 0.6469764715)
5(0.5424405176 0.5874684982 0.6202627532 0.6856736318 0.6696378736)
5(0.5775809876 0.6177390373 0.6341286767 0.7032429896 0.6980122226)
5(0.6024572026 0.6536913486 0.6551369036 0.710326565 0.7163230189)
5(0.6377474198 0.6891126455 0.697322759 0.7563740722 0.7488705906)
5(0.6674304268 0.7152504528 0.7146509794 0.760012962 0.7245904507)
5(0.6965538548 0.7546938848 0.7560158853 0.7944581282 0.8077723658)
5(0.7366642921 0.8001778168 0.8089665945 0.8225413972 0.7837008141)
5(0.7811610864 0.8371489036 0.8424357365 0.8605225884 0.8216746845)
5(0.8269638829 0.9003069814 0.9251732767 0.9090991443 0.8599563948)
5(0.8764760288 0.9206134226 0.9085792908 0.9235474538 0.9044840443)
5(0.9270919484 0.9894935676 0.9589809054 0.9865693359 0.8140028937)
5(0.9901304466 1.040053139 1.029247574 1.020768118 0.9848143759)
5(1.068969477 1.104797327 1.115734582 1.088887245 0.6302101513)
5(1.132290497 1.148512619 1.135901351 1.12195216 0.72580683)
5(1.188357951 1.209341716 1.183506478 1.023198884 0.8075793576)
5(1.258000396 1.254330341 1.217545065 0.7803752831 0.901182419)
5(1.335749241 1.341099108 1.387009567 0.8755511306 1.007438679)
5(1.412964277 1.398788161 1.403292805 0.9781858078 1.071807814)
5(1.470511729 1.476118483 1.399920474 1.069362009 1.146598828)
5(1.535390303 1.50331328 1.105090249 1.157720367 1.225340009)
5(1.582966189 1.452967219 1.074291484 1.237463239 1.301154658)
5(1.660064435 1.539820048 1.146544974 1.313431753 1.376307655)
5(1.713880107 1.199234725 1.221878754 1.390264214 1.449421353)
5(1.724466347 1.277279871 1.292859631 1.466522861 1.517775047)
5(1.454037248 1.355112945 1.3615647 1.543500333 1.586601825)
5(1.411710864 1.427624266 1.430181234 1.621742758 1.658812553)
5(1.47670445 1.498140111 1.503339931 1.704189567 1.739014961)
5(1.562164276 1.574153544 1.588751877 1.798926032 1.82145047)
5(1.702061936 1.665800869 1.693234657 1.896957779 1.909472105)
5(1.922065972 1.790167352 1.826722115 2.009112763 1.991383629)
5(2.099849405 1.996503791 1.999486458 2.129710541 2.077291662)
5(1.857251071 2.116739942 2.212997178 2.005754105 2.204279049)
5(-1.248515976 -1.31119636 -2.009664507 -0.6040650371 1.214459001)
)


60
(
5(1.322154588 1.148945701 1.471465951 1.445179146 1.552990104)
5(1.238993456 1.211750423 1.324662459 1.367023417 1.376248419)
5(1.20756238 1.253723421 1.266259851 1.344352498 1.295172501)
5(1.22011544 1.28211612 1.282105231 1.358296553 1.296887542)
5(1.260949265 1.310159464 1.331020935 1.390428885 1.346879059)
5(1.316806547 1.337474775 1.378297146 1.415313731 1.396336608)
5(1.35125781 1.361023363 1.397997011 1.439212003 1.421100261)
5(1.367320822 1.377753261 1.412310614 1.456316627 1.430650424)
5(1.379915529 1.390317517 1.420394574 1.465941953 1.437470657)
5(1.400239817 1.405827369 1.433180242 1.480279782 1.445841656)
5(1.412466193 1.422684963 1.447274538 1.496177001 1.463128277)
5(1.433133409 1.436041985 1.465283981 1.511421283 1.481512146)
5(1.44941052 1.450258743 1.480719544 1.524738753 1.49563978)
5(1.462778169 1.463618027 1.493870675 1.540628896 1.511158242)
5(1.475683263 1.475878618 1.505820244 1.554978075 1.525018799)
5(1.490018292 1.489352687 1.520016371 1.569446277 1.539332648)
5(1.50346838 1.502645416 1.534971384 1.584683068 1.554609472)
5(1.516345647 1.516585792 1.55031843 1.6005357 1.570880689)
5(1.530805444 1.528423864 1.564794121 1.616783721 1.587407881)
5(1.544462684 1.542917578 1.580327641 1.633895492 1.604320203)
5(1.557943744 1.557004309 1.595496523 1.649136625 1.619564154)
5(1.572348566 1.571399138 1.611102166 1.667754473 1.637341056)
5(1.587045647 1.586058972 1.626828287 1.684551288 1.655694099)
5(1.602909771 1.602437678 1.645923214 1.700665699 1.672634932)
5(1.618379508 1.618366952 1.661412495 1.71941459 1.69003113)
5(1.636249025 1.635084751 1.682015611 1.739719288 1.709939642)
5(1.655105953 1.65123831 1.700359273 1.759805293 1.728939693)
5(1.672281183 1.669765572 1.719150164 1.780590502 1.747694738)
5(1.69189757 1.689962754 1.739979421 1.800910114 1.769103702)
5(1.71266277 1.708318741 1.75961604 1.821658505 1.788859572)
5(1.733101762 1.728000193 1.781458955 1.84366307 1.811118764)
5(1.754541861 1.749267886 1.802754101 1.865347282 1.831882109)
5(1.777261732 1.769348411 1.822931192 1.887863999 1.85439608)
5(1.799396483 1.789992139 1.845411384 1.910418019 1.876578874)
5(1.822051818 1.811951778 1.867321486 1.933040948 1.901075728)
5(1.845680255 1.832674513 1.889346342 1.957133327 1.923823659)
5(1.868978308 1.853816145 1.912819808 1.979567043 1.94928451)
5(1.89337623 1.875368579 1.934913901 2.004264893 1.977350924)
5(1.917476219 1.896029287 1.958210012 2.031240812 2.005058938)
5(1.941837517 1.91887888 1.981081013 2.057715235 2.032638844)
5(1.964332458 1.937751719 2.00343814 2.085965375 2.056933332)
5(1.988215457 1.962543377 2.030958542 2.114638348 2.081973849)
5(2.014413475 1.98588458 2.059046112 2.142120607 2.106748158)
5(2.040280787 2.009031448 2.088893116 2.168051922 2.133214848)
5(2.067809529 2.036227349 2.116947921 2.192871973 2.160575552)
5(2.095329878 2.063740878 2.146354397 2.218929338 2.187822444)
5(2.123469694 2.093020407 2.174165219 2.244165533 2.211953248)
5(2.151507084 2.122010832 2.199676137 2.266387253 2.232199068)
5(2.181855874 2.148215977 2.219907894 2.286708102 2.250367552)
5(2.203569857 2.169634139 2.240110308 2.305997885 2.268222825)
5(2.22243109 2.18820001 2.257661583 2.321557828 2.284282587)
5(2.233283289 2.202824705 2.269364129 2.331021287 2.295668963)
5(2.235834166 2.21210336 2.277433593 2.340015455 2.307228533)
5(2.228196983 2.217211467 2.283160769 2.34736136 2.322768342)
5(2.215901964 2.219665267 2.284884882 2.354414484 2.338372898)
5(2.196874128 2.216683319 2.284713171 2.361962715 2.355728068)
5(2.169752955 2.210544729 2.283853889 2.369832862 2.371646242)
5(2.128838846 2.196612528 2.283734222 2.376620731 2.381003628)
5(1.961291986 2.150248897 2.2727585 2.373248861 2.39841543)
5(1.104212909 0.3511279159 1.408904922 2.098683142 2.017813515)
)


60
(
5(1.559685285 1.45697156 1.675561826 1.687708374 1.722389025)
5(1.550522004 1.529349355 1.612768433 1.662342094 1.635329046)
5(1.558850798 1.57159186 1.599015652 1.662521962 1.605455257)
5(1.577106759 1.598332049 1.618151006 1.67887803 1.612939409)
5(1.613078837 1.621880948 1.652964887 1.702150818 1.646484503)
5(1.649046352 1.643010895 1.682007877 1.722556327 1.67718267)
5(1.673425053 1.658789177 1.699859614 1.740141304 1.695554584)
5(1.688692766 1.673938581 1.711372633 1.751790027 1.704947953)
5(1.70303314 1.686670499 1.721202187 1.763714131 1.713188441)
5(1.716116331 1.699787292 1.731752445 1.775716204 1.726414675)
5(1.728904771 1.711612197 1.745360318 1.789911646 1.739824115)
5(1.742331759 1.723016654 1.758647452 1.801774223 1.752476632)
5(1.755971931 1.7356284 1.770874467 1.81442284 1.766043029)
5(1.768769948 1.746893949 1.782723527 1.827262516 1.778917862)
5(1.780012294 1.75760062 1.794397957 1.839913031 1.790892422)
5(1.789456451 1.767464026 1.806577317 1.851906872 1.80354713)
5(1.801714597 1.77825709 1.818626605 1.865264123 1.81695215)
5(1.813340934 1.789161103 1.829355539 1.879851111 1.829422467)
5(1.823833342 1.799594866 1.843105452 1.892127448 1.842486392)
5(1.835370899 1.81143961 1.854726234 1.904897334 1.854958668)
5(1.845721657 1.822136637 1.866343655 1.918368518 1.869639392)
5(1.85743737 1.83343151 1.8790925 1.931230992 1.883344121)
5(1.868571485 1.845434678 1.892694187 1.945545199 1.897202575)
5(1.880962464 1.857808911 1.905270678 1.95894911 1.910637123)
5(1.892964687 1.868843387 1.917444947 1.972324882 1.923321738)
5(1.90548407 1.881587009 1.931030683 1.986395423 1.937214594)
5(1.917606789 1.891363136 1.943550413 2.000107264 1.951171759)
5(1.929111713 1.904677301 1.957420522 2.015285251 1.96438828)
5(1.943307779 1.916580416 1.970048636 2.028027059 1.978810579)
5(1.956393601 1.928660848 1.983166924 2.042089945 1.99195432)
5(1.97004252 1.941821318 1.997525061 2.056179729 2.006842565)
5(1.983121928 1.954112118 2.009226641 2.068876242 2.021440881)
5(1.996767784 1.964275507 2.021936415 2.083309481 2.03504948)
5(2.009795093 1.977655587 2.03486183 2.096944585 2.049737488)
5(2.023203536 1.988861581 2.045855737 2.110528974 2.065270771)
5(2.03445993 2.000052088 2.058740955 2.124030381 2.080963824)
5(2.047663074 2.011060166 2.070503029 2.138012581 2.098118974)
5(2.061346216 2.021651781 2.082563904 2.153829911 2.117612662)
5(2.074298517 2.032297038 2.094808328 2.170050162 2.136807862)
5(2.08715534 2.041955975 2.1069054 2.187677039 2.157765979)
5(2.100149813 2.053186611 2.121636048 2.206595218 2.179195559)
5(2.114995998 2.065855116 2.137361988 2.227786279 2.203279052)
5(2.130985105 2.079496475 2.155242549 2.249798937 2.230371238)
5(2.148309298 2.094221496 2.174913826 2.273610023 2.259204441)
5(2.167458211 2.110312069 2.197233579 2.299804013 2.290072181)
5(2.187260855 2.130289807 2.22079239 2.326101185 2.319965472)
5(2.206897435 2.150872237 2.244422687 2.353975144 2.350135523)
5(2.225677351 2.172575736 2.268611255 2.381491689 2.377790111)
5(2.23944048 2.191618251 2.291908945 2.406281152 2.401082174)
5(2.252453515 2.210626341 2.314287234 2.428032579 2.421605273)
5(2.259460017 2.224012259 2.333688159 2.445082861 2.436951732)
5(2.25397728 2.232274718 2.347625584 2.456678368 2.449185494)
5(2.236002509 2.235155691 2.356572797 2.464848498 2.45800053)
5(2.202898882 2.231708187 2.361223715 2.469224729 2.46178824)
5(2.15552376 2.222277209 2.361704306 2.468916683 2.46265315)
5(2.095427796 2.204101591 2.354747411 2.465556499 2.461780701)
5(2.019045278 2.174563504 2.34165638 2.456693543 2.454176904)
5(1.90150308 2.120198603 2.317812286 2.439428504 2.442748952)
5(1.469831953 1.844893412 2.175982811 2.400245041 2.452126081)
5(-0.2700165674 -0.32614972 1.251400789 2.054887203 1.685779775)
)


60
(
5(1.720920172 1.646323257 1.809518442 1.838513462 1.833386869)
5(1.742683762 1.713285177 1.78428094 1.832929005 1.787165269)
5(1.760626849 1.753022599 1.786204748 1.840148676 1.775230051)
5(1.781710774 1.776429372 1.804754023 1.85560709 1.786534811)
5(1.809443778 1.794960901 1.829331984 1.873630892 1.809162873)
5(1.836694913 1.812013257 1.850686764 1.890948273 1.831507362)
5(1.855659928 1.82666974 1.866265176 1.904106284 1.84648728)
5(1.869518587 1.838346671 1.876300919 1.914657184 1.856054021)
5(1.880271279 1.849569963 1.886265829 1.925847185 1.864893747)
5(1.891871335 1.860130983 1.895171202 1.937035423 1.875779519)
5(1.903708263 1.870445601 1.906816952 1.948141519 1.886909913)
5(1.914370585 1.880839485 1.916885111 1.958497917 1.898696491)
5(1.925207129 1.889941352 1.927708557 1.970250369 1.910452003)
5(1.934151106 1.899035719 1.937580513 1.981081137 1.920049681)
5(1.944904944 1.907680928 1.948043293 1.991905465 1.932119902)
5(1.95415336 1.917531156 1.958431713 2.001750638 1.94248697)
5(1.962668298 1.925876676 1.967601081 2.014381277 1.95383268)
5(1.972787905 1.934210494 1.97821265 2.023838438 1.963874925)
5(1.98027536 1.94369105 1.987999776 2.034437554 1.97519195)
5(1.990283047 1.952574906 1.996947095 2.045072119 1.98644688)
5(1.999132053 1.9604455 2.007501073 2.056692734 1.997244151)
5(2.006831929 1.969994811 2.017078196 2.06721774 2.007359925)
5(2.016070914 1.978681024 2.027115976 2.07780279 2.016959141)
5(2.025895941 1.987022709 2.035333583 2.087854676 2.02689762)
5(2.03438936 1.995537803 2.045742376 2.098228316 2.038662567)
5(2.044133415 2.004075789 2.055378402 2.108232618 2.048830963)
5(2.052696886 2.012420022 2.065025671 2.118094293 2.05791033)
5(2.061306658 2.021478755 2.07371523 2.127944584 2.068229233)
5(2.069974213 2.029483988 2.082164938 2.13657761 2.077204585)
5(2.078443307 2.036701947 2.091067021 2.146125356 2.087810541)
5(2.086744496 2.044813582 2.099468127 2.154921514 2.09718162)
5(2.095344694 2.052355537 2.105451633 2.163464532 2.107274405)
5(2.103361502 2.059008649 2.113952569 2.171257265 2.115712916)
5(2.111021767 2.065371042 2.120838222 2.179761521 2.126231505)
5(2.118518725 2.070942449 2.12755212 2.187702786 2.135104767)
5(2.125436194 2.077062973 2.134043618 2.19656063 2.145914364)
5(2.13341328 2.082854356 2.139603336 2.204964799 2.156828745)
5(2.140763339 2.087749035 2.146380376 2.213665571 2.169229788)
5(2.148265712 2.093087633 2.153256825 2.223453624 2.183503082)
5(2.156688005 2.098960376 2.160403656 2.235248864 2.198486156)
5(2.166429679 2.105572059 2.168607067 2.24880213 2.216490373)
5(2.177367646 2.112934641 2.178302509 2.264324335 2.236107139)
5(2.190048203 2.121318597 2.18991256 2.281787853 2.257782145)
5(2.202956045 2.130791979 2.204088613 2.301631503 2.283834512)
5(2.216257518 2.142372529 2.220718989 2.323869583 2.313271181)
5(2.230844516 2.155778458 2.238725289 2.349374573 2.343632805)
5(2.243970689 2.170366672 2.25986124 2.376680342 2.374454336)
5(2.255524546 2.187771464 2.281816958 2.403875542 2.404560801)
5(2.264154976 2.203491564 2.300792667 2.43084035 2.434670567)
5(2.271040314 2.21518784 2.321255485 2.456053244 2.458943815)
5(2.269271396 2.222078023 2.339365405 2.476405146 2.479736084)
5(2.258698515 2.22297797 2.351221502 2.492340269 2.494208142)
5(2.233855205 2.213050257 2.357589271 2.501518082 2.50141734)
5(2.191455531 2.19241806 2.356300242 2.504364723 2.50534891)
5(2.128830683 2.161381481 2.34522041 2.500226558 2.504578555)
5(2.041074774 2.111480663 2.324004025 2.491187624 2.498273648)
5(1.924089347 2.043206049 2.290118205 2.473008294 2.488016989)
5(1.757526514 1.936221313 2.224241772 2.438563083 2.469012487)
5(1.120948988 1.416162428 1.776049896 2.285835889 2.442039827)
5(-0.4313499544 -0.1549060968 0.4175609746 1.500665624 1.701243502)
)


60
(
5(1.836830741 1.77440649 1.904539499 1.94063541 1.912174719)
5(1.87043864 1.834723497 1.897837559 1.943686067 1.887090997)
5(1.892637662 1.870746307 1.905355276 1.953838462 1.883431879)
5(1.912911471 1.889911947 1.922237808 1.967470978 1.894083425)
5(1.935474896 1.90559978 1.941709361 1.982479906 1.91240624)
5(1.957167556 1.920711513 1.958508259 1.996244553 1.929912602)
5(1.972406915 1.932258686 1.971519 2.007619935 1.941810998)
5(1.984123396 1.942460409 1.980318462 2.017673955 1.951524431)
5(1.993950425 1.952321058 1.989296307 2.027230161 1.959703513)
5(2.003921539 1.960457535 1.997541156 2.036930325 1.969175547)
5(2.013828273 1.970219859 2.007468484 2.046682111 1.979362532)
5(2.02320109 1.977875333 2.016215055 2.056768332 1.98947549)
5(2.031989799 1.986230025 2.026030568 2.066043583 1.999203208)
5(2.039317532 1.993905677 2.033616798 2.075724053 2.009079581)
5(2.048148338 2.001850739 2.043082915 2.085108569 2.018146403)
5(2.05633264 2.00918636 2.050217175 2.094198802 2.027307299)
5(2.063713542 2.01654963 2.059984723 2.103703778 2.036708654)
5(2.07067273 2.024089434 2.068061393 2.111156281 2.04607133)
5(2.078677437 2.031208767 2.075974376 2.122094058 2.055146975)
5(2.085399014 2.038351448 2.084455775 2.13013751 2.063737214)
5(2.092482892 2.044537606 2.091586485 2.139132529 2.072363374)
5(2.09990202 2.052155364 2.099990148 2.14760569 2.080699111)
5(2.105909217 2.058796303 2.107090355 2.15474157 2.089095166)
5(2.112902692 2.064955776 2.113937651 2.163547828 2.097327403)
5(2.119897672 2.071066887 2.121914652 2.171155536 2.105064971)
5(2.125683518 2.076355077 2.128454507 2.177863171 2.11180569)
5(2.132691667 2.083622653 2.134520252 2.184879388 2.119482851)
5(2.138074451 2.089087139 2.140550982 2.191635242 2.126358547)
5(2.143974544 2.093819776 2.146629121 2.197848061 2.132608263)
5(2.149283142 2.098825677 2.152161939 2.20393492 2.140113298)
5(2.15544915 2.104577559 2.156672041 2.209488406 2.14644068)
5(2.160535905 2.10839468 2.160491085 2.214342458 2.151423305)
5(2.164971364 2.112063714 2.164537866 2.219596016 2.158125032)
5(2.169848744 2.1153885 2.168879773 2.224019182 2.164463702)
5(2.173910869 2.118773039 2.17204871 2.22817341 2.170451611)
5(2.178507174 2.122035159 2.175053342 2.232817614 2.176937192)
5(2.183205615 2.123808758 2.17724458 2.237259597 2.184223093)
5(2.188104601 2.126378571 2.180290499 2.241924879 2.192241325)
5(2.193650951 2.12940738 2.182940485 2.248085359 2.201717212)
5(2.200732374 2.13236459 2.186552044 2.255856073 2.212505367)
5(2.208387191 2.136083894 2.191064867 2.26478637 2.225175257)
5(2.216960291 2.14020561 2.197009026 2.275542393 2.238285289)
5(2.226031285 2.145235682 2.204408216 2.288140079 2.256029468)
5(2.235049198 2.151600511 2.21427796 2.303083838 2.277567472)
5(2.244116373 2.159928585 2.226124262 2.321886964 2.303665531)
5(2.254832037 2.170239854 2.241363872 2.342860874 2.329816938)
5(2.260847612 2.181946771 2.258278203 2.366954463 2.360076658)
5(2.269254473 2.195816024 2.274435429 2.392816792 2.390715216)
5(2.276538543 2.206185249 2.291058953 2.420286255 2.419590465)
5(2.279919601 2.214006442 2.308674277 2.445862424 2.447352141)
5(2.280027643 2.218172901 2.322940009 2.468703563 2.471760258)
5(2.273592022 2.213908914 2.329760035 2.485222153 2.48925215)
5(2.257458659 2.200405243 2.328748081 2.494731009 2.501690666)
5(2.225963096 2.173000508 2.313061274 2.494640943 2.506747022)
5(2.179769725 2.127670044 2.283205152 2.484602611 2.505020996)
5(2.098713231 2.057083265 2.23820172 2.463470772 2.495309882)
5(1.993344443 1.959710003 2.164770492 2.423685673 2.4770051)
5(1.828696513 1.810100453 2.04796062 2.355208057 2.446771733)
5(1.199999309 1.133415138 1.388900601 2.03331274 2.350744539)
5(-0.4853057993 -0.4720374054 0.2701955657 1.03631797 1.420121453)
)


60
(
5(1.924105061 1.867409746 1.975081889 2.013331699 1.970894555)
5(1.962247862 1.919453823 1.976981467 2.020982461 1.956889539)
5(1.986320145 1.951163701 1.987540318 2.031731026 1.957688348)
5(2.003676777 1.968530438 2.002252596 2.043946394 1.967138926)
5(2.021710972 1.982770291 2.018309278 2.056112394 1.982445332)
5(2.039892028 1.994442363 2.03273308 2.068377091 1.997008555)
5(2.05354097 2.004543278 2.042710998 2.077681759 2.007067867)
5(2.062911609 2.013602064 2.051538843 2.087214919 2.016296178)
5(2.072259797 2.021672655 2.058359339 2.095325429 2.02352487)
5(2.0800997 2.029692773 2.067173877 2.104427853 2.032393105)
5(2.088906173 2.03684562 2.074449582 2.112462335 2.04104945)
5(2.096342223 2.044288086 2.083238397 2.121772753 2.050028941)
5(2.104159947 2.051013199 2.090333322 2.129731242 2.058725719)
5(2.110977545 2.057666098 2.098531226 2.138597604 2.067209463)
5(2.118083539 2.064325421 2.105475319 2.14627033 2.075321386)
5(2.124051402 2.070727901 2.113230576 2.154886498 2.083822804)
5(2.130923895 2.077203668 2.11999416 2.162022771 2.091332099)
5(2.136643387 2.082980048 2.126848787 2.170448712 2.099452148)
5(2.143238744 2.088651274 2.133996663 2.177604021 2.106758947)
5(2.14860587 2.094833132 2.140382782 2.184927896 2.113858509)
5(2.154187736 2.099697403 2.146792259 2.191981395 2.121481078)
5(2.160358995 2.106267136 2.153486892 2.198649142 2.127719314)
5(2.164961582 2.110561726 2.158715791 2.205170788 2.134440961)
5(2.170159959 2.115491169 2.164395089 2.211378212 2.14066732)
5(2.174572786 2.120709696 2.169932157 2.216161257 2.146908265)
5(2.179603558 2.124612372 2.173899503 2.221672214 2.15252875)
5(2.183544596 2.129113727 2.178839593 2.227478667 2.157968487)
5(2.18778093 2.13252879 2.182984199 2.231679541 2.162753246)
5(2.192540976 2.135514097 2.186630199 2.235272007 2.16701036)
5(2.195422876 2.139780521 2.190316409 2.239205667 2.171345501)
5(2.1979022 2.141825994 2.192310112 2.241602209 2.174463345)
5(2.201436405 2.143488876 2.19402627 2.244859833 2.178361469)
5(2.204989047 2.145829837 2.196770901 2.247564107 2.181757621)
5(2.207929617 2.14764179 2.198132044 2.249120177 2.185827052)
5(2.210421071 2.148904482 2.197942834 2.251336639 2.188865257)
5(2.213584498 2.149345573 2.198609859 2.253148349 2.192461728)
5(2.216323316 2.149556553 2.199774499 2.254812653 2.196720878)
5(2.220300909 2.150782898 2.20008753 2.257143685 2.201104763)
5(2.224979485 2.151689019 2.200526833 2.260424675 2.206486027)
5(2.230016046 2.152815118 2.202068872 2.263837819 2.212826568)
5(2.2366657 2.155001139 2.203744915 2.268873303 2.220642257)
5(2.243482483 2.157489284 2.206843772 2.275982406 2.230987874)
5(2.249486566 2.161313785 2.211264637 2.284377939 2.243144639)
5(2.256081406 2.166666878 2.218286028 2.295437743 2.258881092)
5(2.261758401 2.173774028 2.226920201 2.308814793 2.27788633)
5(2.267606721 2.181672481 2.237614608 2.324711888 2.300818407)
5(2.272897082 2.190583948 2.249658958 2.344810091 2.325599169)
5(2.278798078 2.199189307 2.263084828 2.36655667 2.352999319)
5(2.282740171 2.20811548 2.277135652 2.391255576 2.38253975)
5(2.284131835 2.213204656 2.29071606 2.415580702 2.408048599)
5(2.286839109 2.216050614 2.301362892 2.43678535 2.433065079)
5(2.285404237 2.214709161 2.306060627 2.454075465 2.453726623)
5(2.280831524 2.20775402 2.300672329 2.459214593 2.464140966)
5(2.264143259 2.187890198 2.279338573 2.452486519 2.471439467)
5(2.238390318 2.150741805 2.237627573 2.431677471 2.466672532)
5(2.195232779 2.092876338 2.171105592 2.388619429 2.450868595)
5(2.127096741 2.004415059 2.071268653 2.318836659 2.418356798)
5(2.019220779 1.86577092 1.911097406 2.197539112 2.353439464)
5(1.551193331 1.2389579 1.125592878 1.662590863 2.072262138)
5(0.467570638 -0.4850064576 -0.9384855191 0.0783225632 0.8737530413)
)


60
(
5(1.993092134 1.936501739 2.028463154 2.067835761 2.01490207)
5(2.030993516 1.981565944 2.03523408 2.077366635 2.007876218)
5(2.054090923 2.010381142 2.046778682 2.087847963 2.010788665)
5(2.069274093 2.025597232 2.060128125 2.098555394 2.020363065)
5(2.085077182 2.037971482 2.073455244 2.109560959 2.032527747)
5(2.10017366 2.047749998 2.085390463 2.119470457 2.044608255)
5(2.111597518 2.056282307 2.09401657 2.128177927 2.054412263)
5(2.119812571 2.06424005 2.101902093 2.136287342 2.061842926)
5(2.128015034 2.070997452 2.10826049 2.143997269 2.069066498)
5(2.134798954 2.078325895 2.116117386 2.151787504 2.076787033)
5(2.142159251 2.084376103 2.122256822 2.159506167 2.08484449)
5(2.148709842 2.091161642 2.130372721 2.167309049 2.092581119)
5(2.155226585 2.096603902 2.136067178 2.174641276 2.100774458)
5(2.161392088 2.103069264 2.143836446 2.182382966 2.107719695)
5(2.166811807 2.108266378 2.14932062 2.188938528 2.115488761)
5(2.172928691 2.114217162 2.156281137 2.196594817 2.122123925)
5(2.177856516 2.118991935 2.161938965 2.202972948 2.129694068)
5(2.183647954 2.124221121 2.16830824 2.210142278 2.135438686)
5(2.188018403 2.129184179 2.173779749 2.216111543 2.142687295)
5(2.193291167 2.133965137 2.179653795 2.22244244 2.14801706)
5(2.197298223 2.138620875 2.184597937 2.227974716 2.15493906)
5(2.201218271 2.1429904 2.189765918 2.233571325 2.159012307)
5(2.206365812 2.146718143 2.193609249 2.23811312 2.165566436)
5(2.209077415 2.151185858 2.198765423 2.243345344 2.169726396)
5(2.213495256 2.15343743 2.201876726 2.247100326 2.174367159)
5(2.216269474 2.157106294 2.205977425 2.251728326 2.178940645)
5(2.219160107 2.160278283 2.209296629 2.254781372 2.181872078)
5(2.222589538 2.162352642 2.211087622 2.257112992 2.18549131)
5(2.224221069 2.165047097 2.213803246 2.259853325 2.188505012)
5(2.226941218 2.166543322 2.214626045 2.26121974 2.19124828)
5(2.228810058 2.167280949 2.21556742 2.263660704 2.193573835)
5(2.230613312 2.168512256 2.217122368 2.264983933 2.195069772)
5(2.232538949 2.168805865 2.217351212 2.264110831 2.196952607)
5(2.23354282 2.168856019 2.216506021 2.265169805 2.198722087)
5(2.235875243 2.168740198 2.21619523 2.265492866 2.198951137)