/*--------------------------------*- C++ -*----------------------------------*\
| =========                 |                                                 |
| \\      /  F ield         | OpenFOAM: The Open Source CFD Toolbox           |
|  \\    /   O peration     | Version:  2.3.1                                 |
|   \\  /    A nd           | Web:      www.OpenFOAM.org                      |
|    \\/     M anipulation  |                                                 |
\*---------------------------------------------------------------------------*/
FoamFile
{
    version     2.0;
    format      ascii;
    class       dictionary;
    location    "constant";
    object      PM26;
}
// * * * * * * * * * * * * * * * * * * * * * * * * * * * * * * * * * * * * * //

PM26_table
60
(

60
(
5(0.008681764502 0.001413300239 0.01491660796 0.01460955002 0.02831416097)
5(0.04534714304 0.005759537908 0.008310499559 0.008740483212 0.01315144448)
5(-0.005109160703 0.01653237499 0.009314842635 0.005471905973 0.004747259113)
5(-0.03224716423 0.02763360575 0.01264212014 0.0111680261 0.03247327251)
5(-0.0558140971 0.03080308816 0.01127621448 0.01650048562 0.01291240371)
5(-0.01961652252 0.02586491131 0.009532299855 0.01602593488 0.016593387)
5(0.04263763618 0.01327082709 0.01589195477 0.01814808486 0.0276610881)
5(-0.03205879193 0.01731994129 0.01970700891 0.02171396478 0.01600110761)
5(-0.1051479775 0.03811660866 0.0197713804 0.02625064518 0.03322378262)
5(-0.07639995495 0.04548481037 0.02737274526 0.02868897141 0.0369912292)
5(-0.03179786624 0.05439590444 0.03096566803 0.03445970991 0.04036212901)
5(0.05268609794 0.04995571505 0.03358644243 0.04074528148 0.04289827714)
5(0.0582414401 0.03776283705 0.04003460942 0.04699502271 0.05146532412)
5(0.0334726773 0.0430954769 0.04572837541 0.05078825089 0.05574290582)
5(0.03288302967 0.04378470426 0.0501716496 0.05918624298 0.06218220592)
5(0.02995603159 0.04427954854 0.05664635632 0.06541657185 0.0709260847)
5(0.04422855994 0.05993481204 0.06733493901 0.07766542425 0.08127063144)
5(0.05809749126 0.07256315845 0.08151987819 0.08707574072 0.08657218037)
5(0.06852742222 0.08655221666 0.089190027 0.09606858768 0.09254945637)
5(0.07942246961 0.1001227676 0.100421267 0.1093260853 0.104705394)
5(0.09012665986 0.1099552117 0.1113038308 0.1195252387 0.1185353156)
5(0.104447427 0.1262422566 0.1259206233 0.1304112217 0.1308088114)
5(0.1205836684 0.1447276672 0.1431368113 0.1539697206 0.1508290398)
5(0.1375851038 0.1659813598 0.1628248077 0.1717212756 0.1667400616)
5(0.1577318399 0.1841099461 0.1869404488 0.1963932517 0.18891656)
5(0.1792313017 0.207888631 0.2140336093 0.2226859892 0.2102261355)
5(0.2064848341 0.2405867601 0.2386380974 0.2516036922 0.2367635846)
5(0.2383500879 0.2788941439 0.2725021542 0.2823214038 0.265773405)
5(0.2756342118 0.3153838844 0.3035485954 0.3151407535 0.2999071033)
5(0.3146843966 0.3594873165 0.3427208446 0.3520350468 0.3362407869)
5(0.3607252713 0.4067117278 0.3892107596 0.3979725168 0.3713798955)
5(0.4078874275 0.4551649348 0.4307459975 0.4323824759 0.4030230568)
5(0.4622240957 0.5156687835 0.4885144956 0.48801347 0.4692541429)
5(0.5248958845 0.5802189529 0.5465657066 0.5318111657 0.4885552211)
5(0.5906041017 0.6457325009 0.607457429 0.5917435298 0.5615599073)
5(0.6639879261 0.7256435955 0.6778789573 0.6428047824 0.6059578642)
5(0.7361967268 0.7801371271 0.7063439392 0.6970456181 0.626290349)
5(0.8211789338 0.8745481112 0.7945148002 0.7528284301 0.6241753711)
5(0.9128643299 0.9532841241 0.8808965945 0.8208866121 0.7579315019)
5(1.009938522 1.040640139 0.9593702448 0.8510714389 0.3489740635)
5(1.089762555 1.108722473 0.9994488798 0.8710115447 0.7344228643)
5(1.180782417 1.19226136 1.058269492 0.7207795393 0.8902506842)
5(1.27748819 1.267469411 1.117431718 0.7635254866 1.120980836)
5(1.390298689 1.403738666 1.275880854 0.9851685344 1.225556381)
5(1.484596143 1.475548752 1.22358924 1.094098351 1.303861157)
5(1.582040483 1.561312344 1.051339948 1.22576868 1.398844553)
5(1.668797981 1.443027068 0.8799322472 1.438897234 1.501870577)
5(1.71658414 1.410867711 1.165674338 1.582309852 1.611456405)
5(1.872849253 1.326374321 1.325550718 1.699911576 1.7179388)
5(1.613168086 1.034368789 1.582950573 1.815497793 1.8150537)
5(1.421711243 1.459885212 1.70886299 1.947407316 1.906371812)
5(1.451908944 1.758349978 1.836233047 2.074742771 1.989031312)
5(1.836664695 1.978726939 1.975264089 2.206596336 2.0638552)
5(2.124419923 2.168064837 2.139308294 2.338957262 2.146102574)
5(2.421562926 2.388064374 2.325916902 2.495700686 2.213048564)
5(2.909005933 2.645777893 2.548337773 2.640563441 2.281699309)
5(3.741151029 3.005077784 2.838692064 2.829096509 2.344150026)
5(5.133280985 3.77442977 3.272901344 3.193257244 2.363431583)
5(6.851924304 5.199818809 4.188555028 2.355193557 2.547028373)
5(4.007222141 4.683133517 3.360297955 3.379151328 3.302552792)
)


60
(
5(0.01313650181 0.01303573034 0.02304343817 0.02381598022 0.03818293775)
5(0.008891505511 0.009038850152 0.01433140778 0.01734006687 0.02182851388)
5(-0.008223148453 0.01064862372 0.01279300089 0.01510843349 0.01110475152)
5(-0.02104435577 0.01227621902 0.01554469066 0.01413513566 0.02935047749)
5(-0.03985425341 0.01326705614 0.01700256648 0.01907957796 0.02524005714)
5(-0.06115209159 0.0144041697 0.01416641222 0.02148536002 0.02345622916)
5(0.01208272146 0.01616191991 0.01690321063 0.02211280131 0.03307426295)
5(0.01179583432 0.01888064163 0.02262991428 0.02709888117 0.02744053824)
5(-0.07309554374 0.02257612227 0.02437877149 0.03222433613 0.03627194628)
5(-0.101165673 0.02362410156 0.03069607264 0.03621419457 0.04277029745)
5(-0.1094255557 0.02588650119 0.03586413018 0.04158645377 0.04883370126)
5(-0.036428265 0.0364193305 0.04016483473 0.04800989206 0.05249712807)
5(0.02876389404 0.04225828065 0.04590191135 0.05559022601 0.05996964584)
5(0.03518004849 0.04887354778 0.05279266796 0.06064836793 0.06527071586)
5(0.03944882659 0.0551691791 0.05908291622 0.06903012469 0.07183807068)
5(0.03788972447 0.05446511497 0.06487056537 0.07534562152 0.0784698104)
5(0.04475542026 0.06436256881 0.07197146419 0.08481555166 0.08746117164)
5(0.05796860711 0.07601745891 0.08491909444 0.09575323484 0.09595031169)
5(0.07045400969 0.08990168738 0.09537469574 0.1057671813 0.1028802818)
5(0.08172084787 0.1056369432 0.1077449245 0.11893296 0.1127270374)
5(0.09304342175 0.1178524133 0.1192088917 0.1312752043 0.1256102042)
5(0.1067515198 0.133184268 0.1336117321 0.1420161841 0.1368523303)
5(0.1233240972 0.1512398356 0.1499131941 0.1610904497 0.153967326)
5(0.1400587061 0.1730791467 0.1694207703 0.1804556715 0.1714139362)
5(0.1605761052 0.1944582112 0.1922015863 0.2042746891 0.1929195603)
5(0.1840155514 0.2173155846 0.2196416037 0.23214196 0.2168036342)
5(0.211934601 0.2476899995 0.2463316962 0.2626080992 0.2450192386)
5(0.2416347488 0.2854181848 0.2808077382 0.2967601279 0.2766379521)
5(0.2792135251 0.3255664216 0.3167204286 0.3338702824 0.3130783503)
5(0.3197326763 0.3714924173 0.3579787195 0.3734564865 0.3527800834)
5(0.3671280887 0.4224151814 0.4076713826 0.4236046105 0.3982638463)
5(0.4186074656 0.4763613563 0.4572563213 0.4708864286 0.439435604)
5(0.4752032833 0.5384254152 0.5164589853 0.5274702017 0.5004973641)
5(0.5398418508 0.6070017881 0.583166164 0.5866747119 0.5482531872)
5(0.6108800146 0.6784385014 0.6496796971 0.6516744698 0.6149043831)
5(0.6876959785 0.7624945645 0.7342874571 0.7224328123 0.6815017072)
5(0.7716321971 0.8361070359 0.7922426569 0.7868138372 0.7426173975)
5(0.8591111106 0.9303387075 0.8728990191 0.8673324382 0.7824434281)
5(0.9566873282 1.021160699 0.9630748792 0.9402405544 0.8795125258)
5(1.064718882 1.120188718 1.062157002 1.02427043 0.936133786)
5(1.169115514 1.211259121 1.13725973 1.100977187 1.007512976)
5(1.274061196 1.311774173 1.223245866 1.164811858 1.089195537)
5(1.387076618 1.403981006 1.302402975 1.160722418 1.182974448)
5(1.508779542 1.522390922 1.449360735 1.243828397 1.291626734)
5(1.635800115 1.630476149 1.517042926 1.33806185 1.39807274)
5(1.7567342 1.754195999 1.570482815 1.453367572 1.511574626)
5(1.889492499 1.844887818 1.501739113 1.578909141 1.630768192)
5(2.020520879 1.877237993 1.544635821 1.70880426 1.756380174)
5(2.182133902 2.018960966 1.662731089 1.848487671 1.885640254)
5(2.338021634 1.853673767 1.803933309 1.993061178 2.009913413)
5(2.465924745 1.991152315 1.960500971 2.153177294 2.133210411)
5(2.301754431 2.173942984 2.132069532 2.315269644 2.248272526)
5(2.363969788 2.38646153 2.31545139 2.480186513 2.352991542)
5(2.597705827 2.617798982 2.519444165 2.64212794 2.459218314)
5(2.902315882 2.880450093 2.737984201 2.814438909 2.550591831)
5(3.38257202 3.186308402 2.981224683 2.970998588 2.633043907)
5(4.126808061 3.565699775 3.264200484 3.140645313 2.707188748)
5(5.041282566 4.176560638 3.639691065 3.339609275 2.753496167)
5(6.06405955 5.207298802 4.511997715 3.144275408 2.9034578)
5(3.912125378 3.523551417 2.203559714 2.857779507 3.349224156)
)


60
(
5(0.01846508896 0.02033235209 0.03415182528 0.03921857664 0.05918700483)
5(0.01448082725 0.01950609321 0.02688519417 0.0347789085 0.04496796809)
5(0.01350083775 0.02057845683 0.02544057441 0.0349937314 0.0423260987)
5(0.01444515597 0.02310432018 0.02775094334 0.03839608263 0.04595405594)
5(0.01683060691 0.02675986666 0.0326098574 0.04420950755 0.05368917789)
5(0.02054132028 0.03140763914 0.03899493392 0.05112847485 0.06274860721)
5(0.02480997159 0.03707186269 0.04564400099 0.05913756512 0.07094309622)
5(0.02944878617 0.04344836998 0.05282841767 0.06738393833 0.07847282468)
5(0.03463946816 0.05047736679 0.06041645537 0.07567068543 0.0860073142)
5(0.04098374585 0.05845906238 0.06891970099 0.08460744088 0.09356513239)
5(0.04791264045 0.06729315209 0.07796506134 0.09368019475 0.1012840628)
5(0.05604552502 0.07659957249 0.08762877338 0.1026086222 0.1085266127)
5(0.06488372058 0.08647685673 0.0973904082 0.1111972559 0.1148272297)
5(0.07423045397 0.09679519237 0.1070978621 0.1197652254 0.1206536279)
5(0.0844520454 0.1074278934 0.1168480345 0.1279298626 0.12606353)
5(0.09561806435 0.1187810433 0.1269321616 0.1361400804 0.1313118368)
5(0.1073931972 0.1307494372 0.1373575601 0.1445265714 0.1365819974)
5(0.1200010743 0.1433940463 0.1481620155 0.1532651368 0.142501165)
5(0.1338769586 0.156626474 0.1594032489 0.1626849629 0.1489449191)
5(0.1485460892 0.1710690264 0.1717248999 0.173183944 0.156581275)
5(0.1647147629 0.1868596828 0.1851579302 0.1847933671 0.1654964267)
5(0.1829959457 0.204228377 0.2001233306 0.198536601 0.176738185)
5(0.2031031855 0.2235268754 0.2172976362 0.214295252 0.1896936996)
5(0.2247288283 0.2454090424 0.237067067 0.2324776106 0.2055639877)
5(0.2496861651 0.2702933033 0.2593281001 0.254093104 0.2245018806)
5(0.2777145934 0.2982797699 0.2855783674 0.2791112166 0.2464651248)
5(0.309228713 0.3295910188 0.3152320578 0.3078166838 0.272381052)
5(0.3445140635 0.3651665391 0.3487332649 0.3404900131 0.3028514841)
5(0.38433739 0.4051554134 0.386611302 0.3774325218 0.3363520777)
5(0.4290759052 0.4494493661 0.4288841408 0.4187770766 0.3752715825)
5(0.4777865318 0.4982819136 0.4757796509 0.4645336363 0.4183498771)
5(0.5320421339 0.551895687 0.5273984903 0.5149066078 0.4661855717)
5(0.5916851553 0.6104714171 0.5834019939 0.5698832873 0.5179510552)
5(0.656181087 0.6737928126 0.6442469092 0.6288221517 0.5743556546)
5(0.7261830343 0.7414812864 0.7091499208 0.6921304361 0.6352032068)
5(0.799929048 0.8135429043 0.7779698203 0.7597567195 0.6990010625)
5(0.8789264308 0.8890443204 0.8509440216 0.8301846825 0.7670060763)
5(0.964660726 0.9688558929 0.9265875568 0.9039980012 0.8376199657)
5(1.053300877 1.051883057 1.006186216 0.9814482831 0.9108542646)
5(1.147535403 1.139268725 1.089300543 1.061738141 0.9875751124)
5(1.247069584 1.229559979 1.174708157 1.14556508 1.068581146)
5(1.353141182 1.325475091 1.264327532 1.232328408 1.153636308)
5(1.466475778 1.42492312 1.35801127 1.321156055 1.24188906)
5(1.586487462 1.528923432 1.45641292 1.41528313 1.333151549)
5(1.718532887 1.641092054 1.558913568 1.514430489 1.429239058)
5(1.859055515 1.762851659 1.66816771 1.619404868 1.531540901)
5(2.015363593 1.895453233 1.782917842 1.730929357 1.637939746)
5(2.180871041 2.038245756 1.908840347 1.849970551 1.751851252)
5(2.371346395 2.193777415 2.043543137 1.977277033 1.870269277)
5(2.57330904 2.360654438 2.188675486 2.1123921 1.992544008)
5(2.796611478 2.539645888 2.341648107 2.253645623 2.118153282)
5(3.031801626 2.729566773 2.504388372 2.397856246 2.24374261)
5(3.273162856 2.927405538 2.673815354 2.545742329 2.365143718)
5(3.508832111 3.129389402 2.846440422 2.693815958 2.481892627)
5(3.743912652 3.338614568 3.024819316 2.839627243 2.589364915)
5(3.975815665 3.552852617 3.201780414 2.974656909 2.686426743)
5(4.21429508 3.772230999 3.374104366 3.095568976 2.766666613)
5(4.470967786 4.004588013 3.547469216 3.205067991 2.832287674)
5(4.80166716 4.305530805 3.76481273 3.305799098 2.888968532)
5(4.924052684 4.110603648 3.99762516 3.489351024 3.067457063)
)


60
(
5(0.0230105585 0.02606006587 0.04321678693 0.05193765001 0.0756477758)
5(0.01881200552 0.02543837117 0.03643394853 0.04771283913 0.06313700573)
5(0.018270839 0.0271105156 0.03534067069 0.04833004023 0.06086280604)
5(0.01957773238 0.03034882116 0.03819528811 0.05248649481 0.06428276688)
5(0.02259868824 0.03485733619 0.04405011175 0.05905081488 0.07186842872)
5(0.02714243086 0.04058712767 0.0514421562 0.06690806789 0.08049492547)
5(0.03248256257 0.04729435884 0.0594391126 0.07562666901 0.08886610842)
5(0.0382981321 0.05483202854 0.06780887362 0.08439060804 0.09633803262)
5(0.04482593632 0.06298489284 0.07642031099 0.09310372717 0.103266506)
5(0.05209474963 0.07177559118 0.08535509945 0.1015562195 0.1098403912)
5(0.06032668984 0.08100671706 0.09464857822 0.109786847 0.1157386384)
5(0.06912765898 0.09056083241 0.1039154629 0.1173989226 0.1207003139)
5(0.07865414206 0.1004613189 0.1129420953 0.1245102486 0.1248859047)
5(0.08866594664 0.1103332001 0.1215662951 0.1309435884 0.1283288248)
5(0.09885867445 0.1202135169 0.1297971677 0.1368572994 0.1311743603)
5(0.1092756855 0.1299384712 0.1377289704 0.142416832 0.1337764323)
5(0.1206254586 0.1398712849 0.1455329697 0.1478313105 0.1363202912)
5(0.1320780762 0.1500108911 0.1533462745 0.1534551916 0.139152185)
5(0.1440865506 0.1605251038 0.1615791025 0.1593537809 0.1425831123)
5(0.1567510099 0.1716309802 0.1702800281 0.1661831233 0.1469665129)
5(0.1702187753 0.1835785842 0.1799698797 0.1740448589 0.1525371249)
5(0.1847582946 0.1965966863 0.1907695831 0.1831885463 0.1593975718)
5(0.2006031275 0.2110808484 0.203189719 0.1942463124 0.1683265267)
5(0.2183039796 0.2277021923 0.2174454677 0.2072094636 0.1798551228)
5(0.2383736814 0.2465005557 0.2341198139 0.2227122878 0.192930455)
5(0.2598279353 0.2677332109 0.2535171522 0.2408249211 0.2096163812)
5(0.284676483 0.2908743582 0.2757006678 0.2623595064 0.2291172019)
5(0.3125671635 0.317852234 0.3014544435 0.2874435618 0.2523753434)
5(0.3448971402 0.3479601547 0.3302758578 0.3158555098 0.2785672286)
5(0.3783187296 0.3820832356 0.3628098836 0.348020874 0.3081539971)
5(0.4179309443 0.4202625207 0.399610932 0.3839824623 0.3428451206)
5(0.4615820503 0.4616181705 0.4398738594 0.4238291164 0.3811990161)
5(0.5078067442 0.5068387675 0.4844524274 0.4675943149 0.4237877317)
5(0.5582919818 0.556998388 0.5329609637 0.5156215322 0.4697886679)
5(0.6136839554 0.6104414683 0.5846765725 0.5673742033 0.5206357103)
5(0.6741633066 0.6680549156 0.6408153417 0.6222953459 0.5738416362)
5(0.7363027613 0.729218163 0.7006742009 0.6807551035 0.6310700679)
5(0.8062794261 0.7940382981 0.7644987118 0.7429978855 0.6921061097)
5(0.8785769743 0.8629294173 0.8322746688 0.8091743284 0.7572900439)
5(0.958107501 0.9360294244 0.9027326157 0.8794257533 0.8272479153)
5(1.044661115 1.014590928 0.9775234355 0.9547198773 0.9042148847)
5(1.133917897 1.097627296 1.056951115 1.035208262 0.9822199656)
5(1.234715317 1.185994141 1.14219645 1.120016679 1.064627898)
5(1.339562997 1.282239672 1.2340516 1.209121554 1.147715937)
5(1.456609003 1.385679909 1.335071904 1.303137145 1.233174056)
5(1.582195336 1.499493743 1.442829832 1.401788637 1.322337497)
5(1.715011432 1.628307745 1.559472295 1.504152485 1.417631437)
5(1.861265311 1.770957868 1.686356177 1.613351567 1.518857687)
5(2.025976199 1.928299541 1.822022262 1.728470731 1.626264971)
5(2.211346435 2.102128886 1.964912661 1.850365395 1.739349099)
5(2.42003843 2.287110989 2.114900153 1.977630522 1.852463671)
5(2.646003545 2.483102266 2.270777925 2.110979091 1.970383707)
5(2.886876245 2.680122907 2.433149913 2.250305441 2.08723247)
5(3.13104154 2.880542754 2.597176922 2.386123463 2.201228005)
5(3.370026703 3.07807932 2.763454163 2.522082294 2.308159471)
5(3.596113208 3.272874315 2.925573287 2.652227174 2.406426813)
5(3.804529899 3.464061865 3.084567757 2.7708764 2.492370577)
5(3.997215682 3.655174018 3.243676256 2.877739233 2.56435813)
5(4.124725595 3.869757339 3.450975797 2.998044448 2.641989187)
5(3.524947175 3.120170119 3.392593715 3.088911366 2.661463022)
)


60
(
5(0.02696169243 0.0311889709 0.05086454057 0.0628493124 0.08860547379)
5(0.02276129116 0.03049838078 0.0445864111 0.05854359591 0.07757552362)
5(0.02210890042 0.03240051474 0.04364794485 0.05897062286 0.07478249674)
5(0.02388007903 0.03610449782 0.04663747641 0.06315634278 0.0781604857)
5(0.02727632427 0.04100214039 0.05260553973 0.06978981778 0.08450119782)
5(0.03232764465 0.04716326052 0.06041034337 0.07777978107 0.09193167141)
5(0.03845686666 0.05441662043 0.06885858604 0.08618525446 0.0995125446)
5(0.0449284298 0.06240165089 0.07747494395 0.09454561662 0.1061401598)
5(0.05206354919 0.07091706505 0.08616424185 0.1026132748 0.1119517382)
5(0.05975723807 0.07978113922 0.09478296992 0.1101414591 0.1169614247)
5(0.06830047765 0.08884781502 0.1033852055 0.1170389391 0.1211100773)
5(0.07719018891 0.09794824229 0.1115849996 0.1231790049 0.12442512)
5(0.08655458942 0.1069005777 0.1192751598 0.1285629325 0.1267552364)
5(0.09620523067 0.1156267342 0.1263263441 0.1331517053 0.1284369701)
5(0.1057817178 0.1240746195 0.1327967922 0.1370552794 0.1295011171)
5(0.1151853805 0.1322776938 0.1387544749 0.1403674647 0.1302828591)
5(0.1246786876 0.1400846066 0.1442616733 0.1434406067 0.130822929)
5(0.1346652141 0.1477390583 0.149513533 0.1463320187 0.1313876529)
5(0.1442152958 0.1555586913 0.1548803945 0.1495632059 0.1327538367)
5(0.1545319309 0.1635800122 0.1604731999 0.1532984622 0.1345504669)
5(0.1652640646 0.1719141836 0.1667640301 0.157945439 0.1373782551)
5(0.1752397232 0.1811937931 0.1739192339 0.1635692203 0.141011172)
5(0.1875381046 0.1914922155 0.1823647142 0.1705648817 0.1466680663)
5(0.2015784538 0.2030672588 0.1921195234 0.1792922412 0.1540589946)
5(0.2158610758 0.2160420991 0.203937721 0.1900063852 0.1636562521)
5(0.2324044404 0.2311467511 0.2177517499 0.2028824578 0.174879295)
5(0.2513092636 0.2484890088 0.2336901027 0.2181917171 0.1890503327)
5(0.2724558032 0.2683703001 0.2524756691 0.2364262884 0.205688805)
5(0.2962268328 0.2906231374 0.2739684554 0.2575366633 0.2264907029)
5(0.322554423 0.3160223421 0.2985722678 0.2819434032 0.2490602096)
5(0.353355127 0.3445757366 0.326504741 0.3096192213 0.2760830629)
5(0.3857473671 0.3764325671 0.3575111683 0.3404572863 0.3060147316)
5(0.4216924625 0.4119125748 0.3924158123 0.3746426388 0.3396691038)
5(0.461847755 0.4501374986 0.4300619999 0.412849702 0.3782109976)
5(0.5050018985 0.4914318547 0.4712500431 0.4541813324 0.4192622422)
5(0.5534156407 0.5365361459 0.516267027 0.4990409272 0.464316575)
5(0.6030190547 0.5860967648 0.5645526316 0.5475198591 0.5119370678)
5(0.6580068908 0.6394522897 0.6171968631 0.5991588685 0.5640935484)
5(0.7172017645 0.6964408189 0.6729939446 0.6547846158 0.6212015063)
5(0.7832534423 0.7572734071 0.7325091015 0.7161130779 0.6856047677)
5(0.851786253 0.8222991862 0.7968490863 0.7832391773 0.7537254136)
5(0.9284311919 0.8921471 0.8659601778 0.8552680898 0.8274869485)
5(1.009275554 0.9683083959 0.940780348 0.9336588266 0.9024022164)
5(1.095444872 1.051816639 1.024473582 1.017284646 0.9795322409)
5(1.183315532 1.141213963 1.118366896 1.104940137 1.056534946)
5(1.279999463 1.238807173 1.220656454 1.197760774 1.137044549)
5(1.378015102 1.349018121 1.333706545 1.295118831 1.225002811)
5(1.493084402 1.47360923 1.458876801 1.397595322 1.316519261)
5(1.614295602 1.614031298 1.588468276 1.506494675 1.415232238)
5(1.755573063 1.771897707 1.728226505 1.6225228 1.518664276)
5(1.923164013 1.94588325 1.877802731 1.745192601 1.627281909)
5(2.110307859 2.129695829 2.032550886 1.871148713 1.733406979)
5(2.314245109 2.325482445 2.193780673 2.002565792 1.844257572)
5(2.533545192 2.522823772 2.357488007 2.133738755 1.954934822)
5(2.753444335 2.714296685 2.515480101 2.261814567 2.061852691)
5(2.973823583 2.898657335 2.668791666 2.385815619 2.159776848)
5(3.175579234 3.067182037 2.815189209 2.502504011 2.252914817)
5(3.348668609 3.221866008 2.94804359 2.606493283 2.335539088)
5(3.383435446 3.2815974 3.034067033 2.711026573 2.425823425)
5(2.811822295 2.756526138 2.678764 2.636337652 2.404874709)
)


60
(
5(0.03049415501 0.03580010973 0.05756298012 0.07234792806 0.09905542903)
5(0.02623222617 0.03475385178 0.05133748517 0.06777508615 0.0887334689)
5(0.02555411663 0.03682060548 0.05038493741 0.067740327 0.08548942286)
5(0.02738670675 0.04073949338 0.05339962354 0.07145084175 0.08759971226)
5(0.03131259282 0.04579980519 0.05934827561 0.07762159491 0.0928811898)
5(0.0365957099 0.05212846233 0.06699817415 0.0850643071 0.09911986816)
5(0.04318101411 0.05950728497 0.07531214896 0.09299259652 0.1056494092)
5(0.05007907808 0.06755765421 0.08370482049 0.1007080158 0.1114531244)
5(0.05738343488 0.07611063943 0.0920280057 0.1078267076 0.1161233131)
5(0.06534066252 0.08467193587 0.1000029305 0.114264535 0.1199689385)
5(0.0737043428 0.09323043113 0.1076596022 0.1199225723 0.1227202109)
5(0.08229220381 0.1014953457 0.114686582 0.124742611 0.1247142751)
5(0.09125474296 0.1094659783 0.121181899 0.1286179722 0.1258470652)
5(0.1000603576 0.1170090985 0.1267720587 0.1316614583 0.1261841549)
5(0.1087520873 0.1240358704 0.1316695304 0.1339187286 0.1260074734)
5(0.1171090109 0.130555141 0.1357521534 0.1354995759 0.1253040376)
5(0.1249807873 0.1365028656 0.1394547891 0.136817563 0.1244727498)
5(0.1329506997 0.1421075591 0.1427331507 0.1378259077 0.1237630828)
5(0.1409384658 0.1475939657 0.1458181086 0.1390235755 0.1232974087)
5(0.1484247055 0.1531035664 0.1489637254 0.1403342967 0.1232009035)
5(0.1564995772 0.1587688639 0.1523421145 0.1422947419 0.1235281471)
5(0.1643713886 0.1648091312 0.1565354948 0.1450751109 0.1250830968)
5(0.1731621332 0.1715060938 0.1616966207 0.1488893052 0.1274258274)
5(0.1834844854 0.1790983647 0.1679041455 0.1541844328 0.130848079)
5(0.1928446845 0.1875940927 0.1753463154 0.1610140194 0.1367459723)
5(0.2055929248 0.1973621285 0.1841776364 0.1695744601 0.1446229318)
5(0.2197978536 0.2097990217 0.1952840527 0.1800359604 0.1539569375)
5(0.2363859536 0.2241842515 0.2089262342 0.1925770487 0.1655815025)
5(0.2515955719 0.2405009825 0.2244144254 0.2077577033 0.1803521424)
5(0.2717693662 0.2588232191 0.2421053969 0.2257393946 0.1972778237)
5(0.2925039769 0.2798676504 0.2626730448 0.2460342805 0.2188677747)
5(0.3183389197 0.3040078163 0.2862326206 0.268738704 0.2418925699)
5(0.3456188067 0.3306190357 0.3123571991 0.2950759251 0.2680302351)
5(0.3761988393 0.359635704 0.3414795403 0.3248256772 0.2980524895)
5(0.4106685338 0.3915208519 0.3740747985 0.3578656845 0.3325455111)
5(0.4472681399 0.4267096092 0.4095644624 0.394409763 0.3692346842)
5(0.4869522004 0.4659054269 0.4476791426 0.4340282118 0.4095829058)
5(0.5315865638 0.5080627813 0.4898232617 0.4760990208 0.4525036391)
5(0.5789530677 0.5533478059 0.5357475924 0.5221372108 0.5013576162)
5(0.6284430382 0.6030514705 0.5858737948 0.5738703482 0.5573693132)
5(0.6837170387 0.6570839059 0.6394736882 0.630866193 0.6176236361)
5(0.7412143045 0.7151241483 0.6980443359 0.6943745369 0.6837205643)
5(0.7992615915 0.7767387832 0.763160218 0.7637640869 0.7517381607)
5(0.8647285742 0.842101733 0.8351215305 0.8395235376 0.8211048677)
5(0.9296841329 0.9128578495 0.9136934052 0.9193395068 0.893411492)
5(0.9942014459 0.988228878 1.004441174 1.004300015 0.969981157)
5(1.068374014 1.071322055 1.105055073 1.09518527 1.051574249)
5(1.146109748 1.167523659 1.213067936 1.191332742 1.138775475)
5(1.232891679 1.276626819 1.329610142 1.295346757 1.230240205)
5(1.333885551 1.405399296 1.458333799 1.4089797 1.32790619)
5(1.455518227 1.546853915 1.59665654 1.529947883 1.430973007)
5(1.594547881 1.702558824 1.744612336 1.655201037 1.537234134)
5(1.73804059 1.872031448 1.901568673 1.785123965 1.644834222)
5(1.898909847 2.047689425 2.063232371 1.912686239 1.752500094)
5(2.069686219 2.228774495 2.216666711 2.039504407 1.857260363)
5(2.26644194 2.407835083 2.363513387 2.158558544 1.958835905)
5(2.452591746 2.573575313 2.495461807 2.267780731 2.052258193)
5(2.635377228 2.713768134 2.600377854 2.358654563 2.139127623)
5(2.711542287 2.706140208 2.560008972 2.378265677 2.214448829)
5(2.224158182 2.171530186 2.201690377 2.120927215 2.049000217)
)


60
(
5(0.03366932567 0.04003057268 0.06337944203 0.0804146872 0.1077613294)
5(0.02922413309 0.03861375909 0.05708911628 0.07542488859 0.09755039278)
5(0.02869590398 0.04066028416 0.05590526695 0.07485955667 0.09403737097)
5(0.03052654394 0.04459075279 0.05860085661 0.07796910123 0.09443604679)
5(0.03451115204 0.049689373 0.06427617001 0.08340664799 0.09836926973)
5(0.0401132288 0.05602498386 0.07176408407 0.09007234608 0.1035511488)
5(0.04674541324 0.06342800452 0.07980023394 0.09728528376 0.109050127)
5(0.05394045067 0.07127772045 0.08792760538 0.1042951673 0.1141814726)
5(0.06127058214 0.07937050622 0.09561430538 0.1105187791 0.1179844)
5(0.06915002315 0.08751973652 0.1028421444 0.115966849 0.1207285235)
5(0.07729917777 0.09545142543 0.1094660329 0.1204914468 0.1225624299)
5(0.08578392845 0.1030447692 0.115578148 0.1241753113 0.1235811793)
5(0.09388449425 0.1100702455 0.120786587 0.1268729175 0.1238308745)
5(0.10170375 0.1165170718 0.1252414341 0.1287297955 0.1232463133)
5(0.1093003996 0.1221927897 0.1287049604 0.129694226 0.1221149367)
5(0.1164863383 0.1272269594 0.1314468402 0.130089177 0.1203675821)
5(0.1235624019 0.1316990045 0.1335738176 0.1299847183 0.1184550384)
5(0.129527041 0.1356382253 0.1352241377 0.1296066487 0.1167872626)
5(0.135757129 0.1392072486 0.1365199561 0.1289968624 0.1146308732)
5(0.1413951107 0.1425133897 0.1377335477 0.1286288131 0.1127043913)
5(0.146072391 0.1455909567 0.1391843173 0.1285412763 0.1112562925)
5(0.1523594583 0.1490812493 0.1411576503 0.1290880146 0.1107062559)
5(0.1587036744 0.1529187008 0.143448152 0.130504434 0.1117695207)
5(0.1651017295 0.1572703894 0.14658068 0.1328574626 0.112392015)
5(0.1720630387 0.1626567111 0.1508316848 0.1361975731 0.1143221951)
5(0.1814967541 0.1693276673 0.1561038749 0.1409509017 0.1186671074)
5(0.1899450471 0.1778831299 0.1631351271 0.1473447725 0.1248968968)
5(0.2015022393 0.1872790267 0.171570933 0.1557013405 0.132750929)
5(0.2123317147 0.1979067047 0.1817538874 0.1662293218 0.1435622285)
5(0.2289479783 0.210585979 0.1941802449 0.178463314 0.1557792857)
5(0.2429028217 0.2258276727 0.2088599123 0.1927222227 0.1708200623)
5(0.2610992145 0.2428128437 0.2257468207 0.2098903757 0.1872308112)
5(0.2816771584 0.2619319734 0.2451458242 0.2296679225 0.2077732034)
5(0.3045941346 0.2838006343 0.2672665612 0.2521008565 0.2293820579)
5(0.3305862295 0.3083930899 0.2919390096 0.2778009219 0.2562244901)
5(0.3574090092 0.3355811346 0.3195586391 0.3060079952 0.2862484234)
5(0.3895874561 0.3654013725 0.3503227864 0.3367502302 0.3185163503)
5(0.4232957122 0.3979280595 0.3841806967 0.3707699918 0.3559766542)
5(0.4579850841 0.4336909262 0.4211957977 0.4091133858 0.3964080261)
5(0.4969885605 0.4729549653 0.4611027273 0.4517845348 0.441420407)
5(0.5344511764 0.5139374292 0.504317266 0.4992174403 0.4978050386)
5(0.5762896726 0.5582631908 0.552508073 0.5529539526 0.5537001038)
5(0.618094167 0.6054248938 0.6059134199 0.6135025116 0.6164743622)
5(0.6563040974 0.6535390726 0.6638175215 0.6796636246 0.6777048714)
5(0.7057164201 0.705502683 0.7277816728 0.7503288489 0.7426775377)
5(0.7516472209 0.7585289482 0.8004442622 0.824384216 0.8126646067)
5(0.8042357824 0.8184503487 0.8805300245 0.9040413014 0.8874571863)
5(0.858610358 0.8868993375 0.9656736753 0.9900552986 0.9700790019)
5(0.9204727231 0.9682591746 1.060184283 1.083730305 1.05860874)
5(0.9948848419 1.063102832 1.162887136 1.186458105 1.153123891)
5(1.07360466 1.168010392 1.275358438 1.297519386 1.251456076)
5(1.160563663 1.284094875 1.401231053 1.418625841 1.359226775)
5(1.252914149 1.405591502 1.53840921 1.542674701 1.465986148)
5(1.360697232 1.54050701 1.682814879 1.67149364 1.573573372)
5(1.476275854 1.690413208 1.831586608 1.791990916 1.677985634)
5(1.611538456 1.842289115 1.973143315 1.905230045 1.780627223)
5(1.755578831 1.999637006 2.097336716 1.999921873 1.87102491)
5(1.915615422 2.137724464 2.188560241 2.066921815 1.947546092)
5(2.037455838 2.177367219 2.088038125 1.989884311 1.954119404)
5(1.875199672 1.700613852 1.381856713 1.497755604 1.648128693)
)


60
(
5(0.03652703015 0.04387201701 0.0681995146 0.08727403051 0.1146278994)
5(0.03209670938 0.04228215096 0.06228897839 0.08170058486 0.1047907477)
5(0.03142249265 0.04401137394 0.06078572243 0.08052567155 0.1002125092)
5(0.03335551564 0.04782163236 0.06295964594 0.08311703352 0.1002635792)
5(0.0369359997 0.05282212094 0.06805620294 0.08787546573 0.1021389652)
5(0.04296046562 0.05899634349 0.0752044558 0.09376736396 0.1063717281)
5(0.0497278337 0.06623060019 0.08286226381 0.1001673903 0.1111032514)
5(0.05681144971 0.07372114412 0.0904776573 0.1062943377 0.115431541)
5(0.06408335122 0.0813616241 0.09755890706 0.1116866789 0.1184845129)
5(0.07161657819 0.08903573667 0.1040510776 0.1162261116 0.120375745)
5(0.07959078889 0.09637174146 0.1097741728 0.1198771021 0.1215691665)
5(0.08761535268 0.1032597103 0.1149514561 0.1226520604 0.1219293313)
5(0.09522190033 0.1094302953 0.1191553563 0.1244319748 0.1214990644)