/*--------------------------------*- C++ -*----------------------------------*\
| =========                 |                                                 |
| \\      /  F ield         | OpenFOAM: The Open Source CFD Toolbox           |
|  \\    /   O peration     | Version:  2.3.1                                 |
|   \\  /    A nd           | Web:      www.OpenFOAM.org                      |
|    \\/     M anipulation  |                                                 |
\*---------------------------------------------------------------------------*/
FoamFile
{
    version     2.0;
    format      ascii;
    class       dictionary;
    location    "constant";
    object      PM30;
}
// * * * * * * * * * * * * * * * * * * * * * * * * * * * * * * * * * * * * * //

PM30_table
60
(

60
(
5(-0.001240712982 0.0002722815956 -0.001624235383 -0.00249931558 -0.00248123057)
5(-0.0002991566267 -0.003059885692 -0.003394940697 -0.003928043702 0.001311428471)
5(-0.002472191942 -0.003019090252 -0.003478285767 -0.004238595148 -0.006102218822)
5(-0.002982622086 -0.00297945084 -0.003407189257 -0.00485283665 -0.003003058628)
5(-0.002972927386 -0.003102971882 -0.003602136273 -0.004603686669 -0.004914580651)
5(-0.002603791454 -0.00315786904 -0.004015100974 -0.00457732433 -0.005351477361)
5(-0.00249339329 -0.003149284495 -0.003931157804 -0.004519283963 -0.004870278451)
5(-0.002776276896 -0.003086322474 -0.003654050836 -0.004316445028 -0.005055983851)
5(-0.002672412605 -0.002961763652 -0.003601703092 -0.004117579571 -0.004601648607)
5(-0.002578095516 -0.002851616168 -0.003380690533 -0.003969277686 -0.004368551403)
5(-0.002397056171 -0.00276253787 -0.003280634245 -0.0037673324 -0.004133902651)
5(-0.002308648038 -0.002705836577 -0.003199705406 -0.003571988865 -0.003926749874)
5(-0.002351996357 -0.002616500045 -0.003045594436 -0.003332208182 -0.00358938656)
5(-0.002258987499 -0.002496381561 -0.00287976825 -0.003165670169 -0.003356878222)
5(-0.002207843422 -0.00239839473 -0.002723682283 -0.002905372336 -0.003065249735)
5(-0.00210716232 -0.002264259165 -0.002529801699 -0.002689460897 -0.00277114896)
5(-0.002009939268 -0.002131081673 -0.002360187848 -0.002457747766 -0.002472689952)
5(-0.001910348795 -0.001999295857 -0.002182054829 -0.002229757488 -0.002226766149)
5(-0.001806180437 -0.001859213245 -0.002003272359 -0.002023285061 -0.00198756325)
5(-0.001687290955 -0.001714500604 -0.001824973205 -0.001808985595 -0.001791023264)
5(-0.001586658162 -0.001602833266 -0.001677922846 -0.001663182931 -0.001606185854)
5(-0.001476618184 -0.001473361854 -0.001521591025 -0.001527777988 -0.001421444247)
5(-0.001367966884 -0.001348115525 -0.001381442351 -0.001320304623 -0.001222132799)
5(-0.001270928233 -0.001228055313 -0.001250614503 -0.001198352179 -0.001106273177)
5(-0.001172084802 -0.001131770885 -0.001123361227 -0.001066149779 -0.0009840979806)
5(-0.001088160494 -0.001043026255 -0.00101874253 -0.0009659429958 -0.0009102501304)
5(-0.00101170027 -0.0009693197846 -0.0009438691227 -0.000883638899 -0.0008345912863)
5(-0.0009419579154 -0.0008940813414 -0.0008599907179 -0.00082148501 -0.0007745412656)
5(-0.0008722234986 -0.0008299910605 -0.000809731646 -0.0007715739134 -0.0007185604387)
5(-0.0008157649864 -0.000772217687 -0.0007551974194 -0.0007235130654 -0.0006731530853)
5(-0.00076261564 -0.0007239523092 -0.0007023883552 -0.0006727314709 -0.0006485613372)
5(-0.0007212992084 -0.0006853034181 -0.0006688337954 -0.0006510078878 -0.0006238457932)
5(-0.0006798166611 -0.0006395305916 -0.0006193009321 -0.0005975711303 -0.0005451349408)
5(-0.0006388086808 -0.0005992827856 -0.0005797025622 -0.0005681444191 -0.0005450768245)
5(-0.0006036195831 -0.0005646728621 -0.0005419116477 -0.000521812041 -0.0004781412573)
5(-0.000568138131 -0.0005241760226 -0.0005025515821 -0.0004892931804 -0.0004506696067)
5(-0.0005385867429 -0.0005041649117 -0.0004906898775 -0.0004542094475 -0.0004307574959)
5(-0.0005050095085 -0.0004629435574 -0.0004449839934 -0.0004197364373 -0.0004183958991)
5(-0.0004716862715 -0.0004343087549 -0.0004061660107 -0.0003843695289 -0.0003905173084)
5(-0.0004393987233 -0.0004047363335 -0.0003748103682 -0.0003822421885 -0.000474093437)
5(-0.0004170519993 -0.0003833201303 -0.0003571392047 -0.000355080928 -0.0003470907015)
5(-0.0003917423597 -0.0003573311061 -0.0003351529888 -0.0003555735193 -0.0002950352602)
5(-0.0003660271481 -0.0003361321788 -0.0003181906791 -0.0003310531771 -0.0002177726706)
5(-0.0003389251923 -0.0003037199478 -0.0002717144735 -0.0002652366945 -0.0001833809338)
5(-0.0003189692451 -0.0002873262044 -0.0002599342415 -0.0002367083883 -0.0001769835885)
5(-0.0003017693212 -0.0002657479059 -0.0002405864859 -0.0002096974724 -0.0001522596307)
5(-0.0002830695298 -0.0002582264776 -0.0002343218685 -0.0001800771711 -0.0001323409227)
5(-0.0002723519793 -0.00024880566 -0.0002130453773 -0.0001565191727 -0.0001145583163)
5(-0.0002487735511 -0.000210664487 -0.0001875843293 -0.0001367628578 -9.893282204e-05)
5(-0.0001827751728 -0.0002080339581 -0.0001637166695 -0.0001194031319 -8.511984756e-05)
5(-0.0001655935093 -0.0001909718276 -0.0001458527469 -0.0001044815776 -7.314846616e-05)
5(-0.0002188302508 -0.0001708129196 -0.0001287350994 -9.021982471e-05 -6.261704736e-05)
5(-0.0002049855862 -0.0001506210017 -0.0001131123456 -7.731010759e-05 -5.313192139e-05)
5(-0.0001801733264 -0.0001317981934 -9.882867107e-05 -6.577857121e-05 -4.548966556e-05)
5(-0.0001574267395 -0.0001146960665 -8.506322071e-05 -5.522852354e-05 -3.828120777e-05)
5(-0.000130887316 -9.645808347e-05 -7.134162135e-05 -4.508667846e-05 -3.20142909e-05)
5(-8.877510619e-05 -7.659128228e-05 -5.684004399e-05 -3.513278342e-05 -2.752794481e-05)
5(-2.132855693e-05 -4.683144975e-05 -3.947774744e-05 -1.95192477e-05 -2.172031362e-05)
5(9.486744904e-05 1.057428676e-05 -1.618886567e-06 -4.336632367e-05 -2.176819926e-05)
5(0.0002107539937 0.0001853442525 0.0001550186676 0.0001214145444 8.674058019e-05)
)


60
(
5(-0.001739724821 -0.002329049251 -0.001988407587 -0.00260649079 -0.00222751494)
5(-0.002124513083 -0.0028404879 -0.002899123537 -0.003422521068 -0.003568110303)
5(-0.002539836981 -0.00266914492 -0.003031366375 -0.003782880463 -0.005094932646)
5(-0.002467885314 -0.002559960896 -0.002737494664 -0.003973442639 -0.003208963284)
5(-0.002544452594 -0.002594455192 -0.00284514969 -0.003654409612 -0.004052401168)
5(-0.002350131292 -0.002624212707 -0.003308646923 -0.003615469943 -0.004373048721)
5(-0.002173635114 -0.002619215103 -0.003234876781 -0.003702915835 -0.003895403982)
5(-0.002306298467 -0.002571647975 -0.003002124004 -0.003545499172 -0.004310827676)
5(-0.002220204959 -0.002498811856 -0.002976790885 -0.003409942261 -0.003952813119)
5(-0.002220009837 -0.002417582924 -0.002785677944 -0.003330558411 -0.003747560777)
5(-0.002160223349 -0.002356528829 -0.002709955608 -0.003204167883 -0.003571391578)
5(-0.002063562096 -0.00228064071 -0.002683506634 -0.003075078933 -0.003463246252)
5(-0.002033841991 -0.002198447041 -0.002600822292 -0.002900641254 -0.003242998498)
5(-0.001936231303 -0.002109793063 -0.002477268212 -0.00280122494 -0.003076592189)
5(-0.001906523553 -0.002037637231 -0.002377592927 -0.002622056418 -0.00287377994)
5(-0.001824919599 -0.001938841962 -0.002235432966 -0.002457459124 -0.002662556046)
5(-0.001751264732 -0.001842407828 -0.0021061893 -0.002293185102 -0.002430828486)
5(-0.001674305225 -0.001742129778 -0.001973088731 -0.002112156084 -0.002211010642)
5(-0.001596321384 -0.001635666455 -0.001835426747 -0.001948406805 -0.002004113597)
5(-0.00149843816 -0.001512105145 -0.001684090963 -0.001757433417 -0.001808613043)
5(-0.001412493817 -0.001417095451 -0.001562545782 -0.001602727668 -0.001621934187)
5(-0.001318758433 -0.001313125497 -0.001420563114 -0.001486279462 -0.001466669313)
5(-0.001216897169 -0.001204892994 -0.001292538203 -0.001313916492 -0.00127689608)
5(-0.001132186353 -0.001093021476 -0.001168580662 -0.001176209538 -0.001129461104)
5(-0.001038022586 -0.0009963592749 -0.00104709654 -0.001039487096 -0.0009893088155)
5(-0.000953090097 -0.0009096702974 -0.0009305561501 -0.0009173800248 -0.00087595586)
5(-0.0008721279778 -0.0008317967897 -0.0008477884554 -0.0008175293858 -0.0007794812326)
5(-0.0008006439111 -0.0007584831607 -0.0007604547088 -0.0007351175929 -0.000700778549)
5(-0.0007266707855 -0.0006903027468 -0.0006952687651 -0.0006707087978 -0.0006344092106)
5(-0.0006669963891 -0.0006298096062 -0.0006382369859 -0.0006233009155 -0.0005878822225)
5(-0.0006121219842 -0.0005787371975 -0.0005837076601 -0.000570566484 -0.0005448767166)
5(-0.0005675847657 -0.000539939534 -0.0005477538529 -0.000542295412 -0.0005311664872)
5(-0.0005309455161 -0.000502686307 -0.0005101601742 -0.0005096056629 -0.0004845145411)
5(-0.0004970650669 -0.0004696521552 -0.0004750686736 -0.0004831877224 -0.0004757752667)
5(-0.0004668539496 -0.0004439132375 -0.0004504951767 -0.00045669889 -0.0004477044277)
5(-0.0004412921245 -0.0004138316075 -0.0004144034406 -0.0004301794695 -0.0004236353554)
5(-0.0004180678866 -0.000399504455 -0.000409671011 -0.0004138616423 -0.0003987282172)
5(-0.0003971172829 -0.0003733502527 -0.0003871503102 -0.0003856907123 -0.0004030808564)
5(-0.0003757883317 -0.0003543987795 -0.0003606905558 -0.0003658177344 -0.0003504841571)
5(-0.0003508384842 -0.0003331179018 -0.0003330227789 -0.0003392267666 -0.0004085907023)
5(-0.0003333812046 -0.0003194251885 -0.0003218756178 -0.0003199006655 -0.0003677698241)
5(-0.0003183447283 -0.0003020721798 -0.0003056136185 -0.0003259721989 -0.0003323465666)
5(-0.0003021591967 -0.0002920673018 -0.0002929997655 -0.0003528091619 -0.0002982485895)
5(-0.0002859448379 -0.0002714806268 -0.0002522171044 -0.0003200921983 -0.0002633625513)
5(-0.000270021741 -0.0002589454149 -0.0002439639259 -0.0002875170107 -0.0002381973552)
5(-0.0002609748123 -0.0002423043094 -0.0002381098278 -0.0002591297764 -0.0002113064241)
5(-0.0002503244797 -0.0002368483531 -0.0002737482055 -0.0002318006227 -0.0001853096328)
5(-0.0002428695353 -0.0002455507928 -0.0002641105263 -0.0002062111149 -0.000161135186)
5(-0.0002279941766 -0.000223002342 -0.0002404950004 -0.0001815255916 -0.0001387250105)
5(-0.0002145876991 -0.0002681139728 -0.0002157448964 -0.000157757567 -0.0001184327524)
5(-0.0002081755871 -0.0002421475487 -0.0001913454128 -0.0001359657726 -0.0001003430035)
5(-0.0002524404578 -0.0002157053359 -0.000167345049 -0.000115399403 -8.43988886e-05)
5(-0.0002425853108 -0.0001894211174 -0.0001442427339 -9.666268002e-05 -7.026171408e-05)
5(-0.0002147216797 -0.0001625550556 -0.000122280485 -7.957538132e-05 -5.776800323e-05)
5(-0.0001806597313 -0.0001353056752 -0.0001010670891 -6.399443456e-05 -4.709239949e-05)
5(-0.0001401387385 -0.0001077758045 -8.03406185e-05 -4.975854473e-05 -3.758966907e-05)
5(-8.282313716e-05 -7.834105583e-05 -5.897470896e-05 -3.606893895e-05 -3.01928121e-05)
5(-1.060419032e-05 -3.691923204e-05 -3.454708406e-05 -2.223184794e-05 -2.284767049e-05)
5(0.0001042705821 4.07852974e-05 2.562104119e-05 -2.887969379e-05 -1.366552778e-05)
5(0.0002272524127 0.0001774845911 0.0001332288826 0.0001293448644 7.833979701e-05)
)


60
(
5(-0.001014466715 -0.001421701617 -0.0009036832358 -0.001154091643 -0.0009600917096)
5(-0.001159237817 -0.001351206571 -0.001351269526 -0.001503469091 -0.001661655265)
5(-0.001213125872 -0.001297459955 -0.001538151247 -0.001647337498 -0.002050305497)
5(-0.00119280111 -0.001241630709 -0.001512457101 -0.001634784771 -0.002094992004)
5(-0.001121664322 -0.001170206271 -0.001389908469 -0.001548974012 -0.001943766252)
5(-0.00101914787 -0.001099975471 -0.00127420729 -0.001478205743 -0.001786776164)
5(-0.0009551483233 -0.001041638071 -0.001226511261 -0.001412646195 -0.001716340715)
5(-0.0009240104913 -0.0009993487232 -0.001190426411 -0.001375194411 -0.001690510647)
5(-0.0008991904437 -0.0009675253416 -0.001171348931 -0.001355756318 -0.001661813246)
5(-0.0008588856604 -0.0009292236208 -0.001136328219 -0.001315543269 -0.001617251863)
5(-0.0008346078011 -0.0008867728447 -0.001096692232 -0.001271588388 -0.001548929669)
5(-0.0007932316459 -0.0008506124082 -0.001048361881 -0.001226682821 -0.001473544069)
5(-0.0007590766568 -0.0008123431389 -0.001005498263 -0.001184020375 -0.001405838911)
5(-0.0007321902315 -0.0007785494594 -0.000965761362 -0.001131798236 -0.001332603676)
5(-0.00070522527 -0.0007448746442 -0.0009261719614 -0.001082774931 -0.001260882488)
5(-0.0006713967073 -0.0007082413142 -0.000879319075 -0.00102717315 -0.001180043251)
5(-0.0006401591914 -0.0006706072606 -0.000828166839 -0.0009671642758 -0.00109881778)
5(-0.0006103020182 -0.0006301102493 -0.0007755758767 -0.0009054192918 -0.001014804908)
5(-0.0005741770936 -0.0005924076625 -0.0007244566659 -0.0008404878092 -0.000927431287)
5(-0.0005399032336 -0.000550984474 -0.0006697880512 -0.0007712151775 -0.0008388171956)
5(-0.0005021071504 -0.0005074529325 -0.0006148228132 -0.0007051939971 -0.0007550413414)
5(-0.0004622395044 -0.0004657245682 -0.0005593132815 -0.0006340481737 -0.0006704038711)
5(-0.0004234815126 -0.0004231107651 -0.0005025757431 -0.0005663835372 -0.0005890943986)
5(-0.0003833939667 -0.0003797312497 -0.0004462457455 -0.0005027301061 -0.0005139605476)
5(-0.0003434123148 -0.0003375630829 -0.0003948945401 -0.0004399032091 -0.0004457774529)
5(-0.0003033919489 -0.0002978176248 -0.0003438766822 -0.0003822781814 -0.0003841254246)
5(-0.0002661834194 -0.0002604533891 -0.0002975958836 -0.0003295240279 -0.0003291377024)
5(-0.0002296967007 -0.0002241895101 -0.0002564481803 -0.0002844890757 -0.000284737725)
5(-0.0001974996048 -0.0001927019061 -0.00022038174 -0.0002459767118 -0.0002464022619)
5(-0.0001675666354 -0.0001646474068 -0.000189636688 -0.0002142542627 -0.0002177209448)
5(-0.0001418073201 -0.0001411977646 -0.0001646807548 -0.0001890016601 -0.00019406447)
5(-0.0001201175361 -0.0001218264252 -0.0001442431774 -0.0001687783083 -0.0001772994388)
5(-0.0001019105652 -0.0001054124673 -0.0001281729067 -0.0001535941068 -0.0001648661431)
5(-8.67435946e-05 -9.256905664e-05 -0.0001163309404 -0.0001421739505 -0.0001556336542)
5(-7.513449912e-05 -8.254605775e-05 -0.0001065219531 -0.0001331848603 -0.0001478305445)
5(-6.421952796e-05 -7.422424417e-05 -9.89226941e-05 -0.0001259324788 -0.0001419706491)
5(-5.633455927e-05 -6.802728124e-05 -9.276968485e-05 -0.0001203422435 -0.0001365319765)
5(-4.961995142e-05 -6.268438511e-05 -8.804228367e-05 -0.0001147440505 -0.0001306576306)
5(-4.398531892e-05 -5.907265374e-05 -8.388453244e-05 -0.0001094385467 -0.0001258297173)
5(-3.941633874e-05 -5.525555767e-05 -7.994215629e-05 -0.0001048358161 -0.0001209535526)
5(-3.485510533e-05 -5.265252932e-05 -7.72913034e-05 -0.0001003732922 -0.0001169827153)
5(-3.139935292e-05 -4.976871578e-05 -7.428457558e-05 -9.632048763e-05 -0.0001132840932)
5(-2.775276826e-05 -4.81010371e-05 -7.176407432e-05 -9.303252576e-05 -0.0001093726132)
5(-2.473137138e-05 -4.778413865e-05 -6.94599625e-05 -8.999426872e-05 -0.0001049446176)
5(-2.208182433e-05 -4.634583795e-05 -6.726439196e-05 -8.722590749e-05 -9.994971015e-05)
5(-1.946059033e-05 -4.48325483e-05 -6.520960063e-05 -8.442382431e-05 -9.460178244e-05)
5(-1.63180946e-05 -4.324770551e-05 -6.403992069e-05 -8.086479183e-05 -8.869998789e-05)
5(-1.283313376e-05 -4.178092264e-05 -6.262527508e-05 -7.660545092e-05 -8.240184312e-05)
5(-6.837200895e-06 -3.930249216e-05 -6.075153724e-05 -7.151965382e-05 -7.544320598e-05)
5(-1.052266086e-06 -3.686123951e-05 -5.807079183e-05 -6.556311205e-05 -6.796905651e-05)
5(7.03959376e-06 -3.450271383e-05 -5.437793179e-05 -5.914174078e-05 -6.026704234e-05)
5(1.567353789e-05 -3.113558576e-05 -4.974223603e-05 -5.242815998e-05 -5.239424792e-05)
5(2.435845668e-05 -2.663334507e-05 -4.416385619e-05 -4.532819524e-05 -4.487555207e-05)
5(3.158533306e-05 -2.144302519e-05 -3.795931278e-05 -3.804176322e-05 -3.716508502e-05)
5(3.742919904e-05 -1.440134563e-05 -3.093593468e-05 -3.054878013e-05 -2.999536124e-05)
5(4.318879499e-05 -6.494512346e-06 -2.348527107e-05 -2.318525175e-05 -2.31938902e-05)
5(4.982274007e-05 3.070962488e-06 -1.5210222e-05 -1.601835076e-05 -1.693274926e-05)
5(6.233258567e-05 1.60085014e-05 -5.370437957e-06 -8.233511439e-06 -1.080638807e-05)
5(0.0001028862991 4.205901932e-05 1.069246459e-05 1.451410928e-06 -4.180513767e-06)
5(0.0002142440076 0.0001897636014 0.0001038727415 5.227361881e-05 4.173607352e-05)
)


60
(
5(-0.0003814395859 -0.0006425381571 -9.400639913e-05 -0.0001576892613 -9.836947968e-05)
5(-0.0003906507144 -0.0004681536084 -0.0003507635001 -0.0003640904901 -0.0005580074159)
5(-0.0003846629735 -0.000388449487 -0.0004637864696 -0.0004785007929 -0.0008254091108)
5(-0.0003581582569 -0.0003378492729 -0.0004502499126 -0.0004955444028 -0.0008970801002)
5(-0.0002872123843 -0.0002910481604 -0.0003800322431 -0.0004761923631 -0.0008493016636)
5(-0.0002167181543 -0.0002524690741 -0.0003348015889 -0.0004743337557 -0.0008145877145)
5(-0.0001802715537 -0.0002374771984 -0.0003345997935 -0.0004881012924 -0.0008247539711)
5(-0.0001719911387 -0.0002313670989 -0.0003542352207 -0.0005226481151 -0.0008649446544)
5(-0.0001697071618 -0.0002339013199 -0.0003794146618 -0.000556769329 -0.0009053270676)
5(-0.0001715730147 -0.0002375003289 -0.0004028038608 -0.0005906283078 -0.000919626666)
5(-0.0001776768149 -0.0002471318745 -0.0004178011292 -0.0006161479418 -0.0009270650988)
5(-0.0001837766585 -0.0002587747282 -0.0004354589509 -0.0006415582223 -0.0009316895357)
5(-0.0001904928819 -0.0002684746807 -0.0004522838514 -0.000659481215 -0.0009316121725)
5(-0.0002011717113 -0.0002818586357 -0.0004663578651 -0.0006744172706 -0.0009237482015)
5(-0.0002163062379 -0.0002931929185 -0.0004768490062 -0.0006826666855 -0.0009074747355)
5(-0.0002317646721 -0.0003045307257 -0.0004838610549 -0.0006832305292 -0.0008828822164)
5(-0.0002384272674 -0.0003137984755 -0.0004864053087 -0.0006746880719 -0.0008494094942)
5(-0.0002481922757 -0.0003181497994 -0.0004830132655 -0.0006561360079 -0.0008090898219)
5(-0.0002522901599 -0.000316828584 -0.0004704646826 -0.0006348051941 -0.0007627716857)
5(-0.0002535494995 -0.0003136820997 -0.0004553305316 -0.00060206752 -0.0007071574234)
5(-0.0002558973422 -0.000303899367 -0.0004324520948 -0.0005649645557 -0.0006503581836)
5(-0.0002459132501 -0.0002892343682 -0.0004071545265 -0.0005243121028 -0.0005905091968)
5(-0.0002325066626 -0.0002724108585 -0.0003759177531 -0.0004761370967 -0.0005276001039)
5(-0.0002195378883 -0.0002530665993 -0.0003410768986 -0.000427818445 -0.0004658392528)
5(-0.0002034964896 -0.0002291455374 -0.0003041102896 -0.0003792945481 -0.0004062012128)
5(-0.0001820453145 -0.0002028755099 -0.0002683645696 -0.000331820932 -0.0003524593572)
5(-0.0001595365354 -0.0001785292837 -0.0002332103142 -0.0002868440837 -0.0003015211119)
5(-0.000137231894 -0.0001523694527 -0.0001991568784 -0.0002450246166 -0.000257377511)
5(-0.0001137959501 -0.0001281255768 -0.0001686085009 -0.0002090936127 -0.0002198923044)
5(-9.205800512e-05 -0.0001057755067 -0.0001412296864 -0.0001776981629 -0.0001889465188)
5(-7.220628409e-05 -8.553381627e-05 -0.0001180795755 -0.000152548143 -0.0001647985529)
5(-5.511293402e-05 -6.887489368e-05 -9.907905911e-05 -0.0001320804262 -0.000145499878)
5(-4.057765586e-05 -5.523512017e-05 -8.37360708e-05 -0.0001166336153 -0.0001318703078)
5(-2.866759364e-05 -4.371249075e-05 -7.257741715e-05 -0.0001048361126 -0.0001219234582)
5(-1.923957617e-05 -3.551620834e-05 -6.448392753e-05 -9.637016515e-05 -0.0001148284305)
5(-1.2471628e-05 -2.946849956e-05 -5.825587005e-05 -9.008311957e-05 -0.0001091492171)
5(-7.034121198e-06 -2.524222416e-05 -5.372317981e-05 -8.54278772e-05 -0.0001052960624)
5(-2.903633515e-06 -2.221517692e-05 -5.048845283e-05 -8.192727066e-05 -0.0001016488151)
5(3.993096837e-08 -2.016771571e-05 -4.821169983e-05 -7.878445713e-05 -9.836530207e-05)
5(2.569136271e-06 -1.885992013e-05 -4.674752206e-05 -7.641635715e-05 -9.582482794e-05)
5(4.586614663e-06 -1.781903984e-05 -4.55460453e-05 -7.40516492e-05 -9.284100347e-05)
5(7.019842029e-06 -1.702746604e-05 -4.481481481e-05 -7.191689641e-05 -9.061859692e-05)
5(9.32645673e-06 -1.672119248e-05 -4.408133053e-05 -7.023975023e-05 -8.822230539e-05)
5(1.171779289e-05 -1.640615481e-05 -4.355234539e-05 -6.877896129e-05 -8.566860663e-05)
5(1.462848546e-05 -1.638859372e-05 -4.316306381e-05 -6.731440047e-05 -8.269092307e-05)
5(1.783085959e-05 -1.575516509e-05 -4.2686594e-05 -6.56493307e-05 -7.929164765e-05)
5(2.163897007e-05 -1.416467609e-05 -4.218125362e-05 -6.354850904e-05 -7.560488831e-05)
5(2.621727505e-05 -1.215069962e-05 -4.139548512e-05 -6.068503609e-05 -7.145729648e-05)
5(3.272755996e-05 -9.481264624e-06 -3.982390632e-05 -5.731355299e-05 -6.657453748e-05)
5(4.065492637e-05 -5.653718679e-06 -3.745296894e-05 -5.328955209e-05 -6.130882231e-05)
5(5.044543185e-05 -1.17152719e-06 -3.406965282e-05 -4.844050752e-05 -5.542470904e-05)
5(6.22807999e-05 4.762855757e-06 -2.96360622e-05 -4.299366985e-05 -4.931425337e-05)
5(7.575049796e-05 1.139914348e-05 -2.430342129e-05 -3.701449617e-05 -4.292715668e-05)
5(8.997146184e-05 1.939479677e-05 -1.837781311e-05 -3.098004251e-05 -3.680303607e-05)
5(0.0001051406612 2.811135606e-05 -1.157536287e-05 -2.451298128e-05 -3.044790959e-05)
5(0.0001191186481 3.775852466e-05 -4.283180827e-06 -1.782482752e-05 -2.431891866e-05)
5(0.0001340450537 4.924997724e-05 4.031881788e-06 -1.084807946e-05 -1.836939697e-05)
5(0.0001532263258 6.464126462e-05 1.570790182e-05 -2.830367872e-06 -1.219077715e-05)
5(0.0002092635852 0.0001125480882 4.679043771e-05 1.284072354e-05 -3.425996541e-06)
5(0.0002861737343 0.000217098106 0.0001476110646 6.479449035e-05 6.550754576e-05)
)


60
(
5(0.0001500976199 -1.048459983e-05 0.0005216073137 0.0005842656713 0.0005580156752)
5(0.0002298128115 0.0002019641314 0.0003757705997 0.0004382781176 0.0002255262246)
5(0.0002554975266 0.0002775601941 0.00028978767 0.0003147189015 -9.570344576e-06)
5(0.0002822531843 0.0003031769855 0.00027559363 0.0002586173144 -0.0001053543409)
5(0.0003242666714 0.0003138142455 0.0002824644858 0.0002191471076 -0.0001463847846)
5(0.0003588992549 0.0003143309474 0.0002697382237 0.0001688896925 -0.0001898937732)
5(0.0003606070329 0.000297384927 0.000226934158 9.314069568e-05 -0.0002645939077)
5(0.0003415053882 0.0002648134624 0.0001632800848 5.300473002e-06 -0.0003557761494)
5(0.0003088289779 0.0002252984244 9.801778799e-05 -7.964926144e-05 -0.0004417274817)
5(0.0002734201465 0.0001807309411 2.967490467e-05 -0.0001601157739 -0.0005140289231)
5(0.0002352466803 0.0001338114451 -3.180072629e-05 -0.0002403085387 -0.0005801328034)
5(0.000191893135 8.427430294e-05 -9.440709672e-05 -0.0003147406014 -0.0006324466721)
5(0.0001452753035 3.428730075e-05 -0.0001528612104 -0.0003796139642 -0.0006765309974)
5(9.831448116e-05 -1.476355414e-05 -0.0002082974209 -0.0004352596463 -0.0007139242393)
5(5.432562678e-05 -6.205667895e-05 -0.000255672742 -0.0004839342967 -0.0007346501686)
5(7.637466303e-06 -0.0001037936163 -0.0002965774771 -0.0005208599202 -0.0007468165081)
5(-3.521176779e-05 -0.000142444311 -0.0003290819298 -0.0005440782981 -0.0007438122529)
5(-7.011423848e-05 -0.0001739058742 -0.0003541420063 -0.0005568097241 -0.0007279355993)
5(-0.0001041195617 -0.0001985498753 -0.0003691421525 -0.0005565501483 -0.0007059367645)
5(-0.0001294751536 -0.0002172239137 -0.000375401667 -0.0005480655724 -0.000670655388)
5(-0.0001484719009 -0.0002279405907 -0.0003716486902 -0.0005271913458 -0.0006288805334)
5(-0.0001628772508 -0.0002310499511 -0.0003615778774 -0.0004989511059 -0.0005803026556)
5(-0.0001685559171 -0.0002284214425 -0.0003426460289 -0.000463224107 -0.0005268806886)
5(-0.0001678106101 -0.0002192046281 -0.0003196098494 -0.0004233799852 -0.0004726123693)
5(-0.0001607310994 -0.0002051864719 -0.0002909802984 -0.0003799185595 -0.0004156979167)
5(-0.0001502847067 -0.0001863648186 -0.0002594595271 -0.0003357324041 -0.0003623938492)
5(-0.0001347784134 -0.0001647333334 -0.0002276996454 -0.0002922861705 -0.0003120067297)
5(-0.000116657526 -0.000142571906 -0.0001960897299 -0.0002507386113 -0.0002663269514)
5(-9.788646931e-05 -0.0001202436625 -0.0001658556317 -0.0002136834136 -0.0002275468206)
5(-7.820913423e-05 -9.840752499e-05 -0.0001382686398 -0.000181178675 -0.0001936939198)
5(-5.956425411e-05 -7.868357865e-05 -0.000114639035 -0.0001536603506 -0.0001664231278)
5(-4.346743111e-05 -6.164058346e-05 -9.491162586e-05 -0.0001312635081 -0.0001448045214)
5(-2.903725948e-05 -4.713366538e-05 -7.822795666e-05 -0.0001134900778 -0.0001279070454)
5(-1.726108643e-05 -3.563555797e-05 -6.578341032e-05 -0.0001002128082 -0.0001160795487)
5(-7.773591074e-06 -2.690273757e-05 -5.653517819e-05 -9.047423721e-05 -0.0001075628842)
5(-6.570285872e-07 -2.045100996e-05 -4.988067329e-05 -8.340274202e-05 -0.0001012175346)
5(4.283692374e-06 -1.597270964e-05 -4.55065026e-05 -7.830270688e-05 -9.673012371e-05)
5(8.086805285e-06 -1.283835138e-05 -4.221638479e-05 -7.468309787e-05 -9.350998793e-05)
5(1.08890957e-05 -1.095561509e-05 -4.021304378e-05 -7.205283432e-05 -9.071121036e-05)
5(1.309754257e-05 -9.854098205e-06 -3.887005136e-05 -6.980349513e-05 -8.857338697e-05)
5(1.506714991e-05 -9.084884431e-06 -3.795338993e-05 -6.807317839e-05 -8.678280912e-05)
5(1.703323538e-05 -8.537321507e-06 -3.744596846e-05 -6.680563804e-05 -8.506402079e-05)
5(1.947078081e-05 -7.885763323e-06 -3.710700431e-05 -6.552163586e-05 -8.32881318e-05)
5(2.238418354e-05 -7.054159141e-06 -3.675418415e-05 -6.459461449e-05 -8.163463187e-05)
5(2.570872799e-05 -5.9959427e-06 -3.623970491e-05 -6.380111483e-05 -7.979260102e-05)
5(2.930401743e-05 -4.730002189e-06 -3.601554979e-05 -6.287694346e-05 -7.784302363e-05)
5(3.366974388e-05 -2.570274202e-06 -3.535202964e-05 -6.16465946e-05 -7.541355035e-05)
5(3.905278412e-05 6.00020091e-07 -3.403001e-05 -5.970430781e-05 -7.255215303e-05)
5(4.448699428e-05 4.777243209e-06 -3.238695686e-05 -5.711523872e-05 -6.926787907e-05)
5(5.216271257e-05 1.004931635e-05 -2.930749583e-05 -5.382752072e-05 -6.528846064e-05)
5(6.091524413e-05 1.661857537e-05 -2.482336699e-05 -4.943682877e-05 -6.03230813e-05)
5(7.153483095e-05 2.461430021e-05 -1.917284321e-05 -4.410090081e-05 -5.500758471e-05)
5(8.464006668e-05 3.491245857e-05 -1.197474495e-05 -3.782773972e-05 -4.920576374e-05)
5(0.0001008941844 4.686346843e-05 -3.536705919e-06 -3.103905749e-05 -4.297676485e-05)
5(0.0001192988674 5.961158405e-05 5.434714848e-06 -2.3886869e-05 -3.655946888e-05)
5(0.000140482341 7.427346868e-05 1.544984388e-05 -1.60844281e-05 -2.98920701e-05)
5(0.0001636273302 9.018922093e-05 2.746848536e-05 -7.021528897e-06 -2.301969458e-05)
5(0.0001916469041 0.0001105314625 4.34976745e-05 4.077788819e-06 -1.496802668e-05)
5(0.0002611296131 0.000170055991 9.618519735e-05 3.270083608e-05 -9.72543179e-07)
5(0.0003165660178 0.0002318838152 0.000181622067 0.0001047553449 6.129146413e-05)
)


60
(
5(0.0005890989119 0.0004945160752 0.001007698898 0.001175031369 0.001115972496)
5(0.0007199528923 0.0007187604682 0.0009253227769 0.001057544317 0.0008576009058)
5(0.0007506733595 0.0007751983854 0.0008403953377 0.000916334419 0.0006150002274)
5(0.0007623016915 0.0007678934595 0.0007959075711 0.0008156135438 0.00046971416)
5(0.0007771010463 0.0007470336661 0.0007571506266 0.0007289470141 0.0003809414088)
5(0.0007778178141 0.0007172368254 0.0006956951755 0.0006300912244 0.0002796276362)
5(0.0007471222288 0.0006645383407 0.0006151453598 0.0005122802232 0.0001494132077)
5(0.0006986509028 0.0005998826692 0.0005154938572 0.0003850832125 2.243192632e-05)
5(0.0006374907995 0.0005302391999 0.0004156045879 0.0002574284847 -0.0001117338101)
5(0.0005726878995 0.0004512997904 0.0003127596948 0.0001338011266 -0.0002282703937)
5(0.0005054725087 0.0003764077518 0.000218016577 1.613050896e-05 -0.0003333980901)
5(0.0004326532989 0.0002945822607 0.0001217100484 -9.376369951e-05 -0.00042678573)
5(0.0003577870899 0.0002171277864 3.411322774e-05 -0.0001957557619 -0.0005096564187)
5(0.0002798285396 0.0001415015232 -5.210977198e-05 -0.000284964245 -0.0005767901418)
5(0.0002099512713 7.064609692e-05 -0.0001255586342 -0.0003615097859 -0.0006303400931)
5(0.0001425234032 5.184568177e-06 -0.000192762358 -0.0004241832986 -0.0006674549532)
5(7.804098916e-05 -5.359902009e-05 -0.0002460784856 -0.0004729464867 -0.0006892023449)
5(1.894696765e-05 -0.0001040379906 -0.0002894388339 -0.00050813365 -0.0006933473071)
5(-3.211187671e-05 -0.0001451031079 -0.0003228795987 -0.0005247128766 -0.0006851126726)
5(-7.388268485e-05 -0.0001775902466 -0.0003434336522 -0.00052851486 -0.0006618041735)
5(-0.0001061754171 -0.0002016448105 -0.0003525479232 -0.0005198038448 -0.0006328887581)
5(-0.0001317121017 -0.0002146840261 -0.0003512192302 -0.0005018928724 -0.0005939700088)
5(-0.0001492370172 -0.0002203995503 -0.0003417648682 -0.0004741189961 -0.0005451057272)
5(-0.0001555533739 -0.0002173847038 -0.0003235045798 -0.0004385164108 -0.0004927222642)
5(-0.0001553578633 -0.0002076607947 -0.0002994090532 -0.0003984637235 -0.0004387773587)
5(-0.0001489625451 -0.0001940003956 -0.0002724478739 -0.000355867481 -0.0003861027397)
5(-0.0001376008068 -0.0001750889195 -0.0002415262954 -0.0003124095945 -0.0003345247782)
5(-0.0001217351765 -0.0001530890586 -0.0002097237945 -0.0002705614759 -0.0002869582784)
5(-0.0001038018138 -0.0001309244389 -0.0001792145375 -0.0002313186653 -0.0002447660662)
5(-8.545606223e-05 -0.0001088719174 -0.0001505944528 -0.0001959513528 -0.0002079035582)
5(-6.671339939e-05 -8.781898688e-05 -0.0001246825919 -0.0001659343411 -0.0001775409109)
5(-4.929975035e-05 -6.873721458e-05 -0.0001026790674 -0.0001412986728 -0.0001526799989)
5(-3.360906344e-05 -5.258837485e-05 -8.49142711e-05 -0.0001210694426 -0.0001331082863)
5(-2.04735809e-05 -3.994776186e-05 -7.082112981e-05 -0.0001051055528 -0.0001182964555)
5(-1.044309047e-05 -3.009959761e-05 -5.97986314e-05 -9.352277459e-05 -0.000108303679)
5(-2.664218608e-06 -2.249032162e-05 -5.168765278e-05 -8.506001016e-05 -0.0001007358737)
5(3.64458728e-06 -1.691774716e-05 -4.625999191e-05 -7.901766675e-05 -9.535463895e-05)
5(8.086294462e-06 -1.328557871e-05 -4.260236715e-05 -7.483943339e-05 -9.174430775e-05)
5(1.133654413e-05 -1.0909377e-05 -4.01107817e-05 -7.197763757e-05 -8.91524075e-05)