/*--------------------------------*- C++ -*----------------------------------*\
| =========                 |                                                 |
| \\      /  F ield         | OpenFOAM: The Open Source CFD Toolbox           |
|  \\    /   O peration     | Version:  2.3.1                                 |
|   \\  /    A nd           | Web:      www.OpenFOAM.org                      |
|    \\/     M anipulation  |                                                 |
\*---------------------------------------------------------------------------*/
FoamFile
{
    version     2.0;
    format      ascii;
    class       dictionary;
    location    "constant";
    object      PM34;
}
// * * * * * * * * * * * * * * * * * * * * * * * * * * * * * * * * * * * * * //

PM34_table
60
(

60
(
5(-1.144300454 0.8958977508 -1.478107007 -1.573579908 -1.537127008)
5(0.7951368163 -2.363919861 -2.835883526 -2.358954634 3.972092277)
5(-0.978725046 -2.368972312 -2.704586184 -1.853539672 -3.158505455)
5(-1.741491195 -2.396336763 -2.386371115 -2.537040966 -1.939386291)
5(-2.169752671 -2.400605584 -2.098686754 -2.399676271 -2.472695836)
5(-2.038774022 -2.251444905 -2.349245514 -2.363903827 -2.92220078)
5(-1.785401297 -2.250312568 -2.631819782 -2.451238379 -2.953583423)
5(-1.843259165 -2.286389738 -2.55985593 -2.407352314 -2.899403083)
5(-1.795163977 -2.251913405 -2.529316587 -2.371290652 -3.022214499)
5(-1.777955001 -2.221204212 -2.448706344 -2.337882546 -2.948893945)
5(-1.778317827 -2.193590494 -2.386067037 -2.315460481 -2.88953804)
5(-1.777136835 -2.161821597 -2.380303319 -2.302778233 -2.870502665)
5(-1.781266536 -2.135292531 -2.38364297 -2.268395892 -2.838549723)
5(-1.738566784 -2.101832804 -2.352258455 -2.263430711 -2.826789796)
5(-1.731694775 -2.092973617 -2.339723129 -2.244433903 -2.799276348)
5(-1.718990527 -2.070875558 -2.313382041 -2.219543105 -2.773938764)
5(-1.707532244 -2.053562045 -2.29045377 -2.204945209 -2.744158475)
5(-1.698801524 -2.038440868 -2.272601788 -2.181983887 -2.711036833)
5(-1.694746505 -2.023932021 -2.254685784 -2.170327292 -2.687390021)
5(-1.684500553 -1.998247289 -2.228239379 -2.144179129 -2.66205969)
5(-1.679122644 -1.993296989 -2.221313666 -2.131630098 -2.642172058)
5(-1.678486372 -1.987828854 -2.204817852 -2.148351252 -2.65171294)
5(-1.672912865 -1.977920772 -2.197535367 -2.134691672 -2.624363092)
5(-1.680335786 -1.966126845 -2.189234365 -2.12716338 -2.610005038)
5(-1.684992596 -1.961483386 -2.182463302 -2.117624726 -2.591414672)
5(-1.693640321 -1.965821608 -2.17395183 -2.10467667 -2.575765373)
5(-1.70604866 -1.978253382 -2.183969266 -2.104596202 -2.56596307)
5(-1.728865482 -1.991485863 -2.184253492 -2.106908157 -2.56015882)
5(-1.749209301 -2.000596441 -2.196832821 -2.120894663 -2.558118541)
5(-1.778855155 -2.013306489 -2.211615201 -2.145492149 -2.564313828)
5(-1.812390784 -2.032698464 -2.223629898 -2.151266563 -2.5538844)
5(-1.854144774 -2.066115474 -2.250895299 -2.181908508 -2.581220603)
5(-1.906544849 -2.098340007 -2.274971626 -2.206936532 -2.57335548)
5(-1.964602578 -2.134565836 -2.295701423 -2.228949853 -2.582477563)
5(-2.029876456 -2.184095836 -2.3339446 -2.256681798 -2.596747913)
5(-2.107417592 -2.227480089 -2.351758733 -2.273616629 -2.590610657)
5(-2.189977354 -2.305897672 -2.428173568 -2.319065967 -2.554075252)
5(-2.285316239 -2.357355411 -2.471812113 -2.30936491 -2.532199265)
5(-2.382249564 -2.424566303 -2.499393426 -2.355540765 -2.437926901)
5(-2.478899839 -2.490630986 -2.524004138 -2.217903239 -1.614962401)
5(-2.584241549 -2.564612353 -2.568171205 -2.152461891 -2.321470248)
5(-2.689022832 -2.620533023 -2.547451987 -1.886746068 -2.432306886)
5(-2.777239061 -2.668466677 -2.458199657 -2.110213624 -2.492870697)
5(-2.85352684 -2.669924167 -2.384601156 -2.271703605 -2.344181966)
5(-2.900995913 -2.668230604 -2.338436496 -2.188341522 -2.209085753)
5(-2.932063675 -2.616192854 -2.043248689 -2.091167045 -2.028596643)
5(-2.886468907 -2.416127235 -1.924313378 -2.01201579 -1.841283504)
5(-2.793278166 -2.339679019 -2.116405674 -1.848781861 -1.645511111)
5(-2.732406091 -1.950856268 -2.025346124 -1.654362211 -1.437096527)
5(-2.013198085 -1.73174081 -1.952392152 -1.442550114 -1.222832466)
5(-1.691184571 -1.863618594 -1.744842101 -1.22744388 -1.00368496)
5(-1.896430915 -1.759790517 -1.513325622 -0.9919935471 -0.7798060488)
5(-1.912745334 -1.537660193 -1.270382767 -0.7404496228 -0.5420707618)
5(-1.701358078 -1.266588907 -1.012152266 -0.472689259 -0.3060036791)
5(-1.413653287 -0.9809434129 -0.7276988649 -0.1881525674 -0.05837748323)
5(-1.066448367 -0.6542306031 -0.4033894727 0.115545534 0.1885005871)
5(-0.5568291367 -0.2662372994 -0.02090509219 0.4529116342 0.4043485059)
5(0.2492862621 0.3492113268 0.4679432538 0.9638954956 0.6060353708)
5(1.484948064 1.430378793 1.417848382 0.3537357935 0.6712626353)
5(1.710341455 2.497229711 2.544105724 2.786567196 2.925581855)
)


60
(
5(-1.188544785 -1.359415891 -1.514766309 -1.432159586 -1.725113668)
5(-1.74667526 -2.108377481 -2.333728883 -2.038062911 -2.716724956)
5(-1.904318244 -1.985685202 -2.349407267 -2.195140076 -3.121087241)
5(-1.485244938 -1.898570751 -2.101403935 -2.247714306 -2.10289579)
5(-1.644407924 -1.929594687 -2.11297096 -2.066647561 -2.463665385)
5(-1.762555372 -1.968550109 -2.337437412 -2.06457663 -2.607512121)
5(-1.731243683 -1.985085967 -2.327475821 -2.138464646 -2.471102191)
5(-1.805925389 -1.968913824 -2.236978526 -2.09325214 -2.690170946)
5(-1.723327042 -1.934182574 -2.233402506 -2.05585923 -2.577803664)
5(-1.699801454 -1.894041186 -2.142000129 -2.044186435 -2.513227875)
5(-1.670560225 -1.873396147 -2.116000697 -2.015899073 -2.47465425)
5(-1.669836057 -1.850971283 -2.123633162 -1.994076525 -2.471237008)
5(-1.681525595 -1.825580113 -2.108240874 -1.956809391 -2.432564999)
5(-1.645377356 -1.799692329 -2.078011031 -1.962115419 -2.42100458)
5(-1.646000085 -1.79169404 -2.063838908 -1.930251311 -2.394934476)
5(-1.621716002 -1.766818585 -2.030527774 -1.908305584 -2.364377867)
5(-1.606923318 -1.750035525 -2.006947569 -1.889510631 -2.32800376)
5(-1.595456621 -1.733651212 -1.984561051 -1.864447817 -2.298579716)
5(-1.586346947 -1.716063272 -1.963858487 -1.850950401 -2.274460355)
5(-1.569348013 -1.687457728 -1.936091964 -1.820811438 -2.255049097)
5(-1.562041102 -1.684525351 -1.927602973 -1.813476185 -2.236230907)
5(-1.554946285 -1.675274831 -1.907418229 -1.832645446 -2.235516098)
5(-1.543729831 -1.661020663 -1.89591105 -1.805463449 -2.200398543)
5(-1.543288847 -1.6419615 -1.883828015 -1.797434094 -2.187746207)
5(-1.539740617 -1.635788945 -1.869782154 -1.781588867 -2.166404857)
5(-1.541733527 -1.634377868 -1.851698067 -1.766243254 -2.15604329)
5(-1.546028816 -1.639844218 -1.858086421 -1.760901505 -2.147051988)
5(-1.557215533 -1.644899396 -1.850794488 -1.762997298 -2.142850314)
5(-1.564879228 -1.647287383 -1.859565417 -1.774975668 -2.139125398)
5(-1.582156812 -1.650799757 -1.870265318 -1.799192645 -2.14677497)
5(-1.600793438 -1.661460264 -1.87437189 -1.803194746 -2.15041526)
5(-1.629026515 -1.686879922 -1.900011862 -1.842305156 -2.197548286)
5(-1.665791458 -1.710146948 -1.918435655 -1.867905241 -2.179575154)
5(-1.705814613 -1.737273408 -1.937469028 -1.904703054 -2.241316889)
5(-1.752812639 -1.78023047 -1.976435764 -1.942646067 -2.265313979)
5(-1.808638508 -1.813491269 -1.991446871 -1.981222051 -2.292528029)
5(-1.875752529 -1.889492692 -2.084678518 -2.048848649 -2.316678898)
5(-1.949329651 -1.939132466 -2.140497602 -2.088869559 -2.430448685)
5(-2.030409676 -2.013332699 -2.187255061 -2.155128842 -2.399645132)
5(-2.109050404 -2.083267608 -2.231038346 -2.204062224 -2.687157765)
5(-2.205976785 -2.178565856 -2.326347351 -2.283047058 -2.732981505)
5(-2.312393529 -2.261714345 -2.39687255 -2.44902339 -2.755570484)
5(-2.411028872 -2.361213217 -2.475716476 -2.661624337 -2.719420674)
5(-2.502563868 -2.407665167 -2.42880641 -2.692438578 -2.625576414)
5(-2.579389653 -2.462946435 -2.503603648 -2.653935732 -2.526237674)
5(-2.653386681 -2.4764615 -2.583281952 -2.581205229 -2.381361117)
5(-2.686456175 -2.513623404 -2.760500149 -2.454600101 -2.204097009)
5(-2.681302912 -2.59725462 -2.730066702 -2.290891153 -2.004410819)
5(-2.638245327 -2.511900089 -2.604796087 -2.096409215 -1.78339222)
5(-2.559905798 -2.588048893 -2.418873888 -1.867523286 -1.547316194)
5(-2.461408302 -2.41487888 -2.191007999 -1.62395462 -1.310604873)
5(-2.454981293 -2.185575691 -1.931380872 -1.359456579 -1.068108848)
5(-2.276395558 -1.910173448 -1.648661347 -1.083255879 -0.8190370533)
5(-2.012501234 -1.596389589 -1.34989225 -0.7935866739 -0.5684929642)
5(-1.655682191 -1.248419525 -1.024432545 -0.4925688354 -0.3201721228)
5(-1.223480881 -0.8680734568 -0.6685321032 -0.1818754669 -0.0756632323)
5(-0.6145366543 -0.4314460403 -0.265766617 0.1428205239 0.1377049121)
5(0.1765096652 0.1891858985 0.2206740237 0.4802712671 0.3337656829)
5(1.310118137 1.218423193 1.239300936 0.4148513643 0.5470231334)
5(1.98332379 2.147156065 1.934336783 2.313455427 2.138377108)
)


60
(
5(-0.7087483035 -0.4676128963 -0.8810455924 -0.6862500247 -0.997780124)
5(-1.144970084 -0.7838194676 -1.389686155 -1.02554551 -1.608510878)
5(-1.246526595 -0.8930755873 -1.495515386 -1.119906965 -1.716908574)
5(-1.227511115 -0.9033309604 -1.454671346 -1.112498339 -1.647703433)
5(-1.180950334 -0.8797922722 -1.37124864 -1.069554269 -1.525347667)
5(-1.131824854 -0.8581236136 -1.310895311 -1.043589961 -1.444126985)
5(-1.104597194 -0.8369324485 -1.296952406 -1.021910607 -1.425531533)
5(-1.087456814 -0.8222861369 -1.280137005 -1.008806342 -1.424287892)
5(-1.065603893 -0.8109762454 -1.264311259 -1.002681732 -1.413263892)
5(-1.03096293 -0.7912176133 -1.235153731 -0.9834105092 -1.391028501)
5(-1.005359657 -0.7661396728 -1.204338702 -0.9620425432 -1.355515889)
5(-0.9704286108 -0.7466712891 -1.169674749 -0.942053156 -1.320537986)
5(-0.9406437873 -0.7241190685 -1.140734186 -0.9256386524 -1.295941007)
5(-0.9138746715 -0.7046304475 -1.114847772 -0.904810911 -1.268500113)
5(-0.8879716428 -0.6862060857 -1.091391865 -0.8877751345 -1.244424134)
5(-0.8599875558 -0.6657177012 -1.064575405 -0.8700228089 -1.218637401)
5(-0.8342347758 -0.6459438786 -1.036972294 -0.851703332 -1.193360878)
5(-0.8097059114 -0.6253268448 -1.010200668 -0.8335843528 -1.168140106)
5(-0.7838407882 -0.6095354865 -0.9861268164 -0.8166407613 -1.143074405)
5(-0.7604648806 -0.5911758597 -0.9617954618 -0.798411774 -1.118107156)
5(-0.7378518086 -0.5734528802 -0.9395477895 -0.785952466 -1.097950925)
5(-0.7165602108 -0.557851296 -0.9182879396 -0.7682470876 -1.076202121)
5(-0.6966942658 -0.543165121 -0.8982983677 -0.7570804085 -1.055710958)
5(-0.676298885 -0.5276381598 -0.8762262037 -0.7492259561 -1.039075878)
5(-0.6593802787 -0.5152980045 -0.8619294528 -0.7379600463 -1.025260931)
5(-0.6411461334 -0.5046794515 -0.8422534733 -0.7278005819 -1.0107124)
5(-0.625412615 -0.4973021643 -0.8293167981 -0.7212571303 -0.9999159494)
5(-0.6127001682 -0.4883190846 -0.8186828715 -0.7183496207 -0.9958796473)
5(-0.6015590135 -0.4821912568 -0.8090732201 -0.7188466136 -0.9868758796)
5(-0.5919473446 -0.480996064 -0.8044814664 -0.7229598738 -0.9912031514)
5(-0.5845275929 -0.4823020389 -0.8023434345 -0.7309602976 -0.993449474)
5(-0.5799030523 -0.4870881135 -0.8055307087 -0.7422590461 -1.005441641)
5(-0.57842208 -0.4958381155 -0.8132449184 -0.7619809792 -1.021542906)
5(-0.5789414741 -0.5107288901 -0.8270032693 -0.7849844091 -1.04575763)
5(-0.584511859 -0.5279790347 -0.8455945273 -0.8160715121 -1.073227996)
5(-0.5896841014 -0.5546819831 -0.870190394 -0.8545490046 -1.110686634)
5(-0.6013164875 -0.5848475801 -0.9026181823 -0.902706353 -1.151510552)
5(-0.6125919377 -0.6206080557 -0.9432036792 -0.9554906284 -1.198015239)
5(-0.6258558703 -0.668924171 -0.9930924667 -1.013587448 -1.25838473)
5(-0.6435116539 -0.7156327396 -1.051582984 -1.080038796 -1.328888997)
5(-0.6636742305 -0.7809016441 -1.121052383 -1.152443611 -1.414058565)
5(-0.6846555961 -0.8388441316 -1.185174731 -1.232849131 -1.497910026)
5(-0.6997470329 -0.9070338214 -1.250990711 -1.320872494 -1.570280824)
5(-0.7124036371 -0.9825418114 -1.313009555 -1.408533365 -1.620359934)
5(-0.7228524297 -1.04019495 -1.374285807 -1.487537462 -1.650711187)
5(-0.728512131 -1.084828178 -1.425264476 -1.538990303 -1.657854085)
5(-0.7179218253 -1.106341092 -1.473919106 -1.558125004 -1.636413269)
5(-0.6924826084 -1.117594061 -1.495879898 -1.5486002 -1.584479481)
5(-0.6228188918 -1.103207629 -1.489890982 -1.507991658 -1.502573673)
5(-0.5481771979 -1.070018671 -1.447846318 -1.434361023 -1.391301408)
5(-0.4311497001 -1.014603613 -1.368336093 -1.328806016 -1.263691809)
5(-0.3038607863 -0.9285329278 -1.262498934 -1.198402962 -1.118655781)
5(-0.1751534657 -0.8113239767 -1.124380426 -1.043606321 -0.9621487532)
5(-0.05977132943 -0.6732393014 -0.9600486624 -0.8738476273 -0.7855566544)
5(0.04992738628 -0.5010880985 -0.7732348493 -0.6849885009 -0.6087306675)
5(0.1722765961 -0.3154969458 -0.5694803609 -0.4862355023 -0.4314219021)
5(0.3106751629 -0.1104648999 -0.3476758724 -0.2870582923 -0.2535865773)
5(0.5006519171 0.1269648955 -0.1078953278 -0.07986388428 -0.0812846215)
5(0.8891091022 0.4650663742 0.2225506911 0.1875454699 0.1085431815)
5(1.575886292 1.487288687 0.891137858 0.577095777 0.4921907253)
)


60
(
5(-0.4799270202 -0.1174635592 -0.5725060828 -0.3598085998 -0.6546735113)
5(-0.8564168907 -0.386313803 -0.9460586435 -0.6011446975 -1.076141859)
5(-0.9491834494 -0.4784251281 -1.029701115 -0.6750597171 -1.154446036)
5(-0.9321707421 -0.4799644891 -1.001264677 -0.6695951045 -1.113575667)
5(-0.8756547619 -0.4540757971 -0.9323492675 -0.6336331411 -1.024230576)
5(-0.8253146487 -0.4288981146 -0.8773885153 -0.6044669396 -0.9630826799)
5(-0.7879959038 -0.4071109629 -0.8484857364 -0.5809651381 -0.9385584916)
5(-0.7568366244 -0.3835100147 -0.8251944264 -0.5660575466 -0.9266661166)
5(-0.7205505685 -0.3589317912 -0.7972416512 -0.5460214231 -0.9085058709)
5(-0.6817556394 -0.3306105213 -0.7648108142 -0.5239234812 -0.8733702807)
5(-0.6435244483 -0.30411544 -0.7252938765 -0.496493191 -0.8389725028)
5(-0.6029081507 -0.2764826938 -0.6879554342 -0.4725009386 -0.806384929)
5(-0.5620379755 -0.2455482143 -0.6525807783 -0.4461744146 -0.774678633)
5(-0.5221662013 -0.2175352705 -0.6182529616 -0.4215807648 -0.7451255762)
5(-0.4850981429 -0.1897720963 -0.5836009982 -0.3971981167 -0.715198629)
5(-0.4503476001 -0.1628403041 -0.5491486649 -0.3726270319 -0.6852885198)
5(-0.411328055 -0.1359073121 -0.5153904177 -0.3463606083 -0.6552739754)
5(-0.3744761205 -0.1083702194 -0.4844517177 -0.3183396545 -0.6277912733)
5(-0.33918244 -0.08152354571 -0.4484963295 -0.2969604878 -0.5991069019)
5(-0.3032578054 -0.05444215449 -0.4178596648 -0.2720850487 -0.5713135956)
5(-0.2706373161 -0.0273827106 -0.3869919402 -0.2496140299 -0.5432524232)
5(-0.2351885805 -0.001700117178 -0.3577856262 -0.2291061279 -0.517358218)
5(-0.2032668898 0.02447343083 -0.3258599189 -0.2057957146 -0.4940433495)
5(-0.1689751131 0.04918173955 -0.2973110083 -0.1861191411 -0.4715086821)
5(-0.1389420783 0.07131239343 -0.2705828082 -0.1689711419 -0.4521456363)
5(-0.1062272427 0.09458930308 -0.2453597752 -0.1502032782 -0.4346544239)
5(-0.07724831543 0.1118095223 -0.2228664861 -0.1367517724 -0.4186142439)
5(-0.05067862532 0.1331772606 -0.199653547 -0.121572181 -0.4079747244)
5(-0.02064284809 0.150333164 -0.1817823789 -0.1152267166 -0.3965175784)
5(0.006800732673 0.1645014279 -0.1636561978 -0.1071904424 -0.3922947734)
5(0.03314167662 0.1784774086 -0.1496301966 -0.1051899739 -0.3889016454)
5(0.05713311554 0.1887942074 -0.1400835173 -0.1076966202 -0.391209608)
5(0.08172642738 0.1928426727 -0.1335673821 -0.1132995328 -0.4032403227)
5(0.1053611655 0.2010107423 -0.1326016862 -0.1249941318 -0.418621101)
5(0.1288084016 0.2013911428 -0.1366539696 -0.1421531333 -0.4397644231)
5(0.1452330999 0.197144912 -0.1443607516 -0.1668066123 -0.4680328647)
5(0.1705940219 0.1907778845 -0.1591559367 -0.1970793816 -0.5022111149)
5(0.195419104 0.1803592842 -0.1801631594 -0.2356295253 -0.5417110269)
5(0.2214097656 0.1633152865 -0.2115290732 -0.2809649189 -0.596154705)
5(0.2489528263 0.1423114816 -0.24679164 -0.332209949 -0.6594565584)
5(0.2752013594 0.1161925808 -0.2874642705 -0.3909248459 -0.7304612734)
5(0.3148114393 0.09440498572 -0.3352588875 -0.4538508577 -0.8043151467)
5(0.3573395648 0.06601413572 -0.3809502618 -0.5281400261 -0.8782265845)
5(0.4074305327 0.03460619863 -0.4249615117 -0.6058080901 -0.9457532593)
5(0.4645156951 0.004056746396 -0.4704238187 -0.6797034855 -0.9992031734)
5(0.5188585535 -0.01009072385 -0.5100912482 -0.7452547931 -1.035585196)
5(0.5766232586 -0.009002585492 -0.5449101364 -0.7844004282 -1.046944467)
5(0.6348909008 0.007962119376 -0.5647655155 -0.7991942733 -1.02953858)
5(0.7072194689 0.02896368652 -0.561516898 -0.7935118857 -0.9858011033)
5(0.8069210922 0.08013494354 -0.5343053524 -0.752995955 -0.912162908)
5(0.9251745782 0.1375470434 -0.4766907077 -0.6829028191 -0.8149660858)
5(1.049980506 0.2124359432 -0.3886428718 -0.58636461 -0.7024246472)
5(1.169657438 0.3045707382 -0.279533102 -0.465963331 -0.5752616146)
5(1.274758767 0.4182928181 -0.1502799976 -0.3313538942 -0.4386370424)
5(1.36465187 0.5365540952 -0.00342502168 -0.1802538946 -0.289943674)
5(1.437147734 0.6664154788 0.1589078894 -0.01853780887 -0.140285986)
5(1.509825683 0.8102529414 0.3301494473 0.151299266 0.01509888151)
5(1.614200469 0.9774943039 0.5273629294 0.3305012786 0.1693598992)
5(1.972833783 1.402199068 0.9308564382 0.6110131031 0.3798235903)
5(2.306991574 1.890670024 1.421465617 0.9700019055 0.9271545877)
)


60
(
5(-0.385384679 0.0006521607945 -0.440798143 -0.2329924778 -0.5056081128)
5(-0.7137535269 -0.2335264989 -0.7163032718 -0.4088900574 -0.8044663978)
5(-0.8009254594 -0.3045872966 -0.7768073994 -0.460219752 -0.8592126872)
5(-0.7764910644 -0.2965572347 -0.7473496027 -0.4481955248 -0.8195823593)
5(-0.7180898326 -0.2647019276 -0.686360918 -0.4115395545 -0.7512836398)
5(-0.6621610575 -0.2321678838 -0.6295152599 -0.374564453 -0.6971868284)
5(-0.6169563192 -0.1967390241 -0.5874964978 -0.3454287134 -0.6660210848)
5(-0.5741486505 -0.1643447608 -0.5535257891 -0.319936615 -0.6420480075)
5(-0.5324746005 -0.1303473277 -0.5137474277 -0.2899241117 -0.6128018952)
5(-0.4859070814 -0.09335954316 -0.4726898761 -0.257103793 -0.5757754175)
5(-0.436558541 -0.05551625053 -0.4262976024 -0.2240683809 -0.5373006926)
5(-0.3894785517 -0.01769351538 -0.3826999134 -0.1916939556 -0.499236285)
5(-0.3420421175 0.0198214613 -0.3382683485 -0.1565068279 -0.4610904877)
5(-0.2965456789 0.05690952024 -0.2956127238 -0.1223037359 -0.4290379931)
5(-0.2486858105 0.09306191607 -0.2521151024 -0.08970571251 -0.3902368659)
5(-0.2029624816 0.13132625 -0.2083441508 -0.05736173277 -0.3564122472)
5(-0.1595223639 0.1676321386 -0.1661568667 -0.02118392447 -0.3202770621)
5(-0.1125913404 0.2044202125 -0.124631759 0.009243632326 -0.2861511901)
5(-0.07071636761 0.241820436 -0.0831993203 0.04339721246 -0.2532711379)
5(-0.02575166063 0.2776490011 -0.04397035394 0.0743903965 -0.2187185273)
5(0.0170417954 0.3123217037 -0.002165400454 0.1079297233 -0.187138533)
5(0.05809438332 0.3498555741 0.03594931928 0.1378622066 -0.1576708811)
5(0.1008225623 0.3840759418 0.07507611156 0.1693241259 -0.1291651107)
5(0.1441920426 0.4175259476 0.109835222 0.1983171331 -0.1020393309)
5(0.1849265278 0.4504022176 0.147940712 0.2253610918 -0.07325130439)
5(0.2257246188 0.4834688318 0.1832712038 0.2510896853 -0.04993865792)
5(0.2666857441 0.5143777257 0.2180238123 0.2753706322 -0.0299061842)
5(0.3049751253 0.5449833629 0.2483580853 0.2981742896 -0.008304596606)
5(0.3432536716 0.5744742954 0.2780292539 0.3162858835 0.00409350508)
5(0.382570081 0.6004406377 0.3064814044 0.3340087472 0.01944809756)
5(0.4204175079 0.6266028751 0.3321356287 0.3475690356 0.02717761379)
5(0.4595229229 0.6524168676 0.3500826118 0.3572039304 0.03412694291)
5(0.498575056 0.6714712801 0.3725978034 0.363913165 0.03159189237)
5(0.5365314483 0.6936614871 0.3875741693 0.3641780671 0.02927757452)
5(0.5779969972 0.7112225009 0.4014162464 0.3617866948 0.01499172957)
5(0.6192200356 0.7295375563 0.4094352396 0.3566185838 0.000123683859)
5(0.6663839956 0.7442349654 0.4110094278 0.3426725154 -0.02357246517)
5(0.7165942044 0.7563797922 0.4117028289 0.3229967417 -0.05582749616)
5(0.7714814 0.76777645 0.4067686501 0.2964323209 -0.09242962133)
5(0.8331714971 0.7807310337 0.3966767312 0.2665024345 -0.1419558406)
5(0.9046456131 0.7942979227 0.383693131 0.2320042087 -0.1909991545)
5(0.9831180084 0.8095108967 0.3636342204 0.1943940367 -0.2523087815)
5(1.074261595 0.8260950099 0.3499973426 0.1482717233 -0.3196332463)
5(1.168770901 0.8375803584 0.3343775777 0.09080425111 -0.3890904802)
5(1.265828373 0.8569381847 0.325764706 0.03018020998 -0.4541010901)
5(1.36031388 0.8800277815 0.313733222 -0.02830765949 -0.509514071)
5(1.447139154 0.9100487174 0.3132808657 -0.07739350613 -0.5440292781)
5(1.530795784 0.9624526888 0.3142948265 -0.1028447216 -0.5548872442)
5(1.601790261 1.024025282 0.3200629902 -0.1073754493 -0.5348260757)
5(1.714879817 1.09191777 0.3526881262 -0.08564724943 -0.490430557)
5(1.819376632 1.150251211 0.4057495058 -0.03413929551 -0.4139001315)
5(1.93160307 1.225507954 0.4810756592 0.04722415198 -0.3255096921)
5(2.036497427 1.298818664 0.5812845919 0.1462661113 -0.2169641846)
5(2.134515533 1.385791712 0.6919450222 0.2654093176 -0.09508101279)
5(2.201753273 1.470704422 0.8102831901 0.3904117575 0.03789379544)
5(2.265295405 1.56108669 0.9342946873 0.5243503839 0.1789488025)
5(2.309951114 1.65636233 1.072416939 0.6734122017 0.3176636291)
5(2.383471315 1.775804741 1.22921128 0.8240871748 0.4618302099)
5(2.74005957 2.177625343 1.743759876 1.181955496 0.7329636754)
5(2.811732408 2.362903985 2.11740093 1.509475718 1.196669645)
)


60
(
5(-0.3701386548 -0.006750058714 -0.4066406509 -0.2151833618 -0.4591176587)
5(-0.6711616396 -0.2152045812 -0.6123836077 -0.3442974963 -0.6741810133)
5(-0.7558060656 -0.2746625307 -0.6547116525 -0.373140865 -0.7068660829)
5(-0.7317265994 -0.2650238183 -0.6234940808 -0.3531403202 -0.6675389246)
5(-0.6757821027 -0.2310608316 -0.5640162493 -0.3115482125 -0.6041364762)
5(-0.6215302897 -0.1923368722 -0.505417528 -0.2704773447 -0.5512797911)
5(-0.5765339506 -0.1543882791 -0.4565393167 -0.2323935673 -0.5159703147)
5(-0.5326372171 -0.116551623 -0.4151935751 -0.1962615432 -0.4802677554)
5(-0.4892144105 -0.07648460044 -0.3682071219 -0.158287871 -0.4435318542)
5(-0.4412326073 -0.0382530766 -0.3211356146 -0.1187275524 -0.4008625669)
5(-0.3924154682 0.005933439554 -0.2689658142 -0.07722313268 -0.3569790993)
5(-0.3432218648 0.04587881088 -0.220309402 -0.03519537121 -0.313373459)
5(-0.2957972125 0.08758563258 -0.1687018134 0.005959238482 -0.2713140922)
5(-0.2511681433 0.1291277935 -0.1221044312 0.0472765556 -0.2293429184)
5(-0.2028302117 0.1706534153 -0.07236440032 0.0880453279 -0.1888918435)
5(-0.1561341714 0.2117389042 -0.02725924963 0.1287874836 -0.1490723487)
5(-0.1104243228 0.2524201058 0.02256976883 0.1702243604 -0.1076569506)
5(-0.06635164501 0.2930451232 0.0709647542 0.2064090724 -0.0680691569)
5(-0.02048063656 0.3331093843 0.1155788352 0.2503310277 -0.02852672627)
5(0.02313209424 0.3728159543 0.1624966255 0.288632646 0.009118461364)
5(0.06681693932 0.4106370411 0.2074328231 0.327732541 0.04672109211)
5(0.1111118093 0.451677207 0.2523640774 0.3665806695 0.08197952462)
5(0.1521173722 0.4887713847 0.2946790656 0.4021583088 0.1163295351)
5(0.1941132207 0.5261107834 0.3375289826 0.4383084289 0.1499546123)
5(0.2378781982 0.5624311487 0.3799965059 0.4732477642 0.1821641259)
5(0.2774477181 0.5981827957 0.4200551836 0.5057202857 0.2097249877)
5(0.3198397582 0.6339154973 0.4593278682 0.5374807396 0.2396483677)
5(0.3589415002 0.6682599423 0.4936213868 0.567102999 0.2657671214)
5(0.4011756149 0.6993854059 0.5320335399 0.5966022749 0.2866669621)
5(0.440947675 0.7317890479 0.5661178504 0.6188261921 0.3075664141)
5(0.484219034 0.7652029301 0.5980705199 0.6441254988 0.3233024809)
5(0.5246412402 0.7934745777 0.6251122213 0.6631853233 0.3340676976)
5(0.5670852003 0.8240716139 0.6533590115 0.6810961037 0.3454216489)
5(0.6137195811 0.8513056631 0.6818095138 0.6938463072 0.3516214105)
5(0.6605654268 0.8794633178 0.7010317786 0.7040529305 0.3502935883)
5(0.7118825062 0.9118454608 0.72473021 0.710532305 0.3438916488)
5(0.770442758 0.9350342088 0.7416539348 0.7097383418 0.3327137211)
5(0.8337332252 0.9657664977 0.7573715558 0.7073713752 0.3143694728)
5(0.9065107549 1.000264056 0.7718965839 0.7027746478 0.2926786361)
5(0.9901484473 1.032982343 0.7809067053 0.6963764574 0.2660549982)
5(1.081258605 1.073198204 0.7933571314 0.6854250668 0.2332453014)
5(1.182055223 1.113553428 0.8052035538 0.6758011246 0.1910588284)
5(1.289335374 1.160323645 0.8142500925 0.6568336274 0.1400981512)
5(1.400410202 1.209331043 0.8339095233 0.6331682605 0.0791119535)
5(1.5094023 1.257389181 0.8586203403 0.5987342885 0.01527010261)
5(1.619832527 1.310912378 0.8901454997 0.5576956355 -0.04800040057)
5(1.707812984 1.381076899 0.9217036964 0.5187868053 -0.09239942779)
5(1.792148185 1.450083604 0.9434005353 0.4917684553 -0.1175675548)
5(1.871983137 1.524497274 0.9691513524 0.4851735189 -0.1199979034)
5(1.963274619 1.595903133 1.009421801 0.5037084146 -0.09700557334)
5(2.056612523 1.653514004 1.061593542 0.5476754352 -0.0438233721)
5(2.160263214 1.707104162 1.125766792 0.6145079181 0.03026440171)
5(2.231092844 1.76493104 1.216960283 0.7055789208 0.1240519093)
5(2.284158061 1.828964716 1.310516329 0.8076673698 0.2362953669)
5(2.329769432 1.900581453 1.408528138 0.919386375 0.3549835549)
5(2.36334177 1.964888214 1.502395904 1.032909243 0.4816749977)
5(2.419040354 2.037120301 1.599269571 1.148673334 0.6081853339)
5(2.493149251 2.126457148 1.714327732 1.274372909 0.7441690499)
5(2.919665705 2.512694408 2.180273684 1.640436715 1.031065141)
5(3.07324466 2.642007035 2.338687325 1.804321577 1.407192886)
)


60
(
5(-0.400129047 -0.07952182947 -0.4272611733 -0.2598155084 -0.4696437431)
5(-0.687112222 -0.2757968638 -0.5871089496 -0.351546563 -0.6256363656)
5(-0.7747969372 -0.3363405985 -0.6155759126 -0.3624818689 -0.63628023)
5(-0.7605427127 -0.3277658084 -0.5847186304 -0.3332152304 -0.592278794)
5(-0.7135581092 -0.2937370157 -0.5276825422 -0.2873252915 -0.5280480918)
5(-0.6665708552 -0.2604344755 -0.4676125238 -0.2391185195 -0.4721791768)
5(-0.6252787626 -0.2231409342 -0.4212550618 -0.195933623 -0.4288087822)
5(-0.5888679567 -0.1853706937 -0.3730512858 -0.1503404927 -0.3841572615)
5(-0.5484885021 -0.1474469629 -0.3274928279 -0.106641356 -0.3383722773)
5(-0.5075872668 -0.1066509187 -0.2733697172 -0.05845904722 -0.2882933816)
5(-0.4635787917 -0.06802170619 -0.2244234504 -0.01229523241 -0.23775281)
5(-0.4210380324 -0.02702199535 -0.1699996058 0.03747820281 -0.1877920578)
5(-0.3780844102 0.01289939637 -0.1208892968 0.0843118232 -0.1382007898)
5(-0.3364805597 0.05253045852 -0.06898228637 0.1331992338 -0.08949518638)
5(-0.2951686559 0.09231093822 -0.02025997577 0.1794999742 -0.04119788803)
5(-0.2552237889 0.1320891057 0.0304500354 0.2274203496 0.006598571142)
5(-0.2143580693 0.1713124979 0.07836056827 0.2728646894 0.0533999954)
5(-0.1751515293 0.2100531605 0.1267046887 0.3202205575 0.09929684486)
5(-0.1346553023 0.2475319851 0.1749924963 0.3653469872 0.1454617054)
5(-0.09618313197 0.2857655881 0.2222320364 0.4108932341 0.1892091413)
5(-0.05672887444 0.3227225871 0.2684395259 0.455220082 0.2345055133)
5(-0.01848197692 0.3614231364 0.3153003464 0.4994504631 0.2757581412)
5(0.01812435318 0.3970610244 0.3591808658 0.5410023347 0.3178621779)
5(0.05547202173 0.4328606064 0.4033689168 0.5836846473 0.3568692424)
5(0.09174557152 0.4681355948 0.4458512808 0.622773052 0.3958034773)
5(0.1286575988 0.50241236 0.4875975357 0.6622547477 0.4328456228)
5(0.1642849221 0.5350537637 0.5273833889 0.702208396 0.4674963876)
5(0.1996386911 0.5663759604 0.5676454026 0.7373674788 0.4990785813)
5(0.2393258043 0.5997758536 0.6057236712 0.7697862371 0.5290695337)
5(0.2748326978 0.6344981501 0.6424039757 0.8034255231 0.5581445518)
5(0.311237247 0.6621256447 0.6763486664 0.8344545821 0.5823787573)
5(0.3505775083 0.6914748679 0.7112562478 0.8621093635 0.6047013135)
5(0.393918569 0.7253702735 0.7411475112 0.8867881917 0.6237010604)
5(0.4398608226 0.7536433429 0.7739289108 0.9120893342 0.6411034489)
5(0.4868771092 0.7868414771 0.8011996997 0.9336574533 0.6522805277)
5(0.5415980709 0.8179673467 0.8288911606 0.9505419847 0.6582899519)
5(0.6001154102 0.8511259684 0.8602460282 0.9667210848 0.6629973772)
5(0.6710804508 0.8922895804 0.883377248 0.9780472806 0.6585291039)
5(0.7493627388 0.9361959226 0.9103720699 0.9886080261 0.6549534381)
5(0.8397637311 0.980877909 0.9404537444 0.9972214685 0.650909753)
5(0.9395182986 1.037492308 0.9678706284 1.014392789 0.6373385838)
5(1.045225007 1.096323935 1.004204746 1.028951642 0.6227350374)
5(1.154615887 1.160552214 1.036531938 1.04255258 0.5932373996)
5(1.265838101 1.231568269 1.08715618 1.049967749 0.5478875062)
5(1.371848612 1.30147117 1.140300788 1.045901294 0.4945438063)
5(1.468348351 1.374066888 1.200123661 1.033106224 0.4491033902)
5(1.548990389 1.448755672 1.255137008 1.022982349 0.4020297479)
5(1.631014345 1.521513025 1.309489602 1.011132616 0.3711505945)
5(1.700820787 1.596878758 1.34985528 1.013434362 0.361985963)
5(1.767782041 1.655457204 1.391167249 1.034925596 0.3688261107)
5(1.8509514 1.7004408 1.435111696 1.075269964 0.4014393152)
5(1.910024951 1.738652731 1.491155453 1.137900957 0.4694374477)
5(1.96344678 1.778226205 1.554815329 1.216445848 0.5476151483)
5(1.973050352 1.806434462 1.636119353 1.307529395 0.6445754058)
5(1.982223375 1.858308878 1.709479164 1.408742366 0.7543680601)
5(1.995457967 1.915627452 1.794805856 1.502338766 0.8634558678)
5(2.013269044 1.976249579 1.877221138 1.587779657 0.9791154313)
5(2.074313383 2.079971197 1.987700896 1.680441364 1.109819579)
5(2.574004482 2.513862903 2.438361017 2.05753163 1.470798045)
5(2.989569886 2.82056175 2.467557439 2.07281798 1.670251804)
)


60
(
5(-0.4536516847 -0.1888773315 -0.4792858187 -0.3368530775 -0.5157053466)
5(-0.7340044423 -0.3795807228 -0.6127401825 -0.406352181 -0.6296900687)