/*--------------------------------*- C++ -*----------------------------------*\
| =========                 |                                                 |
| \\      /  F ield         | OpenFOAM: The Open Source CFD Toolbox           |
|  \\    /   O peration     | Version:  2.3.1                                 |
|   \\  /    A nd           | Web:      www.OpenFOAM.org                      |
|    \\/     M anipulation  |                                                 |
\*---------------------------------------------------------------------------*/
FoamFile
{
    version     2.0;
    format      ascii;
    class       dictionary;
    location    "constant";
    object      PM35;
}
// * * * * * * * * * * * * * * * * * * * * * * * * * * * * * * * * * * * * * //

PM35_table
60
(

60
(
5(4.411390563 2.880213449 4.250771147 3.345489946 3.92724331)
5(2.688664933 1.284717561 2.255831869 1.879142003 4.93102382)
5(0.4185460368 3.122799404 2.416138024 1.057919296 0.77274285)
5(1.177940768 3.39650713 2.944152935 1.777048865 5.919674148)
5(2.42478706 2.581124079 1.894243539 2.348633733 1.644937716)
5(2.850721698 1.774385615 1.209585154 1.848996382 1.748955989)
5(1.95670632 1.703916503 1.937950523 1.780026684 2.448798827)
5(1.667290602 1.973913239 2.177444757 1.815529666 1.211889368)
5(2.032630643 1.956479201 1.973336636 1.858842076 2.155145796)
5(1.8819516 2.030884178 2.189664575 1.751036062 2.062154646)
5(1.931801473 1.965236798 1.947697398 1.793346474 1.928400936)
5(1.86316024 1.931627396 1.797712755 1.819544558 1.816609675)
5(1.872219102 1.95843537 1.857931415 1.841416935 1.871784243)
5(1.928569068 1.918509846 1.844688153 1.737693399 1.811929804)
5(1.820241838 1.889693526 1.831350265 1.834539453 1.816729888)
5(1.881310448 1.915811808 1.875423309 1.81188557 1.851868774)
5(1.860620964 1.896001229 1.858587159 1.833576343 1.901898789)
5(1.850602971 1.898712469 1.866580517 1.856309155 1.884988142)
5(1.862254023 1.930886117 1.881258315 1.863448998 1.880366418)
5(1.89940808 1.95518363 1.893773144 1.902517617 1.842648052)
5(1.867881123 1.899067257 1.862594425 1.821696278 1.819418061)
5(1.891306322 1.92559524 1.873170932 1.761243653 1.833284407)
5(1.91222242 1.958743617 1.881700881 1.896543491 1.922827444)
5(1.921723395 2.004973562 1.900763324 1.890346381 1.902389635)
5(1.951526517 2.002304944 1.956758306 1.956165209 1.940435103)
5(1.96049308 2.01524043 1.994767523 1.993162391 1.920899296)
5(1.970705888 2.016877888 1.982319022 2.022270698 1.939112133)
5(1.999314293 2.067833018 2.039018878 2.029592116 1.954740009)
5(2.058815006 2.110217792 2.020601065 2.023858774 1.986982217)
5(2.099769608 2.16613633 2.0503604 2.036020161 2.008553607)
5(2.157387739 2.209021333 2.104466201 2.084274386 1.970947864)
5(2.183814337 2.22857609 2.092888932 2.021210675 1.917601261)
5(2.236679548 2.305701916 2.174470908 2.098006638 2.086909128)
5(2.31059779 2.372789459 2.221719917 2.067560263 1.880789064)
5(2.366007086 2.420462767 2.27388175 2.114752403 1.977469665)
5(2.443247204 2.515653415 2.333092404 2.102085189 1.991465829)
5(2.47708777 2.468474419 2.193127893 2.119487054 1.889816923)
5(2.563878711 2.589607549 2.31981876 2.106278643 1.645345693)
5(2.653039863 2.627176862 2.419260184 2.16355742 1.647295577)
5(2.742016016 2.681707615 2.462041254 1.905047796 0.6710974667)
5(2.743890869 2.651347167 2.353423796 1.727005162 1.131885073)
5(2.782416215 2.668797864 2.258166472 1.170318055 1.360716934)
5(2.819686684 2.654803824 2.161816841 1.023099849 1.877837062)
5(2.897869457 2.807904832 2.42781904 1.38810578 1.996258336)
5(2.891963982 2.755772814 2.13244302 1.494105188 2.020888334)
5(2.883315843 2.735448794 1.598926986 1.634816189 2.112169228)
5(2.826200687 2.218204489 1.069302529 1.966219679 2.220270748)
5(2.675364632 1.983363588 1.425915438 2.144931411 2.351486448)
5(2.767973362 1.689307048 1.62087304 2.264372944 2.4902362)
5(2.174365279 1.088331833 2.005513691 2.385030745 2.634131832)
5(1.717871298 1.625406853 2.120606176 2.542965055 2.792786574)
5(1.497778361 1.983274759 2.241993425 2.710468204 2.961118937)
5(1.921618997 2.2071658 2.388031934 2.90422562 3.143344997)
5(2.176332397 2.375691151 2.577204096 3.120120208 3.364052487)
5(2.402757972 2.581062697 2.809980219 3.399217461 3.584863338)
5(2.799200727 2.833952798 3.104593884 3.688488312 3.83264393)
5(3.504139689 3.20527417 3.506165405 4.07634108 4.110538866)
5(4.712236847 4.0317526 4.123759871 4.781497737 4.270695038)
5(6.26452778 5.616363165 5.407296407 3.572486612 4.874327009)
5(3.745390297 5.244406613 4.702797188 5.774854912 6.710576643)
)


60
(
5(6.883701962 5.296896171 6.351225465 5.297067762 5.678987057)
5(4.509362383 2.852696108 4.025190672 3.820749828 3.646733445)
5(2.107329292 3.465739813 3.577930751 3.179197691 1.916034585)
5(1.307769785 3.653814695 4.096700042 2.722701845 4.644490691)
5(1.860583617 3.414823386 3.866932337 3.207062669 3.616058359)
5(3.086056517 3.172826465 2.750241112 3.093664387 2.984989214)
5(3.422568609 3.022039269 2.767200698 2.760842622 3.389988332)
5(2.795546068 2.987699503 3.079478274 2.855455911 2.598976332)
5(3.102721563 3.020067501 2.957367528 2.892797533 2.875698063)
5(3.007581837 3.063821299 3.159667942 2.831219446 2.947148891)
5(3.040952944 3.04142468 3.121208142 2.834652583 2.948740614)
5(3.029916247 3.02191807 2.966521806 2.820836444 2.850217608)
5(2.920988312 3.021922277 2.910621311 2.86738939 2.874670886)
5(3.034851173 3.026991077 2.91806641 2.779041488 2.820698031)
5(2.923956718 2.97800469 2.870938549 2.815261116 2.809673213)
5(2.953744859 2.988694275 2.895577201 2.819208927 2.815482712)
5(2.947888178 2.977325878 2.890826587 2.81914244 2.845560525)
5(2.942180012 2.970669836 2.887731092 2.844051212 2.858347282)
5(2.927087071 2.97372828 2.887548415 2.837683107 2.861454872)
5(2.961393766 3.019997458 2.918414259 2.891586213 2.857701473)
5(2.951481822 2.990709564 2.887934262 2.882622377 2.85792926)
5(2.958182576 2.990901458 2.909272904 2.795834712 2.811850187)
5(3.001126026 3.014623984 2.910817434 2.864609699 2.875726812)
5(2.991507357 3.064474111 2.926111851 2.879005944 2.881259341)
5(3.021899617 3.083888611 2.959981094 2.928511957 2.920641722)
5(3.039761282 3.097837699 3.02055086 2.989357237 2.938076282)
5(3.069162937 3.108185041 3.009358775 3.029204592 2.963266055)
5(3.084665463 3.140198637 3.060874834 3.06320784 2.987368027)
5(3.150751125 3.191890519 3.072951895 3.079404454 3.023471294)
5(3.192634975 3.255872602 3.099593257 3.074357581 3.037287452)
5(3.257789269 3.319075566 3.167666371 3.144886565 3.078341717)
5(3.309385531 3.357566745 3.182078104 3.130244111 3.006423034)
5(3.357592491 3.424487816 3.244781106 3.171559591 3.134614231)
5(3.427909596 3.501794257 3.327536963 3.197022633 3.055264204)
5(3.5054186 3.555237202 3.365074326 3.236872606 3.090735851)
5(3.57970101 3.662650379 3.503019416 3.289857167 3.122115713)
5(3.656855504 3.664382125 3.420490607 3.270819062 3.162174693)
5(3.729834265 3.769307935 3.47225656 3.341307523 2.949743804)
5(3.820629121 3.822700612 3.557455979 3.344537959 3.183864321)
5(3.945128224 3.898455523 3.665269756 3.400938529 2.496463515)
5(4.015239596 3.910724195 3.623175197 3.374464166 2.546389818)
5(4.060265393 3.952558403 3.626094896 3.08264685 2.585597851)
5(4.121920247 3.933285891 3.591234773 2.548786337 2.656697821)
5(4.186963829 4.011670758 3.842732475 2.597311457 2.772793703)
5(4.24568024 4.012320758 3.733715884 2.653735858 2.844935926)
5(4.234798486 4.054822459 3.573519993 2.744929746 2.943833905)
5(4.237536569 3.96306515 2.854714644 2.84924628 3.060280784)
5(4.189258799 3.678790452 2.692807568 2.957616998 3.197628607)
5(4.219431736 3.731902532 2.752362327 3.088976853 3.355489929)
5(4.195051336 2.884909692 2.855506987 3.235254115 3.521685844)
5(4.06586917 2.942608047 2.985305314 3.421695407 3.712185589)
5(3.273049122 3.067899571 3.145140815 3.629473195 3.915579562)
5(3.099255924 3.234610922 3.33496604 3.866717664 4.129498799)
5(3.229286452 3.435933292 3.573993598 4.126632181 4.384028516)
5(3.455329906 3.692074281 3.85710061 4.439921266 4.640320583)
5(3.904147707 4.025436367 4.206931673 4.761999288 4.91278775)
5(4.691837724 4.484582334 4.653711751 5.149414275 5.201032488)
5(5.713256135 5.300964587 5.290439946 5.640802565 5.430183948)
5(6.958489665 6.780082669 6.841753458 5.303511778 5.943570811)
5(4.693461644 4.890215978 3.751565449 5.712684705 7.45803792)
)


60
(
5(9.759384084 8.520716966 8.590264958 7.497576694 7.544572221)
5(7.843485642 7.536268383 6.961813409 6.624643331 6.146565917)
5(7.174421043 7.088607982 6.468298897 6.289006636 5.822504813)
5(6.994077379 6.902309043 6.402954852 6.1839822 5.859808632)
5(6.952921436 6.806636895 6.442799697 6.165444856 5.992959807)
5(6.942644128 6.717582224 6.443154571 6.11426035 6.022125407)
5(6.856554645 6.639983678 6.335751724 6.06206161 5.933580858)
5(6.741512273 6.559287216 6.237114268 6.000313087 5.827279591)
5(6.645566249 6.478502733 6.152383869 5.934104592 5.757726105)
5(6.600521234 6.423930703 6.107634631 5.899762705 5.719280253)
5(6.535717855 6.385611781 6.074367535 5.873991066 5.704474283)
5(6.513223356 6.344979696 6.054413984 5.849731323 5.693931948)
5(6.478235215 6.313967191 6.029114757 5.824359493 5.669217672)
5(6.440009 6.283227674 6.00163539 5.811384139 5.653962235)
5(6.405480261 6.255329992 5.976490001 5.795882884 5.637218941)
5(6.388861257 6.238455677 5.96414516 5.786431496 5.629103575)
5(6.369959733 6.225694 5.959678515 5.783858207 5.623949851)
5(6.352900134 6.220531749 5.958522548 5.783240469 5.622495806)
5(6.35096246 6.212651602 5.958260948 5.787611369 5.626684412)
5(6.345597662 6.214574312 5.962889901 5.797441629 5.636066001)
5(6.350030952 6.222741785 5.971048491 5.804217792 5.64045593)
5(6.359330273 6.232941148 5.982244705 5.823615328 5.653739793)
5(6.37224507 6.247538244 5.999877248 5.839573899 5.670777082)
5(6.391600112 6.270293772 6.026149005 5.854228829 5.687094743)
5(6.414817395 6.295948385 6.046855413 5.881612746 5.702844644)
5(6.449992318 6.325178311 6.083623035 5.913691594 5.725587911)
5(6.487088905 6.355712297 6.118214961 5.947981504 5.74993738)
5(6.529882904 6.399020787 6.154067767 5.981563434 5.769368481)
5(6.577006351 6.445548579 6.196126796 6.016199303 5.802520739)
5(6.633102267 6.492746085 6.239449132 6.053123194 5.821998707)
5(6.692384473 6.54276908 6.285285356 6.090149589 5.853725067)
5(6.756132349 6.595810998 6.330462312 6.128910795 5.875463818)
5(6.823976232 6.651958777 6.376766485 6.165234406 5.897526067)
5(6.89747393 6.707817355 6.420228785 6.198302461 5.913408382)
5(6.969087164 6.764207992 6.465402966 6.228050542 5.933122622)
5(7.050414005 6.818703024 6.506461043 6.25485417 5.940463314)
5(7.12536278 6.869659396 6.544998882 6.270194726 5.94906791)
5(7.208243649 6.920877119 6.57414103 6.285036556 5.952944118)
5(7.288587455 6.959198959 6.597256043 6.29605318 5.934265815)
5(7.363796199 7.001443437 6.612113873 6.294231912 5.899863276)
5(7.437610032 7.024722301 6.610700735 6.281956938 5.839268745)
5(7.505583843 7.056441072 6.614667812 6.252126226 5.776710778)
5(7.578586019 7.067629507 6.608781055 6.19855265 5.716031534)
5(7.642214905 7.056345154 6.592849823 6.126923361 5.663295422)
5(7.696699883 7.054069852 6.556094956 6.048764569 5.619897628)
5(7.735416728 7.045477363 6.501754777 5.977055785 5.587602143)
5(7.766162466 7.028942501 6.422767163 5.919650053 5.568792238)
5(7.779087421 6.990017348 6.343477892 5.879829662 5.572348874)
5(7.806207261 6.93950071 6.268887583 5.863336137 5.600478238)
5(7.790109458 6.869354069 6.213982682 5.874371238 5.655412005)
5(7.773882788 6.789532551 6.181739184 5.910589025 5.738779601)
5(7.725318937 6.724707813 6.181523447 5.971388776 5.847733924)
5(7.639689228 6.687940897 6.216011728 6.063038283 5.971204964)
5(7.523461974 6.674401765 6.278471507 6.184729645 6.125701644)
5(7.400754729 6.707119172 6.377484821 6.333268855 6.288662024)
5(7.306087888 6.772246013 6.501995279 6.495541122 6.464897639)
5(7.250653229 6.877758469 6.652226745 6.665117538 6.635949159)
5(7.285418985 7.038367235 6.837510377 6.851317315 6.807890569)
5(7.515241445 7.364607001 7.158760156 7.070193882 6.984473445)
5(7.558766481 7.123584902 7.613839381 7.645683572 7.609848306)
)


60
(
5(11.68696153 10.27794345 9.971316318 8.76919288 8.631043535)
5(9.773281622 9.202815892 8.556391612 8.006566671 7.500241952)
5(9.04151751 8.674404922 8.046455253 7.656268563 7.181182236)
5(8.763816587 8.431087737 7.87502722 7.499001773 7.117491641)
5(8.656728704 8.280658669 7.823334784 7.41901926 7.138536937)
5(8.548231127 8.144338445 7.749506458 7.337335144 7.096777316)
5(8.411529439 8.019468191 7.627604328 7.252248109 6.995206845)
5(8.26789675 7.911422747 7.509067123 7.16645609 6.889075475)
5(8.155440145 7.818713548 7.416024632 7.097060421 6.810727927)
5(8.06499139 7.741810099 7.346079663 7.041249589 6.771277282)
5(7.98214203 7.672027997 7.296890983 6.99871476 6.735820601)
5(7.916914386 7.611716453 7.251802092 6.959065848 6.702474752)
5(7.863642622 7.564384941 7.210392647 6.92708127 6.671120474)
5(7.815883533 7.51965811 7.173160638 6.897886537 6.642176402)
5(7.764705638 7.480528839 7.143353731 6.873450394 6.620403581)
5(7.715867176 7.446507132 7.118033155 6.854500268 6.602024953)
5(7.691790746 7.418275754 7.098254653 6.843219855 6.589367837)
5(7.665027197 7.397005249 7.080778143 6.837269197 6.576079324)
5(7.643722312 7.38154054 7.074712177 6.828856922 6.569340953)
5(7.630595712 7.37145576 7.067683562 6.828320752 6.56717822)
5(7.614572497 7.367782191 7.066263158 6.829396663 6.568027051)
5(7.615635969 7.368529585 7.067279659 6.832006478 6.569519196)
5(7.617383599 7.374198047 7.077618912 6.843291921 6.573433817)
5(7.6274228 7.384023868 7.089711413 6.853952606 6.582324852)
5(7.636639351 7.397452711 7.105011382 6.867721377 6.590096124)
5(7.65788743 7.417817665 7.12321689 6.886336798 6.599342226)
5(7.680495982 7.432371248 7.142879318 6.905835562 6.613435725)
5(7.705034105 7.461024139 7.169897243 6.930920156 6.62479708)
5(7.747028404 7.488952344 7.195228738 6.951195263 6.642517907)
5(7.784370224 7.520683097 7.22590161 6.977487846 6.655048312)
5(7.831078613 7.559678831 7.259215388 7.001798578 6.672607181)
5(7.878573933 7.595752775 7.290057505 7.026003499 6.690497047)
5(7.93100741 7.630760053 7.325146051 7.051437051 6.697882294)
5(7.986721471 7.678470571 7.357899759 7.075369195 6.707064314)
5(8.04740671 7.71994194 7.385810562 7.09568274 6.71452802)
5(8.100319333 7.761983303 7.418499525 7.111589797 6.71842917)
5(8.166334438 7.802449943 7.447276412 7.124264077 6.716717239)
5(8.239369498 7.842419274 7.472174467 7.133497865 6.714259841)
5(8.307950263 7.879596423 7.490966335 7.139043478 6.696707221)
5(8.378548921 7.911143814 7.502537344 7.139331926 6.668241417)
5(8.445888372 7.945064271 7.514335683 7.134467155 6.633830501)
5(8.527766659 7.979963944 7.519476296 7.121007687 6.588994224)
5(8.610441976 8.006629263 7.52400574 7.087902047 6.537221488)
5(8.694615199 8.027735933 7.522370333 7.038735591 6.480578799)
5(8.783288323 8.038298336 7.51075382 6.980265541 6.425751401)
5(8.863875569 8.055059294 7.48436088 6.915475256 6.371023031)
5(8.937825624 8.073146518 7.438161233 6.851736645 6.325808455)
5(9.001150491 8.079887458 7.378451013 6.794769106 6.300254907)
5(9.061565318 8.06481503 7.313864844 6.742355468 6.296282604)
5(9.126195175 8.041540404 7.250594388 6.710316163 6.315535852)
5(9.176163103 7.988557194 7.192669947 6.696583773 6.351054566)
5(9.189463545 7.925573901 7.149542704 6.710261097 6.41662726)
5(9.146557601 7.857164082 7.135894743 6.752601049 6.501685329)
5(9.037459429 7.802440491 7.142662483 6.811598222 6.595321249)
5(8.879976691 7.760333396 7.183541304 6.897621588 6.704077207)
5(8.700198948 7.747921008 7.245769688 6.997868922 6.816007584)
5(8.53273147 7.779087311 7.333813235 7.105569187 6.926590212)
5(8.411244703 7.85880251 7.472965066 7.219454312 7.028992423)
5(8.385132063 8.156492009 7.843951018 7.448019382 7.188909008)
5(7.141237935 6.688093517 7.74745218 7.730634652 7.400134644)
)


60
(
5(13.10974467 11.50176211 10.90361559 9.622045375 9.34299639)
5(11.14319893 10.32051982 9.611561942 8.906800423 8.371990515)
5(10.29851027 9.72614127 9.07182547 8.537756045 8.036068831)
5(9.957857783 9.432316586 8.831616492 8.342232839 7.922209334)
5(9.777787336 9.23687556 8.706057379 8.222368751 7.866496361)
5(9.613473034 9.063558943 8.590548615 8.116688102 7.78199794)
5(9.437893323 8.918972976 8.454732459 8.010246132 7.668605454)
5(9.276174368 8.787686944 8.32445723 7.912406648 7.562123823)
5(9.129231548 8.673301853 8.220322875 7.831872081 7.48049432)
5(9.013201997 8.577381377 8.135987314 7.765621916 7.422677543)
5(8.918703663 8.493144778 8.068342586 7.707623411 7.373522409)
5(8.829687504 8.419166534 8.006723042 7.656243073 7.329468043)
5(8.752202079 8.353161599 7.952642172 7.614158994 7.290639249)
5(8.683413914 8.294412582 7.903837516 7.577303406 7.249218482)
5(8.628502703 8.241520308 7.863256641 7.543484266 7.222635455)
5(8.57328815 8.198353177 7.829724678 7.514764268 7.194500653)
5(8.52267754 8.159637488 7.800235239 7.494778623 7.174809817)
5(8.49057081 8.12721847 7.774413369 7.47423912 7.156054752)
5(8.45071093 8.102040797 7.75491746 7.461147492 7.140164805)
5(8.428944998 8.08023618 7.738001416 7.449704532 7.130384868)
5(8.408473924 8.062584516 7.729466767 7.445217073 7.121410633)
5(8.385529935 8.054246923 7.721772229 7.440385971 7.112557138)
5(8.377350911 8.047223786 7.719854182 7.441541598 7.108279721)
5(8.380855515 8.044507606 7.717294258 7.444634188 7.105750294)
5(8.380007111 8.044554067 7.724293521 7.450203227 7.11152191)
5(8.386643236 8.051954393 7.734056835 7.457526547 7.111304701)
5(8.399856662 8.062635972 7.745641979 7.467350909 7.113566171)
5(8.41482062 8.077397165 7.75848213 7.479777584 7.121839434)
5(8.434247321 8.093923102 7.773980257 7.491260933 7.123441311)
5(8.460890367 8.112350379 7.793652358 7.506802545 7.133916254)
5(8.492151813 8.135917685 7.813904957 7.52178756 7.139578236)
5(8.526088104 8.161693142 7.82975967 7.536438108 7.149774158)
5(8.563510228 8.187364928 7.85636858 7.551223433 7.153063258)
5(8.602275474 8.21526689 7.879510099 7.566613151 7.160918413)
5(8.647637423 8.244050857 7.903040615 7.580862463 7.159575335)
5(8.695890802 8.276427882 7.925305319 7.595811485 7.164330758)
5(8.747665081 8.309226649 7.943142944 7.607088605 7.161279712)
5(8.802630821 8.341890573 7.966465784 7.613219056 7.152174411)
5(8.861334216 8.374646443 7.98617474 7.617602895 7.146151992)
5(8.925443242 8.408285135 8.003619686 7.625930971 7.129020732)
5(8.995822142 8.445190172 8.019748546 7.634912768 7.114402739)
5(9.073275234 8.482242028 8.033327271 7.637841714 7.08842681)
5(9.16188033 8.519311796 8.047846101 7.633113094 7.047501929)
5(9.255854403 8.555381862 8.06602742 7.612525673 6.996171919)
5(9.353518775 8.59188487 8.085409184 7.574973828 6.935918855)
5(9.454948634 8.63008325 8.089889417 7.527234453 6.871483686)
5(9.549111574 8.674698255 8.086610183 7.469947225 6.812217071)
5(9.649906559 8.730365319 8.06659685 7.409437693 6.759562847)
5(9.734924229 8.782438084 8.018976734 7.346041267 6.723514372)
5(9.856422288 8.815926409 7.966885843 7.28630957 6.699588108)
5(9.960725764 8.814943821 7.907941955 7.237279248 6.699909247)
5(10.03973789 8.785132815 7.841605966 7.203171537 6.711523573)
5(10.06610268 8.722959347 7.789224461 7.191105609 6.747324467)
5(10.02832369 8.640449458 7.748831637 7.199187852 6.801934291)
5(9.900000118 8.542615314 7.719981304 7.219000288 6.868300212)
5(9.724249141 8.446383106 7.715657935 7.259386804 6.937341478)
5(9.490407425 8.37554658 7.75589747 7.317870967 7.01390072)
5(9.270251749 8.337055895 7.824558691 7.385703857 7.093573557)
5(9.009361866 8.353150646 8.066757887 7.631858909 7.274909497)
5(7.607970476 7.167047317 7.288908537 7.456917183 7.240694154)
)


60
(
5(14.22367734 12.4400735 11.58007989 10.24152346 9.856885814)
5(12.16814836 11.16175264 10.36545534 9.547445889 8.985970218)
5(11.22499513 10.50061472 9.799792694 9.165429999 8.638587823)
5(10.82422053 10.15746291 9.508501766 8.941302201 8.481005802)
5(10.59557663 9.925889368 9.336663875 8.792736841 8.383748334)
5(10.3908207 9.727274441 9.190958637 8.662770277 8.270117826)
5(10.18220112 9.558074807 9.038681077 8.542570278 8.140888624)
5(9.996694735 9.409095075 8.896721382 8.436037317 8.03358408)
5(9.831089864 9.280713213 8.78137271 8.344022689 7.94417633)
5(9.698929236 9.165596834 8.684900637 8.265823798 7.876257036)
5(9.584170335 9.069837979 8.605264926 8.198488437 7.816200659)
5(9.483214048 8.980265697 8.53218863 8.140275926 7.763549662)
5(9.391692534 8.901971441 8.469939909 8.087861013 7.714102975)
5(9.302279135 8.833195906 8.410216362 8.042034412 7.671435859)
5(9.234500309 8.772255075 8.360369762 8.001121908 7.632228032)
5(9.171555511 8.718378083 8.313031332 7.965584678 7.597895019)
5(9.113317855 8.670044033 8.277365138 7.935295572 7.5698321)
5(9.060805858 8.628405789 8.245754679 7.905552487 7.545091937)
5(9.021308059 8.592837692 8.215926825 7.887803903 7.523420045)
5(8.981341699 8.561545839 8.192702671 7.869593714 7.505004535)
5(8.951597085 8.534647325 8.173083711 7.856121843 7.489090494)
5(8.928339184 8.516115788 8.158271967 7.845363891 7.474970576)
5(8.903190565 8.49870654 8.145972044 7.835748294 7.463997803)
5(8.890951511 8.485997504 8.138817238 7.830483212 7.454938822)
5(8.882128069 8.477267075 8.135628758 7.82790886 7.45061582)
5(8.874739435 8.469608573 8.13279791 7.827405232 7.442924449)
5(8.879950747 8.472973839 8.134075072 7.828965804 7.442831157)
5(8.882361363 8.4768607 8.138240232 7.831929085 7.442008161)
5(8.887967598 8.481013459 8.14568391 7.83800147 7.439027157)
5(8.901785606 8.48928373 8.154379306 7.844370995 7.440173748)
5(8.921322258 8.503788585 8.164586795 7.851545816 7.441551221)
5(8.941288827 8.518571616 8.175012534 7.857688894 7.437548532)
5(8.964470797 8.53565199 8.187805648 7.867514679 7.443506595)
5(8.995673033 8.5526575 8.204716164 7.876916176 7.445739248)
5(9.026993182 8.573631181 8.2208599 7.886446721 7.446429347)
5(9.06200053 8.597211291 8.237947773 7.896455023 7.445451031)
5(9.103281101 8.619659432 8.251744693 7.904510169 7.444748341)
5(9.149165187 8.645858693 8.268969925 7.910250418 7.439015799)
5(9.20084983 8.675788776 8.286265039 7.917458991 7.435152971)
5(9.259734199 8.707568669 8.303991169 7.931280169 7.435172154)
5(9.325732389 8.743541167 8.32232835 7.947234233 7.43094483)
5(9.399937854 8.781091561 8.342632413 7.965347335 7.419886223)
5(9.480113615 8.819918604 8.365950429 7.978559901 7.39939339)
5(9.573403759 8.862621627 8.397088745 7.982550376 7.359908445)
5(9.669173633 8.911472538 8.430838892 7.970355845 7.310450806)
5(9.774713866 8.969814302 8.472985318 7.942247624 7.248053068)
5(9.872209824 9.045016454 8.507205478 7.90284136 7.188166436)
5(9.975186214 9.136509441 8.520988111 7.85076309 7.127961999)
5(10.08668657 9.229808268 8.518810466 7.797281105 7.070884202)
5(10.21755143 9.318042451 8.50778896 7.739363834 7.017257202)
5(10.35684853 9.373246464 8.479118381 7.680158706 6.97785001)
5(10.4949031 9.390995671 8.432354994 7.619197828 6.948986293)
5(10.57750905 9.37733147 8.378296914 7.567047242 6.937268878)
5(10.59987165 9.322018365 8.309517083 7.518271062 6.944623159)
5(10.56614395 9.237692539 8.227398987 7.48449597 6.963078382)
5(10.45290448 9.111085183 8.156556062 7.464435342 6.991943725)
5(10.31213433 8.975848435 8.094699581 7.463084363 7.025849412)
5(10.13049557 8.838772404 8.068002678 7.482865445 7.07205317)
5(9.996695482 8.644391664 8.010204956 7.576574393 7.220138772)
5(8.638439588 7.347087412 7.293402145 7.000987122 6.862397466)
)


60
(
5(15.1522373 13.22813617 12.10403956 10.71581172 10.25650515)
5(12.99453509 11.8445771 10.93515008 10.03287459 9.44399029)
5(11.95891749 11.1049024 10.34908289 9.637997431 9.090355383)
5(11.49481625 10.7193359 10.01880368 9.392867114 8.900512732)
5(11.22464757 10.46090339 9.812990225 9.220788677 8.769655571)
5(10.98776791 10.23313277 9.645758384 9.072428243 8.633351013)
5(10.75922005 10.04411957 9.473733662 8.937707369 8.493498907)
5(10.5471575 9.880132251 9.323854965 8.822035925 8.378469194)
5(10.36948135 9.736310173 9.195205185 8.71967066 8.283436442)
5(10.21668662 9.612779626 9.092644955 8.633076749 8.206010635)
5(10.08896872 9.500569825 8.998651241 8.555859724 8.137500975)
5(9.973395381 9.402550515 8.919192909 8.489816447 8.075347634)
5(9.870481148 9.313882584 8.844598802 8.429477928 8.02030786)
5(9.775747204 9.234780262 8.779969089 8.377222675 7.970265203)
5(9.692076095 9.163904902 8.720346483 8.32901369 7.925715555)
5(9.613608353 9.100786592 8.669114531 8.287669674 7.88642409)
5(9.550859343 9.044676949 8.622571358 8.249488536 7.850705037)
5(9.486146295 8.993977482 8.581827298 8.217838622 7.81956552)
5(9.439336869 8.948949326 8.546292492 8.188634135 7.792155529)
5(9.389593419 8.910469539 8.515133666 8.164337953 7.766195523)
5(9.35007049 8.875437734 8.48818112 8.143156836 7.74691183)
5(9.31865558 8.848354405 8.467193844 8.125390273 7.724872489)
5(9.284865646 8.823114232 8.447036272 8.110429083 7.711154012)
5(9.262517959 8.802130922 8.431543834 8.098984765 7.694674307)
5(9.242434491 8.786279161 8.420454475 8.088095747 7.682232796)
5(9.230128038 8.773038936 8.409583505 8.080749741 7.672491432)
5(9.217700233 8.76444305 8.403577409 8.077024991 7.663517519)
5(9.209395657 8.757396116 8.400466985 8.072544197 7.656996795)
5(9.214638013 8.754750627 8.398849841 8.070277931 7.651017013)
5(9.216594381 8.757662477 8.399970794 8.070588346 7.6464432)
5(9.217399336 8.758509351 8.401488006 8.070423015 7.641613651)
5(9.229272746 8.76183152 8.4061857 8.072824304 7.636914611)
5(9.246470949 8.771882272 8.413368851 8.075976568 7.634645483)
5(9.267121073 8.782897971 8.420938613 8.079733355 7.633224153)
5(9.28805999 8.795419073 8.426838502 8.086323173 7.630240814)
5(9.313373611 8.808265451 8.438293341 8.091200505 7.626693945)
5(9.343859062 8.823293393 8.452122981 8.094344017 7.625576929)
5(9.383056507 8.844181239 8.463869527 8.099661748 7.622100354)
5(9.426338422 8.867490687 8.477284231 8.10899812 7.623018983)
5(9.480475916 8.894101742 8.492600851 8.121245614 7.630868648)
5(9.540337293 8.923998889 8.508097394 8.140350267 7.640197257)
5(9.608914479 8.959408465 8.529478356 8.166970265 7.646207793)
5(9.683394234 9.001921223 8.557860267 8.194369156 7.641063728)
5(9.763739659 9.049980606 8.59748752 8.215244826 7.613352738)
5(9.853621346 9.111043916 8.647555699 8.223649277 7.57256164)
5(9.94301675 9.178170721 8.708706651 8.213783788 7.529316239)
5(10.03228918 9.265554334 8.771179497 8.196766675 7.474644249)
5(10.133672 9.367898081 8.822879874 8.168458408 7.417755122)
5(10.24119976 9.48360063 8.870295357 8.134834142 7.359557344)
5(10.36876158 9.593160384 8.899930529 8.0970387 7.292541664)
5(10.52390845 9.682782701 8.91251241 8.051307355 7.224508261)
5(10.65658813 9.746522028 8.911609995 8.001821416 7.167558422)
5(10.77703142 9.785771015 8.885795573 7.938611904 7.10748843)
5(10.83635457 9.786685506 8.836754546 7.871475399 7.059793498)
5(10.86508095 9.768530975 8.749281553 7.798819012 7.025658269)
5(10.85505566 9.709126627 8.642828085 7.714791519 6.998355824)
5(10.80921784 9.601104529 8.513758331 7.633308764 6.983095862)
5(10.75008941 9.510094167 8.419904491 7.560952119 6.990265817)
5(10.99160624 9.418994463 8.161413525 7.430561784 7.03443043)
5(10.77176622 8.356615421 6.302886083 6.062380948 6.117534889)
)


60
(
5(15.96277963 13.9228074 12.5279122 11.10196554 10.57995678)
5(13.6908526 12.43583272 11.39022798 10.42163842 9.807001401)
5(12.55569668 11.61010277 10.78765125 10.01377748 9.442258662)
5(12.03570999 11.17469076 10.42722045 9.75154346 9.234548574)
5(11.73130063 10.88974057 10.19230094 9.561530136 9.074023635)
5(11.46819082 10.64014744 10.00451713 9.395411881 8.917941894)
5(11.21568806 10.43174573 9.818357731 9.248373155 8.769269134)
5(10.98328414 10.25243521 9.656962548 9.122796383 8.644190486)
5(10.79302027 10.09645345 9.520248344 9.012954153 8.54299072)
5(10.62404211 9.961153908 9.408916078 8.918176088 8.459230556)
5(10.48543304 9.839508246 9.307019745 8.833711351 8.382331886)
5(10.35545548 9.732031256 9.219201215 8.760086998 8.314653773)
5(10.24337467 9.633872208 9.136399962 8.692902562 8.252118423)
5(10.13781599 9.5476186 9.065262888 8.633977718 8.196539959)
5(10.04405606 9.468099414 8.997964754 8.57915553 8.146679792)
5(9.960377071 9.397746696 8.940225857 8.532197327 8.100714424)
5(9.883780079 9.332584838 8.887255388 8.488109381 8.061242541)
5(9.81882383 9.275222988 8.840338097 8.450934016 8.022089166)
5(9.755782207 9.224088125 8.798305352 8.415645358 7.991732704)
5(9.701956532 9.177782453 8.76100026 8.38627318 7.9593812)
5(9.653561816 9.13771344 8.728153376 8.358397202 7.936501326)
5(9.60750903 9.100574655 8.698472506 8.334968759 7.908316629)
5(9.577733419 9.068909522 8.673083565 8.313938103 7.890245849)
5(9.536970105 9.041984084 8.65248779 8.296419341 7.867695869)
5(9.514856038 9.017696401 8.633185179 8.281345982 7.851771344)
5(9.493424892 8.998397168 8.618526814 8.268890314 7.837258532)
5(9.471271885 8.982565288 8.605116259 8.258093251 7.821474126)
5(9.459566646 8.96817191 8.594317857 8.249197578 7.811887979)
5(9.448470936 8.958759189 8.587217817 8.241078031 7.799592274)
5(9.442458618 8.951132292 8.580694243 8.233786319 7.790292403)
5(9.440252194 8.94600361 8.576764064 8.230242678 7.781925671)
5(9.443959764 8.944391017 8.57640708 8.228171915 7.774270859)
5(9.449357601 8.943954414 8.576195484 8.223797611 7.770858423)
5(9.457311865 8.947360463 8.576715032 8.225102614 7.763293763)
5(9.473558555 8.953532154 8.58052253 8.226248496 7.759448743)
5(9.492706645 8.961480449 8.58589077 8.226670436 7.75711683)
5(9.517153908 8.974055737 8.592534657 8.227821871 7.747903996)
5(9.549265647 8.987687143 8.597478261 8.230896813 7.745235726)
5(9.588020056 9.004361914 8.606925788 8.236721413 7.752050573)
5(9.631793681 9.025386075 8.619017893 8.245405302 7.761425152)
5(9.683402059 9.050599897 8.632140487 8.265620419 7.778240033)
5(9.743853628 9.084441097 8.651940196 8.294970464 7.794935699)
5(9.807636643 9.125142307 8.681253395 8.330683631 7.79665395)
5(9.87698914 9.171736287 8.727776553 8.359761913 7.78221488)
5(9.949834796 9.226884102 8.788172958 8.38016934 7.754097913)
5(10.02322343 9.295305806 8.865384491 8.391009741 7.721411083)