/*--------------------------------*- C++ -*----------------------------------*\
| =========                 |                                                 |
| \\      /  F ield         | OpenFOAM: The Open Source CFD Toolbox           |
|  \\    /   O peration     | Version:  2.3.1                                 |
|   \\  /    A nd           | Web:      www.OpenFOAM.org                      |
|    \\/     M anipulation  |                                                 |
\*---------------------------------------------------------------------------*/
FoamFile
{
    version     2.0;
    format      ascii;
    class       dictionary;
    location    "constant";
    object      PM36;
}
// * * * * * * * * * * * * * * * * * * * * * * * * * * * * * * * * * * * * * //

PM36_table
60
(

60
(
5(-0.5166468901 0.2107550565 -0.4681219274 -0.6229864859 -0.4068578495)
5(0.3502865016 -0.8643205234 -0.8903261444 -0.8717093615 1.21342558)
5(-0.4057125774 -0.9634046702 -0.938462638 -0.6862470365 -0.9984781613)
5(-0.8240719773 -0.997967506 -0.8758292706 -1.041115095 -0.6893365742)
5(-1.065422208 -0.9742145308 -0.7734605846 -1.021283742 -0.8634910352)
5(-0.9902166017 -0.8879422661 -0.8836031047 -0.9942724186 -1.056641995)
5(-0.8384586134 -0.8947356605 -1.006213823 -1.039884481 -1.065761044)
5(-0.8784096209 -0.9327118516 -0.984263032 -1.026613947 -1.037688398)
5(-0.8707617905 -0.9285899224 -0.9840969501 -1.0247067 -1.108277782)
5(-0.8734729331 -0.9322108913 -0.969983783 -1.020684474 -1.096242407)
5(-0.8833720095 -0.9306223338 -0.9552301554 -1.026148864 -1.087935393)
5(-0.888267289 -0.9288581087 -0.9661117388 -1.034216779 -1.094242651)
5(-0.902397041 -0.9323447945 -0.9831721562 -1.030488533 -1.094758931)
5(-0.8903597653 -0.9288068146 -0.9823170706 -1.036655317 -1.102802949)
5(-0.8977211015 -0.9371337091 -0.9919596346 -1.044589247 -1.105741976)
5(-0.9031264477 -0.9422907053 -0.995867916 -1.044535003 -1.111072214)
5(-0.9071268123 -0.9469281737 -0.9996436103 -1.051355212 -1.113581458)
5(-0.9127686815 -0.9536307359 -1.006128348 -1.053377606 -1.113034892)
5(-0.92171372 -0.9620395643 -1.012715496 -1.060382278 -1.11690306)
5(-0.9265088036 -0.9637532571 -1.0144619 -1.059975218 -1.118380811)
5(-0.9325675272 -0.9709421914 -1.024473109 -1.060212092 -1.122647339)
5(-0.9417715234 -0.9824655243 -1.029829532 -1.079161858 -1.142472417)
5(-0.9468179126 -0.9911112584 -1.040053623 -1.089512918 -1.144777352)
5(-0.9602131546 -0.998330764 -1.049113274 -1.095697582 -1.150711809)
5(-0.9698463972 -1.00629658 -1.059254761 -1.103517188 -1.155324911)
5(-0.9809221441 -1.019105721 -1.066376341 -1.106069225 -1.159544199)
5(-0.9921751058 -1.033651334 -1.081947578 -1.114492136 -1.166723968)
5(-1.009468636 -1.050341958 -1.09231899 -1.121908488 -1.175259646)
5(-1.021644159 -1.062538834 -1.106336608 -1.134793294 -1.185588284)
5(-1.03841897 -1.075099007 -1.12159356 -1.154744562 -1.200050926)
5(-1.053540152 -1.088411032 -1.133222 -1.161752982 -1.203559512)
5(-1.07108852 -1.106350103 -1.151402794 -1.179199091 -1.23018182)
5(-1.092368089 -1.123389731 -1.167134516 -1.198378029 -1.23532123)
5(-1.111814808 -1.138508795 -1.176807551 -1.20890694 -1.250160156)
5(-1.130569177 -1.157395481 -1.19648848 -1.225872096 -1.270118598)
5(-1.152435937 -1.169124556 -1.196561798 -1.232277004 -1.279167957)
5(-1.171246779 -1.197289316 -1.238597134 -1.263218406 -1.274176339)
5(-1.192270921 -1.205821577 -1.256120364 -1.253690326 -1.286468864)
5(-1.205329948 -1.223093489 -1.261397592 -1.286447191 -1.239604946)
5(-1.210491742 -1.235493819 -1.261994961 -1.18997621 -0.7858996689)
5(-1.22835156 -1.257432897 -1.292213347 -1.156904862 -1.225722451)
5(-1.245026551 -1.269938941 -1.287058895 -1.018446406 -1.320196681)
5(-1.248307843 -1.286897371 -1.243103098 -1.229294705 -1.40466317)
5(-1.243798909 -1.270905243 -1.171337366 -1.347456464 -1.367618452)
5(-1.240941502 -1.278602344 -1.175831141 -1.329916383 -1.34776868)
5(-1.252668903 -1.263514128 -1.050686874 -1.32164944 -1.302729653)
5(-1.244464684 -1.209633925 -1.13724741 -1.344411968 -1.256931095)
5(-1.237268318 -1.242154815 -1.334308158 -1.314936276 -1.210712707)
5(-1.202773295 -1.05829759 -1.332030267 -1.267190536 -1.157149013)
5(-0.7373004519 -1.138741335 -1.36748888 -1.211715852 -1.098896019)
5(-0.7091976103 -1.282260298 -1.323994126 -1.15937276 -1.036914708)
5(-1.265528244 -1.310182743 -1.267428612 -1.090003385 -0.9674550937)
5(-1.338673034 -1.267466963 -1.20552827 -1.010061201 -0.8838685596)
5(-1.266005777 -1.193732088 -1.136256004 -0.9189725223 -0.8024773627)
5(-1.171407771 -1.112618801 -1.048155521 -0.8112486776 -0.69512979)
5(-1.023691477 -0.9976241348 -0.9301093923 -0.6734654162 -0.5737437596)
5(-0.7160061168 -0.8316300464 -0.7636480984 -0.4979186616 -0.4614550195)
5(-0.107398125 -0.4858263616 -0.5036703527 -0.1248981686 -0.262216954)
5(1.104227633 0.3073569498 0.2296230355 -0.6683419447 -0.3764140831)
5(2.582560937 3.038831203 3.620944483 3.829558665 3.850993822)
)


60
(
5(-0.5900815726 -0.7455037865 -0.5342152399 -0.6416453411 -0.5162181591)
5(-0.7244833313 -0.8467761555 -0.7543005987 -0.8072814583 -0.7814983809)
5(-0.8094852526 -0.8086390324 -0.8108507557 -0.881151582 -1.011545614)
5(-0.6544463057 -0.7841150245 -0.7548171777 -0.9204741909 -0.6979302146)
5(-0.7396043967 -0.7949805959 -0.7776561145 -0.867422401 -0.8710663679)
5(-0.7884701274 -0.8069335839 -0.8731595494 -0.8688900624 -0.936989978)
5(-0.7643563457 -0.8129189328 -0.8655395113 -0.8966468084 -0.8713030606)
5(-0.8038520028 -0.8112146075 -0.8301200454 -0.8820646133 -0.9614603767)
5(-0.7737342621 -0.8056555468 -0.8393210118 -0.8741372028 -0.9239290325)
5(-0.7741441039 -0.7992020304 -0.8138936803 -0.8784452038 -0.9120049327)
5(-0.7689841076 -0.7991818022 -0.8157523385 -0.87570922 -0.9098052007)
5(-0.7739238507 -0.7983810066 -0.8309794027 -0.8746254574 -0.9204213949)
5(-0.7861810757 -0.7968091498 -0.8348526565 -0.8664906696 -0.9133373442)
5(-0.7750945458 -0.7951537381 -0.8318543421 -0.8763205824 -0.9189682083)
5(-0.7851387445 -0.7998947536 -0.8371224608 -0.8706662272 -0.9185584073)
5(-0.7815552842 -0.7989122666 -0.8335091592 -0.8692939724 -0.9166526847)
5(-0.782664349 -0.8006749539 -0.8340657371 -0.8690578579 -0.9113434715)
5(-0.7850366533 -0.8024657708 -0.8345925543 -0.8655892633 -0.9085422318)
5(-0.788352073 -0.803604937 -0.8355663893 -0.8668591979 -0.9077679251)
5(-0.7866290892 -0.7999954545 -0.8325170835 -0.8596649218 -0.9086664038)
5(-0.7900760144 -0.806101094 -0.8386237204 -0.8623662476 -0.909151263)
5(-0.7926411754 -0.8094375381 -0.8379720621 -0.878347988 -0.9190614175)
5(-0.7917952341 -0.8101119252 -0.8410931963 -0.8705128942 -0.9101966731)
5(-0.7968255317 -0.8077603258 -0.842952412 -0.8718270062 -0.9121742171)
5(-0.7982503589 -0.810204151 -0.8425202298 -0.867996356 -0.9085650784)
5(-0.8017500649 -0.8140320245 -0.838423891 -0.8624800975 -0.9095796888)
5(-0.8046751603 -0.8196251776 -0.846573141 -0.8606793202 -0.9098907337)
5(-0.8103978254 -0.8237307318 -0.8453049439 -0.861228224 -0.9117601001)
5(-0.8103126666 -0.8246183154 -0.8514750052 -0.8660530617 -0.9123610383)
5(-0.8140548398 -0.8238835845 -0.8565435049 -0.8767738168 -0.9181720063)
5(-0.8149021198 -0.8243653555 -0.8548521305 -0.8728661473 -0.9199053317)
5(-0.8187885788 -0.8298703772 -0.864332253 -0.8886156341 -0.9485755258)
5(-0.824464398 -0.8307364003 -0.8655883412 -0.893192484 -0.9309580879)
5(-0.8267643035 -0.8302943775 -0.8627268757 -0.9027230333 -0.966073779)
5(-0.8285931147 -0.834705543 -0.8700773669 -0.9097749737 -0.9743140735)
5(-0.830928496 -0.827471425 -0.8542261952 -0.9141715045 -0.9845438992)
5(-0.8339542402 -0.8450799185 -0.8947572768 -0.9392383399 -0.9923830963)
5(-0.8369631985 -0.8379674551 -0.9019433682 -0.9400641178 -1.072957165)
5(-0.8359536292 -0.8431498796 -0.8983179022 -0.9600796595 -1.021351642)
5(-0.8245019786 -0.8407767291 -0.8857990912 -0.9618201039 -1.248649442)
5(-0.8263339517 -0.8566132667 -0.9198731411 -0.9869031187 -1.251932129)
5(-0.8344371195 -0.8611906659 -0.9381233532 -1.101662191 -1.253878088)
5(-0.8346658791 -0.8835878828 -0.9678078059 -1.2819614 -1.237796834)
5(-0.8295774196 -0.8671861097 -0.8791305044 -1.279114176 -1.202750453)
5(-0.8210220371 -0.8748950124 -0.9189634885 -1.252970899 -1.18167231)
5(-0.8322518762 -0.8593478516 -0.9731410949 -1.225858375 -1.13994994)
5(-0.8307160553 -0.8914005371 -1.235037733 -1.183515505 -1.085241547)
5(-0.8410747817 -0.9956157659 -1.276027696 -1.132204485 -1.023092739)
5(-0.8085992212 -0.9437992236 -1.242595117 -1.070996627 -0.952775477)
5(-0.7862904175 -1.239131249 -1.189526207 -0.9958601425 -0.8744380648)
5(-0.8011139707 -1.180770785 -1.125237227 -0.9157389623 -0.7930213058)
5(-1.087406907 -1.110204208 -1.049014582 -0.8225081526 -0.704567378)
5(-1.100977066 -1.027992865 -0.9617446872 -0.7179254822 -0.6053251357)
5(-1.019950321 -0.9296119926 -0.8624447504 -0.5998909 -0.496473987)
5(-0.8909823736 -0.8098161424 -0.7398543295 -0.4621303636 -0.3744894801)
5(-0.6951937156 -0.6596961372 -0.5858928691 -0.3008092575 -0.2345736149)
5(-0.3261410321 -0.4518363705 -0.3755267743 -0.09886234463 -0.09915011057)
5(0.2580295935 -0.04327264388 -0.05500227372 0.1619600231 0.07842773719)
5(1.450395737 0.9873380297 1.080387086 0.07600277231 0.3834598296)
5(2.977862954 3.216532997 3.540321614 4.243887157 3.447470293)
)


60
(
5(-0.3807569134 -0.4743952258 -0.2985167383 -0.3396416597 -0.266864736)
5(-0.4266615616 -0.442566331 -0.4001739328 -0.402570191 -0.4070621193)
5(-0.4425541924 -0.4188563546 -0.4377787976 -0.4204789402 -0.4688507791)
5(-0.434696195 -0.4007201742 -0.4273508268 -0.4101625906 -0.4673015746)
5(-0.4111698183 -0.3814793088 -0.3937047617 -0.3863044459 -0.4295870347)
5(-0.3775981575 -0.362601205 -0.361597663 -0.3663760782 -0.390503131)
5(-0.3559287219 -0.34619479 -0.347327293 -0.3473768453 -0.3705543164)
5(-0.3454630058 -0.3343470965 -0.3362658958 -0.3346563595 -0.3628855535)
5(-0.3372698707 -0.3256036831 -0.3305622069 -0.3279030273 -0.3576052686)
5(-0.3240296282 -0.3148877703 -0.3210992765 -0.3167352274 -0.3505500818)
5(-0.3158622906 -0.3026191067 -0.310550956 -0.3045825686 -0.3367849762)
5(-0.3019635853 -0.2929658327 -0.2970913979 -0.2924529439 -0.3217372764)
5(-0.2906774544 -0.2820438602 -0.2855176914 -0.2819538068 -0.3103480732)
5(-0.2811529049 -0.2724315569 -0.2751848027 -0.2690407977 -0.2974453429)
5(-0.2722174091 -0.2630080209 -0.2659686955 -0.2578088297 -0.2862786935)
5(-0.2616980098 -0.2527517015 -0.2547271691 -0.2457950533 -0.2739191012)
5(-0.2519190233 -0.2421082706 -0.2423774679 -0.2328701376 -0.2610521755)
5(-0.2422486593 -0.2304794266 -0.22944892 -0.2194996145 -0.2472485459)
5(-0.2306439238 -0.220544487 -0.2172035365 -0.2053837912 -0.2325082521)
5(-0.2198195719 -0.2084530253 -0.2034125325 -0.1895499091 -0.2167721738)
5(-0.2083552496 -0.1952571448 -0.1896599581 -0.175773975 -0.2024955977)
5(-0.1958819064 -0.1821791825 -0.1751880714 -0.1572308477 -0.185505214)
5(-0.1825726423 -0.1680974005 -0.1595184075 -0.140934418 -0.1680267663)
5(-0.1678194403 -0.1522301363 -0.1407332559 -0.1250471778 -0.1507858217)
5(-0.1528608902 -0.1356167809 -0.1248269725 -0.105208174 -0.1335303963)
5(-0.1347227907 -0.1182157699 -0.1031808071 -0.08392153226 -0.1139757945)
5(-0.1156691932 -0.1003524198 -0.08270831847 -0.06174329167 -0.09431838662)
5(-0.09602372316 -0.07883312485 -0.06142880467 -0.03924252329 -0.07601287804)
5(-0.07405329687 -0.05573762824 -0.03762168275 -0.01592532281 -0.05271447585)
5(-0.04961234273 -0.03226992589 -0.0131806479 0.008211702774 -0.03404003566)
5(-0.02348410047 -0.006858832271 0.01275895652 0.03298286927 -0.0113068291)
5(0.00486221953 0.02021427085 0.03984262879 0.05909862604 0.008796442503)
5(0.03531337815 0.04895364394 0.06704628111 0.08499269134 0.02946259468)
5(0.06827021899 0.07888416417 0.09521627132 0.1104111976 0.04862691556)
5(0.1023133036 0.1104676834 0.1248151527 0.1355945519 0.06902601914)
5(0.1403094608 0.1423403164 0.1540639912 0.1609750558 0.08473729916)
5(0.1772102177 0.1744117617 0.1842453105 0.1821173578 0.1014895892)
5(0.2191226416 0.2084715173 0.2110372969 0.2043632 0.1183558131)
5(0.2611224422 0.2381071827 0.2370446143 0.2265770547 0.1295862957)
5(0.3020139407 0.2707425366 0.2611417611 0.2437004146 0.1365062989)
5(0.3420728864 0.2956396807 0.2783086465 0.2581157134 0.1309485524)
5(0.3802556843 0.3262966395 0.2993461992 0.268028091 0.1213990328)
5(0.4208230223 0.3494572647 0.3164893204 0.269689171 0.1085680291)
5(0.4581805002 0.3642608951 0.3314322424 0.265233058 0.09876167742)
5(0.4939885858 0.3854859304 0.3413348404 0.2551559652 0.09268333278)
5(0.5275935957 0.405562701 0.3503010048 0.2464438361 0.09115323982)
5(0.5649114135 0.4263887125 0.3510864446 0.2419899253 0.09263930021)
5(0.603829796 0.44489838 0.3503625077 0.2424261108 0.09926967419)
5(0.6588827714 0.46749262 0.3484476557 0.2493520777 0.1132847033)
5(0.7050522906 0.4861990871 0.3517753499 0.2652169649 0.1375410029)
5(0.7636862648 0.5009980275 0.3602089102 0.2870739579 0.1710464056)
5(0.8200269335 0.5185005961 0.3731093051 0.3146997979 0.2146866718)
5(0.871368858 0.5403936166 0.3950305113 0.3537004679 0.2668563722)
5(0.9088584057 0.5647589649 0.4250363689 0.4053222445 0.3412106218)
5(0.9372611154 0.6052171712 0.4682591995 0.4741419357 0.4257798313)
5(0.9693653084 0.6560249593 0.5267606922 0.5602445279 0.5291837759)
5(1.015464555 0.7317831745 0.610475877 0.6649370113 0.6484768348)
5(1.129059015 0.8617693407 0.7391103465 0.8092193152 0.7933594462)
5(1.583894721 1.230462102 1.136799716 1.152099416 1.051398145)
5(2.579892838 3.195802425 2.696091202 1.952148409 2.039213824)
)


60
(
5(-0.2123086392 -0.2729589178 -0.1181600889 -0.1270327494 -0.08590765702)
5(-0.2156531377 -0.2172111319 -0.1725127249 -0.1552978332 -0.1701288471)
5(-0.2070360019 -0.1825053079 -0.1834929253 -0.1561121219 -0.1990403204)
5(-0.1912220449 -0.1582435015 -0.1651325185 -0.1391298155 -0.1905387503)
5(-0.1610955175 -0.1359565519 -0.1319776421 -0.1141314327 -0.1560616832)
5(-0.129963362 -0.1148768187 -0.1030729152 -0.09203260276 -0.123387913)
5(-0.1075012134 -0.09861452197 -0.08481863328 -0.07312174873 -0.1030649742)
5(-0.092980061 -0.08373455446 -0.07232496365 -0.06033227898 -0.09230821695)
5(-0.07909302546 -0.07023712452 -0.06150192737 -0.04734384967 -0.0833238527)
5(-0.06566508742 -0.05626898296 -0.0502080036 -0.0344836315 -0.06875927119)
5(-0.05292815431 -0.04369723089 -0.0354128708 -0.01916182585 -0.05375047965)
5(-0.0388361321 -0.03095993605 -0.02087402078 -0.005362337005 -0.03876660264)
5(-0.02436555011 -0.016835194 -0.0068864317 0.009840676368 -0.02339139557)
5(-0.01021651915 -0.003949026283 0.007017955441 0.02439696808 -0.008842790454)
5(0.002203827112 0.008967977409 0.02115559472 0.03936790166 0.00598621456)
5(0.01365481537 0.02165150957 0.03584973222 0.05464840717 0.02137505085)
5(0.0285353134 0.0350034892 0.05088453794 0.07152266901 0.03765277738)
5(0.04279503309 0.04925210409 0.06547394835 0.09011063835 0.05344635855)
5(0.05691649585 0.06397008097 0.08354055403 0.106204926 0.07056147243)
5(0.07254698589 0.07982141773 0.1000130148 0.1251054552 0.08858798451)
5(0.08733647643 0.09658630551 0.1179333559 0.1441904836 0.108006396)
5(0.1050635947 0.1139627042 0.1363270701 0.1634392682 0.1275147236)
5(0.1223430883 0.1329019573 0.1576318266 0.1859697797 0.1471321922)
5(0.1426361732 0.1529131824 0.1787673458 0.2076262855 0.1683446425)
5(0.1625084742 0.173098913 0.200960225 0.2302086123 0.1891040427)
5(0.185221472 0.1966096535 0.2246569516 0.2550083705 0.2110504339)
5(0.2083171688 0.2167734563 0.2486941869 0.2802056088 0.2342006106)
5(0.2322581771 0.2433647812 0.2759606135 0.3081519223 0.2564695799)
5(0.2613286517 0.2691326873 0.3023893475 0.3339700834 0.2816057419)
5(0.2900105086 0.2966262434 0.3314746717 0.3629555495 0.3047088866)
5(0.3217825088 0.3275195684 0.3622428542 0.3916782158 0.3305848071)
5(0.3545845305 0.3576817486 0.3919467219 0.4205958653 0.356274307)
5(0.3897553963 0.3876262741 0.4246848967 0.4509498349 0.3786279332)
5(0.4268898412 0.4238905697 0.457097882 0.4809451514 0.4021716664)
5(0.4662807556 0.4579025556 0.487773355 0.5105223092 0.4255762598)
5(0.5038062807 0.4931764505 0.5216866611 0.5383076509 0.4467431461)
5(0.5466175105 0.5283050613 0.5542573032 0.5656466022 0.4673780354)
5(0.5918317802 0.5636396544 0.5858010481 0.5927104324 0.4886718735)
5(0.6359731505 0.5980248784 0.6153313976 0.6173915521 0.5039822969)
5(0.6805405832 0.6295937066 0.6411673541 0.6386990974 0.5150713332)
5(0.7234383935 0.661763632 0.6672403577 0.6567063334 0.5216041258)
5(0.7709976311 0.6935900401 0.6891322999 0.6718664212 0.5229222699)
5(0.8179295118 0.7218021303 0.7094658219 0.6795873152 0.521840484)
5(0.8655708335 0.7483070032 0.7260087359 0.6828750778 0.5211527011)
5(0.9161254876 0.7707065422 0.7396761034 0.6848787606 0.5241686782)
5(0.9673178352 0.7972989763 0.7522679582 0.685570084 0.52827754)
5(1.021988433 0.827523801 0.7619334402 0.689581676 0.5362682448)
5(1.080894202 0.8591982293 0.7718105639 0.7000883943 0.5494878979)
5(1.146117062 0.8909384601 0.7854981571 0.7125227081 0.5674099833)
5(1.222131509 0.9327979577 0.8049103027 0.7315993867 0.592843448)
5(1.306292853 0.97444972 0.8301458621 0.756469083 0.6231439405)
5(1.394315593 1.023861379 0.8614195058 0.7870174471 0.6608795503)
5(1.48656411 1.077731633 0.8991125549 0.825185807 0.7064685646)
5(1.578509884 1.141328792 0.9414520695 0.8681066796 0.7547298568)
5(1.671792399 1.209771072 0.9945479458 0.9230511941 0.8168454067)
5(1.761052793 1.290340389 1.058297128 0.9916355959 0.8895041844)
5(1.869178174 1.397372983 1.142881336 1.080785636 0.9785635085)
5(2.033775223 1.559813046 1.29423993 1.208254177 1.091935643)
5(2.648261803 2.257142821 1.951021598 1.655956083 1.431781266)
5(3.518564455 3.622007741 3.159103213 2.336823256 3.060389702)
)


60
(
5(-0.07331935216 -0.1140678901 0.0239253058 0.03543426488 0.05348981122)
5(-0.04890787311 -0.04799235104 -0.0009146590812 0.02606059082 0.002332786573)
5(-0.0287028441 -0.007392227559 0.00291179716 0.03438365853 -0.009984730711)
5(-0.006190913014 0.01873917782 0.02566740767 0.05436026149 0.005314248047)
5(0.02344537972 0.04141426996 0.05527974087 0.07864231584 0.03441509303)
5(0.05361544801 0.06287434237 0.0819002665 0.1019154529 0.06334611943)
5(0.07576397893 0.08160534114 0.1020021964 0.1199456877 0.08345813461)
5(0.09297571373 0.09704133334 0.1157544111 0.1342287414 0.09664484912)
5(0.1068802773 0.1115838101 0.1293301424 0.1491561422 0.1088725367)
5(0.1217661758 0.1263104166 0.1422871947 0.164531205 0.123412601)
5(0.1377741854 0.1410614435 0.1579755602 0.179938225 0.1391193567)
5(0.1522209097 0.1553786433 0.1727852019 0.1950780115 0.1553551826)
5(0.1672486866 0.1696273363 0.1883908625 0.2117846452 0.1720407147)
5(0.1813613326 0.1835250221 0.2033461417 0.22821513 0.1862213701)
5(0.1972481009 0.1974180118 0.2192556683 0.2444435763 0.2038949129)
5(0.2120435822 0.212843746 0.2358613438 0.2608618705 0.2197426564)
5(0.2262103372 0.227583321 0.2524291164 0.2800022984 0.2374484601)
5(0.2434603126 0.2432381947 0.269298066 0.2971525941 0.2548964662)
5(0.258169603 0.2601074574 0.2874987516 0.3168314392 0.2729289556)
5(0.276408357 0.2770421381 0.3054379782 0.3359394987 0.2925858153)
5(0.294285683 0.29432463 0.3261726138 0.3579146159 0.3121705077)
5(0.3114264995 0.314345097 0.345912722 0.3788437982 0.3315285272)
5(0.33175132 0.3339843671 0.3681085128 0.4018662637 0.3519581941)
5(0.3546635995 0.3549274979 0.3887897299 0.4255218793 0.3732555539)
5(0.3765645348 0.376021798 0.4135014704 0.4499226527 0.3972185227)
5(0.4006409556 0.3997361046 0.4390443065 0.4750408385 0.4195574133)
5(0.4263817667 0.4246285571 0.4653230876 0.5012467278 0.4420463487)
5(0.4527693291 0.4509368064 0.4920404983 0.5290456345 0.4672301622)
5(0.4805527563 0.4779800792 0.5199280717 0.5561784811 0.4901609219)
5(0.5110402315 0.5058151866 0.5499456909 0.5856512688 0.5166706322)
5(0.5432479289 0.5360869675 0.5805885856 0.6150660573 0.5415413135)
5(0.5768536703 0.567330478 0.6088626105 0.6452146037 0.5683136393)
5(0.6121775527 0.5989664546 0.6431563559 0.6745301095 0.5914459189)
5(0.6485611435 0.6317842204 0.6755584688 0.7050245368 0.617876743)
5(0.6875032023 0.6651922976 0.7082661656 0.7348645294 0.6399561626)
5(0.727567364 0.700107619 0.740960178 0.7654299866 0.6648311115)
5(0.7692078103 0.7350300668 0.7712874147 0.7945519437 0.6869707337)
5(0.8121360768 0.7698761964 0.804351367 0.8211372951 0.7065981317)
5(0.8564114935 0.8043156247 0.8348052472 0.8456291136 0.7267165852)
5(0.9021323591 0.8383085945 0.8633516052 0.86965066 0.7399188968)
5(0.9502043974 0.8722190818 0.8902113444 0.890809477 0.751791228)
5(1.000327355 0.9051984936 0.9138811263 0.9064386988 0.7581925608)
5(1.054056744 0.937467571 0.9349210465 0.9184973282 0.76057539)
5(1.110069558 0.9691333229 0.9543335866 0.9258565161 0.7637820601)
5(1.168054619 1.001084773 0.9732170857 0.9299514528 0.7672313632)
5(1.229671877 1.033960601 0.9875457138 0.934440395 0.7725851742)
5(1.292392024 1.070124195 1.004487469 0.9412658997 0.78237704)
5(1.362129849 1.113951299 1.024519744 0.9529510278 0.7947401912)
5(1.427201687 1.163010642 1.044433067 0.9703915631 0.815905709)
5(1.509576207 1.218024593 1.077198998 0.994908633 0.8411088783)
5(1.593560286 1.279867985 1.121040611 1.027012114 0.8753517752)
5(1.686128354 1.35162059 1.17294415 1.067084612 0.9111257984)
5(1.790273157 1.437960299 1.237429694 1.114838357 0.9526870761)
5(1.910376868 1.535909555 1.311918972 1.168565764 1.000076355)
5(2.034402371 1.641163481 1.392294161 1.228047564 1.055607389)
5(2.176608961 1.764317596 1.486840553 1.302223507 1.121043492)
5(2.332521793 1.910929182 1.617276468 1.406202927 1.203721003)
5(2.549813495 2.120592879 1.81823282 1.557319428 1.3253883)
5(3.31473569 2.951760156 2.83114994 2.269787386 1.838004098)
5(4.019815507 3.824682917 3.930819404 3.265284933 3.203976653)
)


60
(
5(0.04254080783 0.01359218506 0.1396806733 0.1643548524 0.1661135624)
5(0.08373908054 0.08545039099 0.1339138321 0.166129212 0.1357520384)
5(0.1121308474 0.1292180088 0.1462199862 0.1805338047 0.1334952436)
5(0.1380073307 0.1549935482 0.170698228 0.201494664 0.1505944619)
5(0.1672731145 0.177395994 0.1989581004 0.2254673537 0.1780750631)
5(0.1962119441 0.2000415568 0.2237576316 0.2474212742 0.2047192381)
5(0.2177431102 0.2183024252 0.2440962751 0.2660847809 0.2233508598)
5(0.2356756327 0.2345001129 0.2585517309 0.2818005688 0.2387424567)
5(0.2508404774 0.2503373059 0.2733456822 0.2971594282 0.2518349769)
5(0.267157164 0.2642638845 0.2872067984 0.3129330643 0.2671070882)
5(0.2831597925 0.2805349949 0.3038311575 0.3292793927 0.2831706095)
5(0.29927081 0.2945506504 0.3189521716 0.3460571388 0.2998732711)
5(0.3146608192 0.3094274349 0.3361330928 0.3626112523 0.3160511257)
5(0.3285853791 0.3243299874 0.3508692639 0.3794589453 0.3326008523)
5(0.3453231142 0.3396751592 0.3680100395 0.3966851852 0.3488709467)
5(0.3614805362 0.3551478641 0.3830933206 0.4140671294 0.3654842809)
5(0.3774545282 0.3709752501 0.4017737766 0.4329564582 0.3834116283)
5(0.3932544658 0.3873390127 0.4200371323 0.449630999 0.4015216595)
5(0.4115428412 0.4046807962 0.4379624027 0.4717315776 0.4202435105)
5(0.4288342777 0.4221932594 0.4576193526 0.4913643571 0.4391534372)
5(0.4476405047 0.4398029991 0.4773926208 0.5129370847 0.4588615875)
5(0.4681536712 0.4604860119 0.4987814304 0.5350802075 0.47894548)
5(0.4874476959 0.4801537955 0.5199952571 0.5569048678 0.4998191883)
5(0.5095526781 0.5009279361 0.5429286312 0.5808693836 0.5215553331)
5(0.5329234001 0.5233390453 0.5675539911 0.6051702818 0.5444477766)
5(0.5563332132 0.5446653244 0.5915040188 0.6304187046 0.5657023281)
5(0.5831366044 0.5711706508 0.617211319 0.6565091842 0.5901720549)
5(0.6091436064 0.5968848559 0.644156089 0.6830948996 0.6143501453)
5(0.6368320092 0.6227622953 0.6721169313 0.7112262784 0.6376659317)
5(0.6667977155 0.6501422888 0.7008866718 0.7398884738 0.6629380478)
5(0.6988313818 0.6803403306 0.7302987642 0.7686931747 0.688276908)
5(0.7310472256 0.7103420887 0.7597581547 0.7971585591 0.7109437619)
5(0.7648238487 0.741272446 0.7900747483 0.8274390608 0.7378063814)
5(0.8014921086 0.7724786016 0.8226638663 0.8569872704 0.7629917872)
5(0.8385339459 0.8053256532 0.854400712 0.8863154068 0.7873230916)
5(0.8769957094 0.838825803 0.8863772596 0.915965258 0.8105530405)
5(0.9179773448 0.8716627431 0.916474929 0.9442697046 0.8338598976)
5(0.960516381 0.9056290817 0.9475775934 0.970807939 0.854887568)
5(1.005413806 0.9405007206 0.9774252946 0.9962618464 0.8742907036)
5(1.053047906 0.9751904129 1.006179239 1.021276661 0.8907995882)
5(1.103509879 1.010397247 1.033580204 1.041602712 0.9014702623)
5(1.156920027 1.045111448 1.059297498 1.05906888 0.9094268579)
5(1.212390714 1.07999547 1.082642961 1.072038095 0.9157525516)
5(1.272319335 1.116175518 1.105120118 1.081929718 0.920335864)
5(1.333264068 1.154071846 1.125163545 1.088858776 0.9253801629)
5(1.398620168 1.194762839 1.14832802 1.094703767 0.9292463961)
5(1.462585857 1.240600821 1.172081487 1.103324912 0.9374571116)
5(1.52827363 1.291284883 1.196694581 1.114560142 0.9496897172)
5(1.594851275 1.344845547 1.228432539 1.135657496 0.9678165662)
5(1.665174667 1.407572138 1.275153058 1.166316081 0.9932379271)
5(1.739585757 1.474767627 1.334018697 1.208248757 1.029079772)
5(1.826303448 1.552581049 1.406827249 1.260086009 1.070962277)
5(1.915262771 1.650569935 1.498114093 1.327554181 1.117909721)
5(2.01689986 1.761098788 1.606304365 1.399576051 1.174652065)
5(2.138581215 1.895517225 1.720956979 1.488221853 1.235290963)
5(2.28552253 2.047913438 1.85855869 1.59291536 1.30803051)
5(2.471792835 2.233365097 2.030705173 1.728895895 1.40073326)
5(2.718861152 2.477605741 2.282730569 1.94090064 1.54883016)
5(3.599317405 3.402819616 3.360137926 2.808769875 2.170361431)
5(4.461154426 4.213759939 4.188971503 3.771408446 3.497155144)
)


60
(
5(0.1411835719 0.1197983154 0.2365645626 0.2689899097 0.2600194152)
5(0.1935996482 0.1931526955 0.2424662887 0.278727772 0.2422996158)
5(0.2283293451 0.2374468862 0.2606687385 0.2966419734 0.246977535)
5(0.2543174565 0.2641187338 0.2856293836 0.3183263035 0.2647115136)
5(0.2821006237 0.2874215534 0.3127808277 0.3411717015 0.2907117428)
5(0.3101814169 0.3082142812 0.3375718804 0.3632882866 0.3157445962)
5(0.3328527056 0.3268487752 0.355648482 0.3811567394 0.3340428118)
5(0.349936682 0.3436934529 0.3724861909 0.3980151214 0.3497509106)
5(0.3669290614 0.3590517101 0.385860616 0.4130059448 0.363576899)
5(0.3825030894 0.374904585 0.4024821574 0.4298218836 0.3790734713)
5(0.3992399385 0.3894653644 0.4170516834 0.4456599694 0.3952017837)
5(0.4150993606 0.4049989338 0.434592688 0.4632663412 0.4115635255)
5(0.431242741 0.4197809837 0.4496771687 0.4795443519 0.4282225562)
5(0.4468728938 0.4350531093 0.466973779 0.4973554354 0.4445384282)
5(0.4628558118 0.4502933946 0.4826742898 0.514105787 0.4612088546)
5(0.4783110187 0.4661119107 0.5003505676 0.5327719205 0.4784118137)
5(0.4956026483 0.4823793195 0.5172666494 0.5503371858 0.4958203241)
5(0.5116246547 0.4989594556 0.5355602673 0.5703655286 0.5138196213)
5(0.5304757734 0.5155611337 0.5540386945 0.5891788163 0.5323622822)
5(0.5478806007 0.5341400301 0.573729124 0.6101194374 0.5507814899)
5(0.5672594598 0.5515684851 0.5933632274 0.6306060904 0.5710775633)
5(0.5877272575 0.572215673 0.6153338705 0.6526681619 0.5902076146)
5(0.607626109 0.5920421871 0.6361389106 0.6748733088 0.6116978497)
5(0.6296982966 0.6125439491 0.6583351415 0.6985800515 0.6325160635)
5(0.6520021296 0.6350262268 0.6827756736 0.7218136241 0.654313719)
5(0.6767662627 0.6573536644 0.7057854383 0.746384017 0.6768441985)
5(0.7011729841 0.6816773712 0.7314729274 0.7730692739 0.699604815)
5(0.7262923609 0.7060208223 0.7577446901 0.7982874173 0.722809368)
5(0.7563350981 0.7317272992 0.7842125328 0.8249949653 0.7464528425)
5(0.7847489343 0.7602193791 0.8124086795 0.8531204217 0.7709342368)
5(0.8133191627 0.7868127403 0.8399026641 0.8802105453 0.7950396194)
5(0.8452586831 0.8143313698 0.8686095221 0.9088694284 0.818738821)
5(0.8794363923 0.8450760185 0.8993180788 0.937670468 0.8432926175)
5(0.9148726957 0.8758469624 0.9289960641 0.9657071086 0.8680341237)
5(0.9504398596 0.9068161766 0.9572927899 0.9952456369 0.8913132849)
5(0.9879251009 0.9374546505 0.9882366521 1.023191285 0.9141094162)
5(1.02725337 0.9690727766 1.019632613 1.049885197 0.9379923306)
5(1.070066049 1.002789139 1.049175714 1.076599838 0.9588692533)
5(1.115050447 1.036856453 1.07799712 1.102682543 0.9781144654)
5(1.164291907 1.071413598 1.106511038 1.125895111 0.9951263934)
5(1.216507377 1.10676123 1.133731054 1.146518345 1.007181015)
5(1.27163724 1.143228583 1.160956276 1.164856857 1.017259049)
5(1.328859137 1.182337706 1.187315521 1.179854587 1.025923107)
5(1.387913358 1.223371421 1.213501979 1.191902373 1.030508786)
5(1.449045198 1.268518874 1.239359484 1.202396306 1.034505103)
5(1.509947448 1.31383131 1.267294762 1.210439222 1.039946985)
5(1.57006046 1.36302724 1.297695379 1.221987266 1.044200223)
5(1.634340643 1.413393665 1.330067082 1.236965534 1.053548918)
5(1.694229793 1.467071838 1.373196053 1.260501708 1.070610547)
5(1.75306647 1.523929679 1.42518674 1.296090959 1.094567295)
5(1.81925889 1.585914263 1.489355368 1.345293294 1.127604547)
5(1.878992276 1.658703365 1.572016492 1.414796906 1.177463564)
5(1.953792075 1.745331118 1.671251313 1.497281494 1.231403048)
5(2.030584373 1.847198086 1.790258051 1.603216384 1.299569035)
5(2.129655958 1.982203963 1.928407203 1.725337759 1.380525088)
5(2.254909453 2.138549732 2.097480003 1.871222651 1.474965112)
5(2.414337228 2.324054899 2.30090351 2.050735815 1.601380003)
5(2.642861555 2.598259114 2.609653104 2.313065603 1.811178717)
5(3.561723483 3.551584102 3.735508649 3.359237988 2.754357037)
5(4.502211665 4.564726176 4.697777965 4.452483032 4.002243754)
)


60
(
5(0.2274852164 0.2086434953 0.3185262931 0.3566256395 0.338243372)
5(0.2863936355 0.2823100668 0.3323746184 0.3717810094 0.3303324254)
5(0.3244069088 0.32779756 0.3547610719 0.391739339 0.338905763)
5(0.3507069056 0.3535596257 0.3802809038 0.4136546493 0.3585124281)
5(0.3777077532 0.3769922747 0.4057251487 0.4362658029 0.3817908913)
5(0.4050629953 0.3972723406 0.4296871085 0.4573145045 0.4055986798)