/*--------------------------------*- C++ -*----------------------------------*\
| =========                 |                                                 |
| \\      /  F ield         | OpenFOAM: The Open Source CFD Toolbox           |
|  \\    /   O peration     | Version:  2.3.1                                 |
|   \\  /    A nd           | Web:      www.OpenFOAM.org                      |
|    \\/     M anipulation  |                                                 |
\*---------------------------------------------------------------------------*/
FoamFile
{
    version     2.0;
    format      ascii;
    class       dictionary;
    location    "constant";
    object      PM38;
}
// * * * * * * * * * * * * * * * * * * * * * * * * * * * * * * * * * * * * * //

PM38_table
60
(

60
(
5(-4.077053592 -4.136201619 -3.890073028 -2.010429136 -4.530691623)
5(-5.235534987 -0.2092757726 -1.203353921 -1.013698659 -7.927811398)
5(-0.4725182097 0.05261492629 -0.5082402303 -0.9587013257 -0.3102515411)
5(0.3610818367 -0.006767672126 -0.4682482895 -0.03460015808 -0.6059805182)
5(0.4075238624 -0.02972701035 -0.564766811 -0.07208544255 -0.3782839848)
5(0.1086452316 -0.1644183568 -0.2016613526 -0.1413496221 0.05019538562)
5(-0.2832550073 -0.1368603747 -0.04820669315 -0.04347235262 -0.0427148805)
5(-0.06208055598 -0.05729490618 -0.1677034941 -0.1272013902 -0.1469184641)
5(-0.0899227023 -0.1140109132 -0.184888663 -0.1444157352 -0.0062274327)
5(-0.1074187931 -0.1339838879 -0.2423015646 -0.151770991 -0.04357895085)
5(-0.1491022564 -0.1577872165 -0.2789403747 -0.1510143043 -0.06866042025)
5(-0.2087285575 -0.1666212546 -0.2489109376 -0.15244958 -0.06391057493)
5(-0.1761665023 -0.1758754204 -0.2258197004 -0.1815471563 -0.08590429749)
5(-0.2287784842 -0.2114637616 -0.2517960445 -0.1805082689 -0.1015342445)
5(-0.2226614477 -0.2196137956 -0.2595325392 -0.1999782556 -0.1148232175)
5(-0.2428758536 -0.2396460039 -0.2771236517 -0.2300247208 -0.1372079756)
5(-0.2721247534 -0.2636622611 -0.29283499 -0.2416766208 -0.152165024)
5(-0.2970235896 -0.2822579487 -0.3075126075 -0.2638836698 -0.1737473426)
5(-0.314166104 -0.3027943237 -0.3269410587 -0.27336001 -0.1984768991)
5(-0.3489659194 -0.3418787004 -0.3592085633 -0.3079270539 -0.2199060308)
5(-0.3718229514 -0.3617941625 -0.3719206493 -0.3368632964 -0.2498864988)
5(-0.398750316 -0.3873239848 -0.4101081071 -0.3473868642 -0.2513157195)
5(-0.4442558118 -0.4213303055 -0.4380132901 -0.386700235 -0.2859972788)
5(-0.467882695 -0.4656503054 -0.4725845486 -0.4221074404 -0.3076266681)
5(-0.5121339158 -0.5048443471 -0.5082591903 -0.4578056112 -0.3454549647)
5(-0.5536661788 -0.5428104676 -0.5548582542 -0.5031993119 -0.3812420615)
5(-0.6022350333 -0.5809512343 -0.5780039025 -0.5415399082 -0.4153995939)
5(-0.6443555129 -0.6262838385 -0.6295063824 -0.5836467725 -0.4433063274)
5(-0.7112435088 -0.6851204498 -0.6660903298 -0.6159329622 -0.4736907672)
5(-0.7677192542 -0.7503947281 -0.7114844141 -0.6387736456 -0.4948450702)
5(-0.8385874201 -0.8153859053 -0.7718975382 -0.6895525915 -0.5324922494)
5(-0.9017342224 -0.8701291755 -0.8089241424 -0.7014210464 -0.5280092908)
5(-0.967629694 -0.9403698004 -0.870048066 -0.7453215074 -0.5968825822)
5(-1.047240105 -1.013830863 -0.9331290205 -0.7776567439 -0.5790896891)
5(-1.126647812 -1.076121525 -0.9809104461 -0.8154391094 -0.6026673769)
5(-1.206425037 -1.164115792 -1.059757237 -0.8526571889 -0.6263113423)
5(-1.281021994 -1.184351323 -1.018959922 -0.8553605975 -0.630404009)
5(-1.361342428 -1.278228532 -1.08397228 -0.8905566959 -0.547883551)
5(-1.450475125 -1.32848777 -1.153885108 -0.8989375415 -0.5833893436)
5(-1.544193179 -1.386397639 -1.206046918 -0.9125431142 -0.6484351853)
5(-1.586661408 -1.399938205 -1.17096981 -0.8748792606 -0.4035105543)
5(-1.62704365 -1.432845374 -1.155737493 -0.7431590999 -0.3459117355)
5(-1.672607202 -1.436440499 -1.135020886 -0.4647257313 -0.3271168121)
5(-1.720351732 -1.505603009 -1.298292285 -0.5175499175 -0.3509201186)
5(-1.731921802 -1.483696972 -1.202840399 -0.5535476082 -0.2921908751)
5(-1.70563509 -1.479948701 -1.036224041 -0.5272512307 -0.341903797)
5(-1.675375075 -1.322411269 -0.6481579278 -0.544302835 -0.3507055584)
5(-1.616136904 -1.163368278 -0.6115496945 -0.5584511144 -0.3208910908)
5(-1.622706473 -1.09272905 -0.6478544772 -0.5730353304 -0.3043421669)
5(-1.635188198 -0.6755247843 -0.6920314032 -0.6024930055 -0.3117682468)
5(-1.371703206 -0.7988765551 -0.685788227 -0.5688508071 -0.3137659824)
5(-0.849872923 -0.8050822645 -0.6957920064 -0.5709251177 -0.3306119281)
5(-0.8582750709 -0.7975054463 -0.6990690778 -0.5825645431 -0.3966754641)
5(-0.8768863894 -0.8094469144 -0.676227352 -0.6240593827 -0.3661840275)
5(-0.882544395 -0.7945107661 -0.6681824499 -0.6158184681 -0.4383579122)
5(-0.8229200955 -0.8111339127 -0.6830256693 -0.7021264436 -0.5137444049)
5(-0.7821314415 -0.8363481057 -0.7184619698 -0.7514828781 -0.3403040544)
5(-0.6036583665 -0.890058126 -0.7060871085 -0.7089146838 -0.8704863401)
5(-0.1563551516 -0.867524259 -0.8942896755 -0.1695083593 -0.09310139905)
5(-0.2014138466 -0.9496813801 -1.283237148 -1.348111154 -1.1608501)
)


60
(
5(-2.177139626 -0.3228377779 -2.063421988 -1.190701709 -2.145244318)
5(-0.9491302154 0.004081800744 -1.108281802 -0.7192220744 -1.199730323)
5(-0.07768062977 -0.2001279248 -0.5899358924 -0.3756472829 -0.2051365012)
5(0.1471630404 -0.2589566287 -0.5033234745 -0.1656824507 -0.6444264079)
5(0.1280580559 -0.2034964793 -0.3710102516 -0.2496247942 -0.1692014757)
5(-0.1129495246 -0.1730676309 -0.1482662535 -0.2393144902 -0.01539316416)
5(-0.2972532767 -0.1773018504 -0.2207922323 -0.1965197532 -0.2210219723)
5(-0.1951530413 -0.2023253009 -0.3426390631 -0.2583473597 -0.08890407485)
5(-0.249240621 -0.2364258242 -0.33628538 -0.2895093661 -0.1811164851)
5(-0.2301505242 -0.2685627813 -0.4030330469 -0.2847028243 -0.2020604632)
5(-0.2522736829 -0.2857145844 -0.4070202599 -0.299306201 -0.2084826927)
5(-0.3040815271 -0.3048508338 -0.3817403753 -0.3149894128 -0.200145008)
5(-0.3285805787 -0.3310739217 -0.38956848 -0.3523357095 -0.2302693234)
5(-0.3893339471 -0.3631925023 -0.4127093763 -0.3455966664 -0.2462924074)
5(-0.3892483429 -0.3781731607 -0.4289119287 -0.3849497782 -0.2687131358)
5(-0.4244573971 -0.410525807 -0.4602320236 -0.4139720704 -0.2985855978)
5(-0.4531808244 -0.4386194115 -0.4845065646 -0.4413517744 -0.3335798843)
5(-0.4859741624 -0.4709744881 -0.5101671514 -0.4755314037 -0.3603108666)
5(-0.5163420903 -0.5080009526 -0.5399130379 -0.4971838168 -0.3878619154)
5(-0.5652474828 -0.556846941 -0.5808322082 -0.5420285285 -0.4152126952)
5(-0.5976377362 -0.5789366628 -0.6050446109 -0.5654233394 -0.4444658084)
5(-0.6348068952 -0.6183950312 -0.6483276862 -0.5784211693 -0.4656994789)
5(-0.6899437078 -0.6676766252 -0.6869510033 -0.6400248191 -0.5206639364)
5(-0.7319041879 -0.726253462 -0.7329377816 -0.6871983289 -0.5564407331)
5(-0.7900975786 -0.7766127809 -0.7839993393 -0.7422871902 -0.6091398368)
5(-0.8459612956 -0.8292083205 -0.8482919638 -0.8035188901 -0.6547482899)
5(-0.9094983861 -0.8818505044 -0.888413777 -0.8581181237 -0.7052523433)
5(-0.9684694597 -0.9446195733 -0.9562114512 -0.9145869917 -0.7527111529)
5(-1.050932335 -1.020125362 -1.010509952 -0.9660138195 -0.8056491097)
5(-1.126852515 -1.103322876 -1.07223522 -1.010060883 -0.8488573988)
5(-1.21509286 -1.188290069 -1.153827482 -1.085384567 -0.9045921289)
5(-1.298714391 -1.264525935 -1.214290583 -1.121141905 -0.9143420699)
5(-1.383327424 -1.353757138 -1.295114706 -1.185981911 -1.013436309)
5(-1.479503269 -1.450502597 -1.385608972 -1.242096487 -1.018072682)
5(-1.580419977 -1.5331127 -1.453409335 -1.304405603 -1.069456007)
5(-1.682660339 -1.644882896 -1.569280639 -1.372564442 -1.11615213)
5(-1.782247832 -1.696247475 -1.568054633 -1.400572641 -1.169021744)
5(-1.877581803 -1.802713684 -1.634320849 -1.469247494 -1.082014415)
5(-1.979237031 -1.875766688 -1.718425449 -1.501486155 -1.238544002)
5(-2.091400225 -1.956531932 -1.808222044 -1.56219731 -0.8707261932)
5(-2.168337959 -1.996235852 -1.811109764 -1.57629777 -0.9368078121)
5(-2.221623775 -2.047609931 -1.840555651 -1.432531466 -0.9768780036)
5(-2.276637869 -2.062436829 -1.838616689 -1.152559982 -1.030363888)
5(-2.323366009 -2.120474872 -1.995311342 -1.191695417 -1.087164663)
5(-2.353697915 -2.125095324 -1.959103427 -1.261477099 -1.085324393)
5(-2.339331944 -2.145866493 -1.887864838 -1.286178164 -1.101222184)
5(-2.324358007 -2.096170704 -1.475390463 -1.313664937 -1.11906213)
5(-2.277681251 -1.939971618 -1.382990129 -1.336461799 -1.119604773)
5(-2.265128795 -1.958404439 -1.39293135 -1.348883961 -1.112266963)
5(-2.222406963 -1.482191043 -1.411300441 -1.371516625 -1.111624224)
5(-2.119296479 -1.506588937 -1.421179689 -1.35371141 -1.071774026)
5(-1.690064382 -1.509597238 -1.417791104 -1.340246064 -1.046590146)
5(-1.570990935 -1.492470326 -1.407549816 -1.309431778 -1.041293013)
5(-1.511647781 -1.469908047 -1.359597269 -1.283588863 -0.9914275205)
5(-1.501350835 -1.430053742 -1.311380914 -1.223577097 -0.9637744069)
5(-1.396844775 -1.361413583 -1.251664516 -1.207675409 -0.9470279437)
5(-1.255935026 -1.269694502 -1.202924005 -1.162523233 -0.791395407)
5(-1.066250806 -1.208953114 -1.128359677 -0.9373839229 -0.9374854139)
5(-0.9018527789 -1.215263241 -1.241883088 -0.6448405689 -0.566319893)
5(-0.7929423347 -1.027940023 -1.013849412 -1.506934538 -1.465465061)
)


60
(
5(-2.214776745 -0.6200205711 -2.0371198 -1.418313806 -2.090102521)
5(-1.3717605 -0.720948318 -1.512252709 -1.189557979 -1.572607956)
5(-0.970515432 -0.8182710958 -1.054175696 -0.971140781 -1.019535501)
5(-0.810867978 -0.8387780945 -0.8559265503 -0.8697776864 -0.7508775851)
5(-0.7920255739 -0.8413731897 -0.8246611764 -0.8511128793 -0.6682153661)
5(-0.8721861503 -0.8661889452 -0.8887877997 -0.8736924354 -0.710420994)
5(-0.952587041 -0.9075252947 -0.9518377271 -0.9176176883 -0.7942339771)
5(-0.9880117701 -0.9362265707 -0.9921236321 -0.9483496453 -0.8470921732)
5(-0.9998006505 -0.9591923304 -1.006596289 -0.9642472021 -0.8616862706)
5(-1.019514008 -0.9847293092 -1.014948962 -0.9783109671 -0.8619505667)
5(-1.040969451 -1.012989873 -1.032019467 -0.9996890956 -0.8787559312)
5(-1.076607593 -1.046270698 -1.061911915 -1.022420645 -0.9086746878)
5(-1.117116424 -1.082129195 -1.096973097 -1.056874635 -0.9422792761)
5(-1.15178664 -1.122594555 -1.130752015 -1.094064025 -0.9784032278)
5(-1.194515205 -1.158087783 -1.166057256 -1.132314254 -1.020107112)
5(-1.238811802 -1.206904171 -1.204903199 -1.173078862 -1.058958427)
5(-1.285620101 -1.252582582 -1.248578923 -1.216835109 -1.099544369)
5(-1.336826702 -1.30457863 -1.296204618 -1.270744805 -1.144714843)
5(-1.393330729 -1.358528915 -1.347714579 -1.317400564 -1.191959913)
5(-1.452067394 -1.418528334 -1.402136327 -1.371434856 -1.245723763)
5(-1.519592011 -1.476701298 -1.46094176 -1.427141657 -1.300451077)
5(-1.593559867 -1.539468992 -1.521859604 -1.487284981 -1.355708398)
5(-1.662368681 -1.610678674 -1.587637995 -1.548284935 -1.4119524)
5(-1.736135393 -1.690909442 -1.659869184 -1.609434305 -1.469896387)
5(-1.818448462 -1.769359253 -1.730923156 -1.678466058 -1.53439507)
5(-1.905500611 -1.849867504 -1.811863404 -1.753539746 -1.605769771)
5(-1.996877931 -1.935483256 -1.89209915 -1.829542059 -1.678418605)
5(-2.090193549 -2.027718364 -1.979127829 -1.90775234 -1.751216055)
5(-2.190092578 -2.124140765 -2.07133275 -1.989095548 -1.829795111)
5(-2.295036402 -2.219595503 -2.162187959 -2.074489595 -1.905426167)
5(-2.400491148 -2.317091655 -2.255126544 -2.16127205 -1.985503306)
5(-2.508573095 -2.417091045 -2.351058154 -2.24891522 -2.063878078)
5(-2.618241085 -2.517527616 -2.443141205 -2.335925194 -2.141603702)
5(-2.725986397 -2.617318477 -2.539644255 -2.422713024 -2.218310277)
5(-2.83023972 -2.716906406 -2.632794521 -2.506224916 -2.294776105)
5(-2.931775397 -2.808248648 -2.720758754 -2.586773382 -2.362394158)
5(-3.024580059 -2.89524281 -2.803805496 -2.65967886 -2.427865773)
5(-3.113014251 -2.973774435 -2.876763688 -2.726786173 -2.490585741)
5(-3.186790586 -3.038661811 -2.939187831 -2.79182976 -2.551477133)
5(-3.246066674 -3.095520355 -2.990686675 -2.848393542 -2.612880523)
5(-3.284737227 -3.130856212 -3.026648065 -2.901131814 -2.666221375)
5(-3.302928095 -3.159769013 -3.058622437 -2.946589515 -2.699235714)
5(-3.306249841 -3.166651177 -3.081853163 -2.979941147 -2.713376122)
5(-3.289097595 -3.153937482 -3.100246564 -3.000461978 -2.717304717)
5(-3.251085534 -3.135258141 -3.110034813 -2.996861187 -2.697932031)
5(-3.191433273 -3.105289066 -3.116988681 -2.983434584 -2.659409312)
5(-3.116690122 -3.074826951 -3.101103138 -2.957074012 -2.619837774)
5(-3.041299474 -3.039887066 -3.069056357 -2.913666502 -2.571802944)
5(-2.966547649 -3.004657811 -3.022132112 -2.847690418 -2.515164334)
5(-2.910159741 -2.960661421 -2.955971624 -2.766132286 -2.450871172)
5(-2.868210537 -2.904494055 -2.875250032 -2.676598648 -2.354772146)
5(-2.817987949 -2.824828808 -2.762277329 -2.580286625 -2.246922374)
5(-2.745034263 -2.716881774 -2.634276655 -2.463552219 -2.123949115)
5(-2.632530594 -2.580089988 -2.49204336 -2.308810453 -1.994840342)
5(-2.475013607 -2.420709966 -2.310338317 -2.128926997 -1.841516773)
5(-2.285204319 -2.214886976 -2.099864061 -1.927566353 -1.654604832)
5(-2.054064668 -1.972348988 -1.876927669 -1.692352984 -1.482624168)
5(-1.795520977 -1.736628213 -1.639140879 -1.440227104 -1.291727289)
5(-1.632722376 -1.555777698 -1.429660341 -1.239041066 -1.080443257)
5(-1.728425434 -2.084913351 -1.863239898 -1.312010688 -1.440038588)
)


60
(
5(-2.109822123 -0.6196530535 -1.903722437 -1.453997745 -1.984361269)
5(-1.452915116 -0.7963798916 -1.558991829 -1.298750768 -1.645210652)
5(-1.157566428 -0.9723733834 -1.202351594 -1.130612887 -1.18700135)
5(-1.025077293 -1.025035073 -1.029311628 -1.045927801 -0.9433860842)
5(-1.009367474 -1.031873361 -1.001693465 -1.026446762 -0.8573600036)
5(-1.080255376 -1.056586071 -1.055107104 -1.049368335 -0.8876151615)
5(-1.160563075 -1.094513527 -1.121985161 -1.092936936 -0.9672273763)
5(-1.20015914 -1.128278413 -1.163044452 -1.12201103 -1.020955041)
5(-1.216024552 -1.155855707 -1.18260592 -1.142082194 -1.041174236)
5(-1.23236733 -1.181705922 -1.192525444 -1.158714534 -1.052662824)
5(-1.257486834 -1.21049414 -1.212480558 -1.180983598 -1.06728052)
5(-1.293355511 -1.242220015 -1.240332744 -1.208237238 -1.09424543)
5(-1.333999079 -1.28164511 -1.277490763 -1.242636317 -1.129513169)
5(-1.377097717 -1.318631204 -1.314954266 -1.278447403 -1.167094197)
5(-1.41907632 -1.363679317 -1.356292671 -1.311805522 -1.205450682)
5(-1.460998034 -1.407798512 -1.396228216 -1.35676449 -1.245262779)
5(-1.511311554 -1.456369004 -1.441370311 -1.401200708 -1.286625086)
5(-1.56223931 -1.510352383 -1.487299336 -1.453209485 -1.330376324)
5(-1.620870138 -1.562721811 -1.540863249 -1.502346285 -1.386203848)
5(-1.680678367 -1.622256757 -1.59653907 -1.56081219 -1.437623074)
5(-1.74596144 -1.685683601 -1.653331852 -1.623241228 -1.494711156)
5(-1.814247781 -1.749898228 -1.716006633 -1.677469562 -1.551774149)
5(-1.884224264 -1.819935465 -1.782269028 -1.742935224 -1.61105759)
5(-1.959765196 -1.894155326 -1.851916066 -1.810029974 -1.673046752)
5(-2.039721457 -1.971641986 -1.923763996 -1.878437748 -1.734759012)
5(-2.123514092 -2.051200912 -1.996902437 -1.948230828 -1.799162582)
5(-2.208258418 -2.129424942 -2.072533372 -2.021895401 -1.86742648)
5(-2.292180146 -2.21580704 -2.152382299 -2.097801418 -1.937667038)
5(-2.383886032 -2.300813441 -2.232395525 -2.173565454 -2.009469293)
5(-2.473577481 -2.385923077 -2.315141161 -2.252682808 -2.081338795)
5(-2.568473089 -2.471866243 -2.399637746 -2.331162878 -2.159064379)
5(-2.663159749 -2.554546447 -2.481366269 -2.408127043 -2.23378639)
5(-2.752991416 -2.636757376 -2.563394916 -2.486475687 -2.307396392)
5(-2.841826961 -2.720253314 -2.644106293 -2.562737891 -2.381534904)
5(-2.924506128 -2.799142091 -2.719855262 -2.637716685 -2.456460746)
5(-2.989109574 -2.872541033 -2.793170115 -2.708215759 -2.527686376)
5(-3.057833223 -2.937998547 -2.860481928 -2.774822148 -2.595224777)
5(-3.113722453 -2.993182507 -2.919424061 -2.838046813 -2.661341198)
5(-3.155640763 -3.037999856 -2.969987844 -2.894504011 -2.727885272)
5(-3.181991996 -3.06859204 -3.009945693 -2.946827804 -2.796966252)
5(-3.189270431 -3.085926056 -3.039958722 -2.999562648 -2.866547975)
5(-3.174724106 -3.087450932 -3.057641436 -3.053096075 -2.926921895)
5(-3.140652764 -3.070543627 -3.071077293 -3.100992959 -2.967932008)
5(-3.092271654 -3.036408407 -3.08023076 -3.13673103 -2.983626166)
5(-3.024481563 -2.988912711 -3.083777134 -3.155811374 -2.982722373)
5(-2.939815034 -2.935401176 -3.084552834 -3.154501153 -2.97431134)
5(-2.84621941 -2.881035 -3.081265662 -3.14327829 -2.961596035)
5(-2.753765208 -2.835288836 -3.068772135 -3.117580558 -2.93715572)
5(-2.672597011 -2.795044981 -3.038427284 -3.072698911 -2.89393903)
5(-2.621794736 -2.770872748 -2.986573543 -3.014773836 -2.837085004)
5(-2.594192146 -2.745005318 -2.926316204 -2.945655408 -2.774344811)
5(-2.578700656 -2.702787256 -2.854887567 -2.852214958 -2.669799246)
5(-2.554907829 -2.646146293 -2.744081572 -2.729243844 -2.537998784)
5(-2.523681118 -2.569892259 -2.61810278 -2.584211 -2.389373634)
5(-2.458382947 -2.461223464 -2.451862 -2.396423499 -2.21434083)
5(-2.355448397 -2.326138376 -2.272917333 -2.171020598 -2.002177772)
5(-2.215549743 -2.160560852 -2.059566037 -1.925844236 -1.781847351)
5(-2.054025301 -1.985902986 -1.833022384 -1.6782937 -1.546949318)
5(-2.033702663 -2.004937895 -1.780710329 -1.485457904 -1.307877047)
5(-2.060396883 -2.198152842 -1.981945707 -1.354183327 -1.740834298)
)


60
(
5(-1.932438133 -0.5121734959 -1.721731118 -1.413020256 -1.858345291)
5(-1.417310708 -0.7584306007 -1.508849637 -1.307312349 -1.625180036)
5(-1.214647291 -1.012641166 -1.232928798 -1.180212398 -1.240463416)
5(-1.117143068 -1.098736116 -1.089402484 -1.113661945 -1.026000518)
5(-1.10426734 -1.110539422 -1.068267913 -1.099190044 -0.9407702178)
5(-1.175571471 -1.137540032 -1.12295958 -1.123951954 -0.9678189605)
5(-1.260039177 -1.18077952 -1.191769071 -1.166542169 -1.046360825)
5(-1.303367628 -1.213748292 -1.23683878 -1.199345853 -1.101494725)
5(-1.319911575 -1.244504444 -1.257500153 -1.218783958 -1.12421417)
5(-1.336666617 -1.273480968 -1.269745739 -1.237235585 -1.135184363)
5(-1.363947338 -1.301060679 -1.291194827 -1.260575867 -1.152490923)
5(-1.400878235 -1.336097031 -1.319398334 -1.289015999 -1.18093665)
5(-1.440765989 -1.371854848 -1.353756481 -1.323808786 -1.216970504)
5(-1.482780884 -1.411957047 -1.395166342 -1.361344582 -1.249952577)
5(-1.524586316 -1.45467253 -1.435200322 -1.398159141 -1.290209816)
5(-1.572469507 -1.497655702 -1.479177323 -1.437535138 -1.327001736)
5(-1.61838754 -1.544888855 -1.521523603 -1.483001722 -1.369877313)
5(-1.671446593 -1.597444157 -1.569773934 -1.520214518 -1.413920338)
5(-1.72444786 -1.650672597 -1.619527813 -1.576235632 -1.461125785)
5(-1.783916486 -1.70712543 -1.671191717 -1.627885122 -1.510619336)
5(-1.844304772 -1.767300554 -1.727497211 -1.683614152 -1.560571298)
5(-1.902979589 -1.832477551 -1.786742435 -1.74276191 -1.617150829)
5(-1.972021591 -1.895546768 -1.848796436 -1.806632493 -1.67595934)
5(-2.046091156 -1.957082785 -1.911063532 -1.872157296 -1.734701189)
5(-2.115140355 -2.02696566 -1.978895434 -1.930680289 -1.798108352)
5(-2.19072368 -2.101577262 -2.045233143 -1.994084357 -1.859081863)
5(-2.267813329 -2.172080918 -2.114699123 -2.06186451 -1.922114002)
5(-2.34510867 -2.245831959 -2.185549739 -2.131832441 -1.991185158)
5(-2.421928046 -2.318942013 -2.256478826 -2.200486173 -2.055494472)
5(-2.497859453 -2.39185605 -2.327566189 -2.270172512 -2.11866002)
5(-2.575320574 -2.465182038 -2.399720694 -2.341183175 -2.181789286)
5(-2.651052135 -2.537524523 -2.46758707 -2.411105774 -2.249250023)
5(-2.719372528 -2.606310344 -2.537249716 -2.478242152 -2.317895632)
5(-2.783548348 -2.671545614 -2.601156807 -2.543916324 -2.387182758)
5(-2.840268017 -2.731251662 -2.66156643 -2.607179127 -2.453593598)
5(-2.890245406 -2.785825862 -2.717008732 -2.66804002 -2.518109556)
5(-2.93083722 -2.828334768 -2.764414234 -2.723565248 -2.576632942)
5(-2.959853526 -2.86139946 -2.806755786 -2.773441949 -2.635229007)
5(-2.975177226 -2.883492519 -2.840752357 -2.818539339 -2.698374733)
5(-2.975527042 -2.893672399 -2.863584858 -2.86171873 -2.767108255)
5(-2.958876089 -2.886922366 -2.875199451 -2.905796504 -2.840536218)
5(-2.926286886 -2.866137498 -2.875695706 -2.949119365 -2.907428231)
5(-2.874119719 -2.829502406 -2.868090034 -2.987914258 -2.957807498)
5(-2.807423782 -2.774819577 -2.855354701 -3.017629109 -2.983893108)
5(-2.728028252 -2.706365555 -2.840859655 -3.034855672 -2.992368974)
5(-2.63748818 -2.630803746 -2.824925764 -3.033556189 -2.991360063)
5(-2.544743718 -2.560298426 -2.807471084 -3.01727238 -2.984805303)
5(-2.449985914 -2.502821004 -2.785707946 -2.992751058 -2.97021026)
5(-2.380495224 -2.462371359 -2.759606054 -2.961630187 -2.944854846)
5(-2.329681333 -2.439323343 -2.728416373 -2.920703048 -2.902721663)
5(-2.29899607 -2.423305406 -2.686140819 -2.865174718 -2.841490293)
5(-2.296959784 -2.41313761 -2.647397299 -2.798886085 -2.763597544)
5(-2.294766123 -2.397811441 -2.585274885 -2.695143833 -2.653747231)
5(-2.288743128 -2.375099661 -2.495801108 -2.569498262 -2.512754297)
5(-2.277171023 -2.330582362 -2.399724619 -2.418594772 -2.342651102)
5(-2.246545575 -2.276181722 -2.269931678 -2.224760548 -2.153475908)
5(-2.196539771 -2.19511413 -2.103649822 -2.013709645 -1.911003235)
5(-2.126374969 -2.096076305 -1.954669938 -1.793538145 -1.647558389)
5(-2.257290882 -2.221962229 -2.028532287 -1.679200163 -1.500598428)
5(-2.298088831 -2.156506352 -1.93445109 -1.684380874 -1.638641789)
)


60
(
5(-1.710758951 -0.3484701173 -1.518604622 -1.33361185 -1.727211069)
5(-1.317507374 -0.6669393004 -1.411239034 -1.267551195 -1.566335844)
5(-1.209356354 -0.9985568966 -1.208860488 -1.179937628 -1.244682421)
5(-1.147437906 -1.119171215 -1.097696789 -1.132685352 -1.055669177)
5(-1.143691167 -1.139500016 -1.088625158 -1.126138035 -0.9779495534)
5(-1.21820807 -1.170918485 -1.148652732 -1.152399289 -1.0040727)
5(-1.307437158 -1.218189344 -1.216834455 -1.196369447 -1.082483695)
5(-1.354879449 -1.253578699 -1.265641591 -1.232102298 -1.139469533)
5(-1.373484428 -1.286314438 -1.290507101 -1.254122051 -1.162946288)
5(-1.393300059 -1.3153928 -1.303108559 -1.268779792 -1.174727887)
5(-1.420511778 -1.347530434 -1.324681019 -1.29485368 -1.193713002)
5(-1.455869031 -1.380332222 -1.355711765 -1.326093807 -1.220335589)
5(-1.49809596 -1.416119001 -1.391204221 -1.357728237 -1.256874022)
5(-1.539444478 -1.455827707 -1.429558437 -1.395966399 -1.29292783)
5(-1.582369097 -1.498545793 -1.468568878 -1.432590907 -1.327488895)
5(-1.626519823 -1.541339568 -1.509044548 -1.473091812 -1.36189562)
5(-1.673257435 -1.587392234 -1.552057897 -1.512691133 -1.4038684)
5(-1.724692317 -1.633977453 -1.601244399 -1.554724814 -1.445827162)
5(-1.777324436 -1.684154736 -1.648078072 -1.60340039 -1.489420726)
5(-1.830205841 -1.738470704 -1.697855741 -1.648439727 -1.539147235)
5(-1.888487906 -1.794749688 -1.75073521 -1.695713988 -1.586003104)
5(-1.948335415 -1.85184201 -1.804649754 -1.757024445 -1.634851457)
5(-2.00781243 -1.911674431 -1.861303074 -1.811452757 -1.688934689)
5(-2.072150886 -1.974603664 -1.918208287 -1.866061018 -1.737752511)
5(-2.135695959 -2.036808756 -1.97821211 -1.924747789 -1.790968301)
5(-2.19894275 -2.096451905 -2.038163727 -1.989408999 -1.851292395)
5(-2.26650667 -2.161838508 -2.097965467 -2.049782141 -1.913999988)
5(-2.334925245 -2.224489131 -2.161296477 -2.106526352 -1.972937564)
5(-2.397902034 -2.287323465 -2.22266867 -2.166844168 -2.030547488)
5(-2.46266256 -2.348804244 -2.283408065 -2.226859442 -2.090477645)
5(-2.522273614 -2.409888292 -2.342038116 -2.286257837 -2.150856167)
5(-2.58042511 -2.467218058 -2.398657988 -2.343291015 -2.209049117)
5(-2.633326407 -2.520116776 -2.452571131 -2.39970184 -2.271087943)
5(-2.682181021 -2.567378507 -2.503216303 -2.45344426 -2.328189218)
5(-2.723048238 -2.60884824 -2.547971029 -2.505353242 -2.383572106)
5(-2.755135103 -2.64302588 -2.588087053 -2.554741114 -2.433924715)
5(-2.775904274 -2.668015013 -2.620181208 -2.596682293 -2.479497133)
5(-2.78536616 -2.683286638 -2.644965283 -2.630632595 -2.525872852)
5(-2.782917378 -2.687279143 -2.660271424 -2.661868754 -2.579215518)
5(-2.764746704 -2.677571886 -2.665363626 -2.692707336 -2.642772589)
5(-2.733747138 -2.655079341 -2.659114652 -2.722601009 -2.712231802)
5(-2.685267411 -2.61877161 -2.641950149 -2.753823064 -2.774287517)
5(-2.627907729 -2.571987685 -2.614986427 -2.782038591 -2.818835231)
5(-2.559457175 -2.507941011 -2.585619233 -2.801964035 -2.839855416)
5(-2.486222926 -2.429103452 -2.554365015 -2.806527601 -2.84331567)
5(-2.403637274 -2.344995507 -2.521670697 -2.79436337 -2.839163267)
5(-2.316164954 -2.272450184 -2.487927095 -2.767351631 -2.834091585)
5(-2.229565786 -2.21273051 -2.455695133 -2.732449731 -2.825996106)
5(-2.156373405 -2.174990782 -2.418010232 -2.691976884 -2.806719027)
5(-2.110124075 -2.142799555 -2.378838164 -2.65076615 -2.779050589)
5(-2.084408641 -2.118499439 -2.344139372 -2.603619636 -2.731564283)
5(-2.075713995 -2.108061785 -2.318449554 -2.549056085 -2.664223959)
5(-2.06563128 -2.108549985 -2.299589817 -2.489043473 -2.577475783)
5(-2.048525322 -2.112732464 -2.276662869 -2.409309677 -2.460011241)
5(-2.032135062 -2.120787684 -2.251041614 -2.305032156 -2.315997988)
5(-2.025726926 -2.119364331 -2.181480533 -2.170930243 -2.144857735)
5(-2.022913933 -2.100299147 -2.097270864 -2.00736478 -1.939441497)
5(-2.015527552 -2.081511762 -1.991315642 -1.837536464 -1.725524453)
5(-2.297592469 -2.318322501 -2.120351736 -1.833103845 -1.641847236)
5(-2.453686348 -2.27923488 -2.055402342 -1.869029723 -1.806639183)
)


60
(
5(-1.461908277 -0.1550277139 -1.305881761 -1.234236149 -1.597911833)
5(-1.183337983 -0.5451606376 -1.289012314 -1.203758738 -1.489404253)
5(-1.170916484 -0.9544499522 -1.157383809 -1.153865534 -1.224007479)
5(-1.144709236 -1.111696494 -1.078379397 -1.127006118 -1.05940229)
5(-1.150541052 -1.143273637 -1.083951133 -1.128799531 -0.9904796137)
5(-1.231840727 -1.178880701 -1.151025346 -1.158381637 -1.018031673)
5(-1.327595146 -1.230554287 -1.219870113 -1.204103669 -1.096051532)
5(-1.377908597 -1.270232417 -1.273164707 -1.241974059 -1.15523786)
5(-1.401331463 -1.30384956 -1.299939932 -1.266286134 -1.179649402)
5(-1.421845624 -1.335689314 -1.316664504 -1.28485308 -1.191673179)
5(-1.451759404 -1.368271633 -1.336036821 -1.304195175 -1.20945841)
5(-1.487813002 -1.402998234 -1.367782726 -1.338080246 -1.238000926)
5(-1.528276677 -1.440038887 -1.40574684 -1.37239142 -1.270740748)
5(-1.570326113 -1.476737012 -1.442257769 -1.405987917 -1.307856007)
5(-1.614629716 -1.518302648 -1.4793196 -1.443480948 -1.342859676)
5(-1.654409313 -1.560500782 -1.517915163 -1.481757433 -1.376956628)
5(-1.702948944 -1.605587524 -1.561402577 -1.521756231 -1.411515716)
5(-1.747499698 -1.649575629 -1.605454765 -1.562305385 -1.452166577)
5(-1.802444009 -1.698013829 -1.651982739 -1.604037204 -1.494958872)
5(-1.853033718 -1.748405902 -1.699260206 -1.64951071 -1.538767675)
5(-1.903747662 -1.797509558 -1.747472475 -1.696822046 -1.58236644)
5(-1.960022154 -1.850087881 -1.798633238 -1.746068708 -1.628909678)
5(-2.015274148 -1.906056085 -1.849642163 -1.791848454 -1.677296169)
5(-2.073099432 -1.960069474 -1.902556999 -1.841429465 -1.722405852)
5(-2.129388589 -2.01686351 -1.954355845 -1.897404143 -1.772560266)
5(-2.189109769 -2.072063133 -2.00776565 -1.950218625 -1.824641433)
5(-2.245059498 -2.129638803 -2.060888165 -2.001085911 -1.873948949)
5(-2.299851034 -2.184871017 -2.113213601 -2.0536734 -1.92285075)
5(-2.356591839 -2.236544726 -2.164130297 -2.110956059 -1.973988205)
5(-2.40909646 -2.287641132 -2.215629313 -2.165648057 -2.0295345)
5(-2.454335943 -2.334859431 -2.263994576 -2.209696571 -2.082274361)
5(-2.496311622 -2.379110386 -2.308773544 -2.254086673 -2.132633254)
5(-2.53722708 -2.420535034 -2.351295505 -2.299912225 -2.182219345)
5(-2.571286296 -2.456174167 -2.388884021 -2.342469182 -2.231471251)
5(-2.597055967 -2.482160367 -2.420120424 -2.382778355 -2.277169424)
5(-2.612653161 -2.499317493 -2.446369015 -2.417172079 -2.32036591)
5(-2.618844265 -2.511472455 -2.465389666 -2.444987731 -2.355812587)
5(-2.613062273 -2.513132599 -2.474964263 -2.465223584 -2.390950904)
5(-2.597431854 -2.504166919 -2.474679527 -2.481252674 -2.42888779)
5(-2.567754772 -2.48208687 -2.464170728 -2.494776089 -2.478821408)
5(-2.528199479 -2.450575979 -2.442250551 -2.511768498 -2.535909036)
5(-2.478474016 -2.403813131 -2.411157737 -2.529120305 -2.583715721)
5(-2.423409762 -2.343615811 -2.370506483 -2.543306694 -2.611302331)
5(-2.366280936 -2.270899683 -2.32753878 -2.545421273 -2.618097453)
5(-2.301020222 -2.191405036 -2.283404286 -2.531476104 -2.611152387)
5(-2.227266179 -2.113686744 -2.240267921 -2.505845868 -2.594116087)
5(-2.149040092 -2.047244709 -2.198133562 -2.464455578 -2.578836874)
5(-2.075047388 -1.993215883 -2.157376172 -2.415237834 -2.561541526)
5(-2.017935863 -1.947473492 -2.1061372 -2.36574781 -2.536982033)
5(-1.978591424 -1.91735702 -2.057788455 -2.318955782 -2.504743849)
5(-1.948777367 -1.890699265 -2.022393666 -2.272405809 -2.470817947)
5(-1.929841759 -1.870221613 -1.997791639 -2.230896022 -2.420628567)
5(-1.905020492 -1.85205108 -1.985822209 -2.194294399 -2.361661136)
5(-1.868850365 -1.841307164 -1.98969446 -2.151569451 -2.282336696)
5(-1.833708673 -1.854237628 -1.993952044 -2.099037868 -2.176866699)
5(-1.811630588 -1.871714418 -1.996227678 -2.039089349 -2.050825152)
5(-1.786869307 -1.8876125 -1.990849663 -1.950581461 -1.902921442)
5(-1.795765744 -1.9076121 -1.93673106 -1.84917575 -1.763982885)
5(-2.143469606 -2.23789 -2.145760838 -1.915339145 -1.809586934)
5(-2.417442911 -2.336151046 -2.002831691 -1.88742393 -1.778784202)
)


60
(
5(-1.198608465 0.05785908432 -1.08797479 -1.124892081 -1.470052961)
5(-1.029691775 -0.4075731956 -1.154630675 -1.127121618 -1.404890964)
5(-1.109507392 -0.893113048 -1.091925872 -1.113710773 -1.18897623)
5(-1.122710513 -1.088560367 -1.046040749 -1.108157765 -1.051243065)