/*--------------------------------*- C++ -*----------------------------------*\
| =========                 |                                                 |
| \\      /  F ield         | OpenFOAM: The Open Source CFD Toolbox           |
|  \\    /   O peration     | Version:  2.3.1                                 |
|   \\  /    A nd           | Web:      www.OpenFOAM.org                      |
|    \\/     M anipulation  |                                                 |
\*---------------------------------------------------------------------------*/
FoamFile
{
    version     2.0;
    format      ascii;
    class       dictionary;
    location    "constant";
    object      PM3;
}
// * * * * * * * * * * * * * * * * * * * * * * * * * * * * * * * * * * * * * //

PM3_table
60
(

60
(
5(2.331100404e-06 6.68130815e-06 3.680121154e-06 2.633780241e-06 4.569999874e-06)
5(5.24148345e-06 3.129243851e-07 6.679911166e-07 1.315958798e-06 6.700865924e-06)
5(2.337619662e-06 -9.17352736e-07 -2.766028047e-07 1.358333975e-06 -1.136679202e-06)
5(1.857988536e-07 -2.39815563e-08 -1.296866685e-07 2.095475793e-08 -2.089422196e-06)
5(-1.459615305e-06 4.451721907e-07 2.239830792e-06 -4.4493936e-07 2.691056579e-06)
5(-1.695007086e-06 3.916211426e-07 1.205131412e-06 6.423797458e-07 3.138557076e-07)
5(3.096647561e-07 1.331791282e-07 -5.217734724e-07 2.088490874e-07 4.656612873e-07)
5(1.627486199e-07 -7.776543498e-08 -4.156026989e-07 -3.115274012e-07 4.61935997e-07)
5(-3.937166184e-07 -1.51572749e-07 -1.897569746e-07 -2.887099981e-08 -6.328336895e-07)
5(7.217749953e-09 -6.891787052e-08 -2.62632966e-07 5.750916898e-08 -1.187436283e-07)
5(-3.46917659e-08 1.187436283e-08 2.563465387e-07 -6.752088666e-09 1.711305231e-07)
5(1.688022166e-07 -1.583248377e-08 2.712476999e-07 -7.450580597e-08 1.010484993e-07)
5(-2.607703209e-08 -4.610046744e-08 2.910383046e-08 4.260800779e-08 1.932494342e-08)
5(-4.121102393e-08 2.770684659e-08 2.793967724e-08 5.681067705e-08 8.381903172e-08)
5(6.961636245e-08 2.840533853e-08 1.396983862e-08 -8.149072528e-08 -2.095475793e-09)
5(-6.61239028e-08 -1.792795956e-08 -4.656612873e-08 -1.513399184e-08 -5.937181413e-08)
5(-5.587935448e-09 9.080395103e-09 -2.095475793e-09 -4.633329809e-08 -6.705522537e-08)
5(1.420266926e-08 -9.313225746e-09 -3.725290298e-09 -2.654269338e-08 -1.140870154e-08)
5(-4.493631423e-08 -8.05594027e-08 -5.029141903e-08 -6.705522537e-08 2.468004823e-08)
5(-4.982575774e-08 -2.93366611e-08 3.725290298e-09 -5.983747542e-08 3.445893526e-08)
5(-7.916241884e-09 4.400499165e-08 2.444721758e-08 2.109445632e-07 1.355074346e-07)
5(-8.079223335e-08 -3.096647561e-08 -1.699663699e-08 7.241033018e-08 3.422610462e-08)
5(-5.390029401e-08 -1.008156687e-07 1.164153218e-09 -1.003500074e-07 -5.448237062e-08)
5(-3.213062882e-08 -8.847564459e-08 -4.167668521e-08 -3.934837878e-08 1.024454832e-08)
5(-6.763730198e-08 -2.421438694e-08 -1.017469913e-07 -1.071020961e-07 8.149072528e-09)
5(-6.228219718e-08 5.355104804e-09 -1.513399184e-08 -7.753260434e-08 5.378387868e-08)
5(-4.644971341e-08 -7.450580597e-09 1.327134669e-08 -1.071020961e-08 6.658956409e-08)
5(-9.185168892e-08 -6.309710443e-08 -8.149072528e-09 5.797483027e-08 7.939524949e-08)
5(-1.272419468e-07 -1.050066203e-07 5.634501576e-08 1.597218215e-07 1.282896847e-07)
5(-1.151347533e-07 -1.080334187e-07 -2.072192729e-08 8.544884622e-08 1.532025635e-07)
5(-1.185107976e-07 -4.58676368e-08 2.887099981e-08 1.389998943e-07 3.715977073e-07)
5(-7.462222129e-08 -2.677552402e-08 7.008202374e-08 2.286396921e-07 2.181623131e-07)
5(-8.812639862e-08 -6.973277777e-08 -2.491287887e-08 1.860316843e-07 2.756714821e-07)
5(-1.139706001e-07 -2.305023372e-08 5.471520126e-08 2.314336598e-07 5.140900612e-07)
5(-9.557697922e-08 -4.342291504e-08 -6.519258022e-09 2.169981599e-07 3.236345947e-07)
5(-7.124617696e-08 7.485505193e-08 2.56113708e-07 3.883615136e-07 3.697350621e-07)
5(-4.924368113e-08 1.122243702e-07 4.58676368e-07 3.986060619e-07 1.018866897e-06)
5(-4.621688277e-08 5.33182174e-08 1.79046765e-07 4.027970135e-07 5.257315934e-07)
5(-9.895302355e-08 1.474982128e-07 1.044245437e-07 4.549510777e-07 2.110609785e-06)
5(-2.887099981e-08 2.675224096e-07 4.121102393e-07 5.862675607e-07 1.796521246e-06)
5(1.585576683e-07 3.791647032e-07 6.922055036e-07 1.514097676e-06 7.590278983e-08)
5(2.239830792e-07 4.803296179e-07 7.560010999e-07 2.879183739e-06 4.889443517e-08)
5(2.308515832e-07 4.487810656e-07 2.547167242e-07 1.595588401e-06 -4.842877388e-08)
5(2.953456715e-07 4.838220775e-07 4.293397069e-07 6.170012057e-08 9.033828974e-08)
5(5.32483682e-07 6.390037015e-07 1.450069249e-06 2.514570951e-08 2.426095307e-07)
5(7.357448339e-07 9.385403246e-07 3.271969035e-06 1.091975719e-07 2.101296559e-07)
5(9.356299415e-07 1.936452463e-06 2.619344741e-06 1.746229827e-07 2.580927685e-07)
5(9.867362678e-07 1.469161361e-06 8.626375347e-07 2.603046596e-07 3.433087841e-07)
5(1.013395377e-06 3.275228664e-06 2.939486876e-07 3.207242116e-07 4.426110536e-07)
5(1.522712409e-06 2.301298082e-06 2.76369974e-07 4.086177796e-07 5.705514923e-07)
5(3.452179953e-06 2.634478733e-07 3.519235179e-07 5.107140169e-07 7.037306204e-07)
5(3.062770702e-06 2.905726433e-07 4.41330485e-07 6.019836292e-07 8.243368939e-07)
5(1.140520908e-06 3.644963726e-07 5.486654118e-07 7.266644388e-07 9.639188647e-07)
5(3.634486347e-07 4.390603863e-07 6.44417014e-07 8.615897968e-07 1.136446372e-06)
5(3.562308848e-08 5.074543878e-07 7.24743586e-07 1.011416316e-06 1.326319762e-06)
5(-5.051260814e-07 5.289330147e-07 7.852213457e-07 1.176027581e-06 1.659791451e-06)
5(-1.065898687e-06 2.146116458e-07 7.832422853e-07 1.395354047e-06 2.063519787e-06)
5(-1.275009708e-06 -5.373731256e-07 2.865563147e-07 3.749271855e-06 2.515502274e-06)
5(-1.966225682e-06 -2.719607437e-06 -2.483895514e-06 -1.157983206e-06 -2.510787454e-07)
5(-1.445412636e-06 -3.357185051e-06 -3.538560122e-06 -8.995004464e-06 -6.944697816e-06)
)


60
(
5(2.572778612e-08 1.885928214e-08 1.201406121e-07 -2.724118531e-08 2.465676516e-07)
5(-1.827720553e-07 6.286427379e-08 -3.487803042e-07 -2.097804099e-07 -4.393514246e-07)
5(-1.867301762e-07 4.237517715e-08 -1.096632332e-07 -7.869675756e-08 -4.28641215e-07)
5(1.136213541e-07 4.773028195e-08 2.095475793e-08 6.589107215e-08 -1.979060471e-08)
5(2.305023372e-07 6.332993507e-08 6.658956409e-08 9.639188647e-08 9.499490261e-08)
5(1.040752977e-07 5.168840289e-08 1.359730959e-07 7.078051567e-08 1.394655555e-07)
5(3.888271749e-08 3.30619514e-08 4.633329809e-08 2.351589501e-08 2.840533853e-08)
5(2.677552402e-08 3.166496754e-08 -6.519258022e-09 1.094304025e-08 -1.629814506e-09)
5(3.958120942e-09 2.537854016e-08 -6.98491931e-10 1.396983862e-08 8.149072528e-09)
5(1.629814506e-08 1.257285476e-08 9.313225746e-09 1.792795956e-08 2.584420145e-08)
5(2.0256266e-08 1.490116119e-08 1.559965312e-08 2.654269338e-08 2.630986273e-08)
5(9.778887033e-09 1.420266926e-08 1.816079021e-08 2.956949174e-08 3.422610462e-08)
5(1.303851604e-08 8.614733815e-09 1.862645149e-08 1.862645149e-08 3.119930625e-08)
5(4.190951586e-09 8.614733815e-09 1.490116119e-08 1.676380634e-08 2.724118531e-08)
5(-4.656612873e-10 4.889443517e-09 1.140870154e-08 2.165324986e-08 3.143213689e-08)
5(-3.143213689e-09 -2.095475793e-09 4.423782229e-09 1.722946763e-08 3.46917659e-08)
5(-3.958120942e-09 -4.423782229e-09 4.889443517e-09 1.979060471e-08 3.864988685e-08)
5(-1.047737896e-08 -3.026798368e-09 6.519258022e-09 2.468004823e-08 4.260800779e-08)
5(-1.455191523e-08 -4.423782229e-09 6.519258022e-09 2.584420145e-08 4.493631423e-08)
5(-1.932494342e-08 -1.094304025e-08 5.12227416e-09 3.026798368e-08 5.424953997e-08)
5(-2.118758857e-08 -1.396983862e-08 6.98491931e-09 3.026798368e-08 6.542541087e-08)
5(-2.572778612e-08 -1.327134669e-08 9.778887033e-09 3.236345947e-08 7.008202374e-08)
5(-3.655441105e-08 -1.315493137e-08 9.54605639e-09 4.610046744e-08 8.172355592e-08)
5(-3.911554813e-08 -1.443549991e-08 1.606531441e-08 5.587935448e-08 9.755603969e-08)
5(-4.190951586e-08 -1.362059265e-08 1.699663699e-08 6.193295121e-08 1.133885235e-07)
5(-4.69153747e-08 -8.963979781e-09 2.072192729e-08 7.613562047e-08 1.34576112e-07)
5(-4.516914487e-08 -7.217749953e-09 3.94647941e-08 9.406358004e-08 1.604203135e-07)
5(-4.388857633e-08 -7.101334631e-09 4.994217306e-08 1.167645678e-07 1.82306394e-07)
5(-4.563480616e-08 5.238689482e-09 6.274785846e-08 1.383014023e-07 2.116430551e-07)
5(-4.237517715e-08 1.92085281e-08 8.300412446e-08 1.637963578e-07 2.46334821e-07)
5(-3.434251994e-08 3.434251994e-08 1.105945557e-07 1.972075552e-07 2.810265869e-07)
5(-2.502929419e-08 5.308538675e-08 1.366715878e-07 2.334127203e-07 3.217719495e-07)
5(-1.222360879e-08 7.718335837e-08 1.669395715e-07 2.752058208e-07 3.690365702e-07)
5(6.519258022e-09 1.060543582e-07 2.071028575e-07 3.197928891e-07 4.086177796e-07)
5(2.770684659e-08 1.391163096e-07 2.4959445e-07 3.684544936e-07 4.647299647e-07)
5(5.890615284e-08 1.811422408e-07 3.008171916e-07 4.308531061e-07 5.285255611e-07)
5(9.639188647e-08 2.266606316e-07 3.556488082e-07 4.931353033e-07 5.918554962e-07)
5(1.356238499e-07 2.852175385e-07 4.192115739e-07 5.507608876e-07 6.328336895e-07)
5(1.941807568e-07 3.477325663e-07 4.889443517e-07 6.208429113e-07 6.875488907e-07)
5(2.599554136e-07 4.234025255e-07 5.76255843e-07 7.01402314e-07 6.235204637e-07)
5(3.400491551e-07 4.989560694e-07 6.537884474e-07 7.672933862e-07 6.384216249e-07)
5(4.25381586e-07 5.804467946e-07 7.413327694e-07 7.940689102e-07 6.812624633e-07)
5(5.239853635e-07 6.998889148e-07 8.490169421e-07 7.42264092e-07 7.662456483e-07)
5(6.4750202e-07 8.047791198e-07 9.690411389e-07 7.727649063e-07 8.693896234e-07)
5(7.838243619e-07 9.100185707e-07 1.047621481e-06 8.414499462e-07 9.597279131e-07)
5(9.262003005e-07 1.048319973e-06 1.091859303e-06 9.415671229e-07 1.055188477e-06)
5(1.07451342e-06 1.175096259e-06 1.00932084e-06 1.06159132e-06 1.160777174e-06)
5(1.21886842e-06 1.239590347e-06 1.024571247e-06 1.184176654e-06 1.265201718e-06)
5(1.387903467e-06 1.310138032e-06 1.120963134e-06 1.303735189e-06 1.372070983e-06)
5(1.545064151e-06 1.176143996e-06 1.254491508e-06 1.430744305e-06 1.484062523e-06)
5(1.662876457e-06 1.265783794e-06 1.410255209e-06 1.5697442e-06 1.587439328e-06)
5(1.559848897e-06 1.411302947e-06 1.57346949e-06 1.708976924e-06 1.703738235e-06)
5(1.584994607e-06 1.612235792e-06 1.75065361e-06 1.855893061e-06 1.814682037e-06)
5(1.762702595e-06 1.834821887e-06 1.953681931e-06 2.010841854e-06 1.938897185e-06)
5(2.041575499e-06 2.083659638e-06 2.181855962e-06 2.193264663e-06 2.109911293e-06)
5(2.480170224e-06 2.403801773e-06 2.451182809e-06 2.41806265e-06 2.316432074e-06)
5(3.185414243e-06 2.820859663e-06 2.815620974e-06 2.715212759e-06 2.615677658e-06)
5(4.248169716e-06 3.539345926e-06 3.388326149e-06 3.191351425e-06 3.084540367e-06)
5(9.617418982e-06 7.756811101e-06 1.040025381e-05 7.537542842e-06 5.542766303e-06)
5(5.370005965e-06 3.701192327e-06 2.558226697e-06 2.58377986e-06 3.166613169e-06)
)


60
(
5(4.540197551e-09 2.887099981e-08 4.284083843e-08 -2.910383046e-09 1.006992534e-07)
5(-2.107117325e-08 8.26548785e-09 -6.530899554e-08 -2.887099981e-08 -1.080334187e-07)
5(-3.376044333e-09 6.868503988e-09 -1.140870154e-08 -4.889443517e-09 -2.328306437e-08)
5(1.047737896e-08 3.958120942e-09 1.024454832e-08 7.217749953e-09 1.536682248e-08)
5(7.101334631e-09 5.820766091e-10 5.937181413e-09 1.140870154e-08 1.327134669e-08)
5(-6.98491931e-10 -1.979060471e-09 9.313225746e-10 4.423782229e-09 1.071020961e-08)
5(-7.566995919e-09 -6.98491931e-09 -4.190951586e-09 -5.12227416e-09 6.98491931e-09)
5(-1.699663699e-08 -1.455191523e-08 -1.140870154e-08 -4.423782229e-09 1.082662493e-08)
5(-2.246815711e-08 -1.75787136e-08 -1.059379429e-08 -3.84170562e-09 5.12227416e-09)
5(-1.932494342e-08 -1.897569746e-08 -1.257285476e-08 -3.84170562e-09 4.656612873e-09)
5(-2.118758857e-08 -1.897569746e-08 -1.571606845e-08 -1.862645149e-09 1.478474587e-08)
5(-3.236345947e-08 -2.409797162e-08 -1.443549991e-08 -2.328306437e-10 1.781154424e-08)
5(-3.702007234e-08 -3.085006028e-08 -1.443549991e-08 -2.328306437e-10 2.107117325e-08)
5(-3.853347152e-08 -2.945307642e-08 -1.699663699e-08 2.910383046e-09 2.607703209e-08)
5(-3.864988685e-08 -2.968590707e-08 -1.490116119e-08 6.752088666e-09 3.294553608e-08)
5(-4.551839083e-08 -2.991873771e-08 -1.455191523e-08 7.334165275e-09 3.830064088e-08)
5(-5.366746336e-08 -3.166496754e-08 -1.373700798e-08 1.001171768e-08 4.866160452e-08)
5(-5.261972547e-08 -3.632158041e-08 -1.315493137e-08 1.955777407e-08 6.030313671e-08)
5(-5.727633834e-08 -3.57395038e-08 -1.071020961e-08 2.700835466e-08 6.810296327e-08)
5(-5.622860044e-08 -3.550667316e-08 -4.773028195e-09 3.492459655e-08 7.695052773e-08)
5(-6.332993507e-08 -3.736931831e-08 1.047737896e-09 4.842877388e-08 9.487848729e-08)
5(-6.98491931e-08 -3.527384251e-08 5.70435077e-09 5.541369319e-08 1.140870154e-07)
5(-6.821937859e-08 -3.073364496e-08 9.196810424e-09 6.787013263e-08 1.294538379e-07)
5(-6.856862456e-08 -2.502929419e-08 2.142041922e-08 8.882489055e-08 1.505250111e-07)
5(-7.031485438e-08 -1.955777407e-08 3.539025784e-08 1.050066203e-07 1.79046765e-07)
5(-7.217749953e-08 -8.847564459e-09 5.366746336e-08 1.273583621e-07 2.047745511e-07)
5(-6.181653589e-08 -2.793967724e-09 6.589107215e-08 1.480802894e-07 2.332963049e-07)
5(-6.228219718e-08 7.334165275e-09 8.358620107e-08 1.776497811e-07 2.658925951e-07)
5(-5.890615284e-08 2.689193934e-08 1.082662493e-07 2.083834261e-07 3.037275746e-07)
5(-4.749745131e-08 3.643799573e-08 1.293374225e-07 2.379529178e-07 3.430759534e-07)
5(-3.795139492e-08 5.727633834e-08 1.633306965e-07 2.817250788e-07 3.831228241e-07)
5(-2.240994945e-08 9.033828974e-08 1.946464181e-07 3.202585503e-07 4.335306585e-07)
5(-5.413312465e-09 1.090811566e-07 2.263113856e-07 3.629829735e-07 4.846369848e-07)
5(1.752050593e-08 1.367880031e-07 2.757878974e-07 4.143221304e-07 5.384208634e-07)
5(5.401670933e-08 1.782318577e-07 3.167660907e-07 4.708999768e-07 5.951151252e-07)
5(8.358620107e-08 2.193264663e-07 3.622844815e-07 5.320180207e-07 6.60540536e-07)
5(1.070438884e-07 2.661254257e-07 4.247995093e-07 5.953479558e-07 7.279450074e-07)
5(1.538428478e-07 3.16707883e-07 4.897592589e-07 6.632180884e-07 7.991911843e-07)
5(2.132728696e-07 3.849272616e-07 5.663605407e-07 7.443595678e-07 8.806819096e-07)
5(2.848100848e-07 4.568137228e-07 6.419140846e-07 8.358620107e-07 9.604264051e-07)
5(3.57918907e-07 5.309120752e-07 7.301568985e-07 9.300420061e-07 1.044245437e-06)
5(4.479079507e-07 6.281188689e-07 8.401693776e-07 1.035281457e-06 1.133419573e-06)
5(5.690963008e-07 7.433118299e-07 9.606592357e-07 1.149484888e-06 1.22806523e-06)
5(7.068738341e-07 8.807983249e-07 1.09768007e-06 1.25716906e-06 1.319218427e-06)
5(8.681672625e-07 1.026084647e-06 1.229112968e-06 1.371954568e-06 1.410604455e-06)
5(1.058506314e-06 1.175678335e-06 1.364387572e-06 1.494307071e-06 1.503969543e-06)
5(1.273525413e-06 1.354434062e-06 1.518754289e-06 1.609325409e-06 1.585925929e-06)
5(1.50653068e-06 1.550593879e-06 1.670559868e-06 1.722131856e-06 1.664739102e-06)
5(1.756241545e-06 1.722422894e-06 1.806765795e-06 1.832609996e-06 1.742737368e-06)
5(2.011598554e-06 1.890526619e-06 1.943786629e-06 1.93703454e-06 1.822831109e-06)
5(2.269167453e-06 2.076209057e-06 2.088490874e-06 2.039712854e-06 1.903856173e-06)
5(2.518470865e-06 2.252869308e-06 2.225628123e-06 2.150074579e-06 1.988024451e-06)
5(2.765271347e-06 2.423883416e-06 2.375920303e-06 2.272310667e-06 2.093263902e-06)
5(3.015156835e-06 2.621731255e-06 2.551591024e-06 2.404558472e-06 2.206303179e-06)
5(3.308698069e-06 2.870918252e-06 2.757296897e-06 2.568587661e-06 2.342858352e-06)
5(3.697059583e-06 3.171502613e-06 3.032851964e-06 2.787564881e-06 2.534070518e-06)
5(4.263420124e-06 3.631983418e-06 3.43384454e-06 3.115099389e-06 2.814515028e-06)
5(5.484733265e-06 4.568370059e-06 4.201894626e-06 3.713939805e-06 3.307475708e-06)
5(1.330435043e-05 1.1015567e-05 1.387047814e-05 1.092028106e-05 7.372000255e-06)
5(1.748686191e-05 1.238868572e-05 2.078793477e-05 1.471271389e-05 8.126429748e-06)
)


60
(
5(-1.979060471e-09 4.272442311e-08 1.315493137e-08 -3.026798368e-09 4.365574569e-08)
5(-1.629814506e-09 -8.149072528e-10 -2.235174179e-08 -6.752088666e-09 -4.144385457e-08)
5(-1.047737896e-09 -1.629814506e-09 -2.56113708e-09 1.629814506e-09 -4.423782229e-09)
5(1.164153218e-10 -4.540197551e-09 4.423782229e-09 3.259629011e-09 1.17579475e-08)
5(-3.492459655e-09 -5.238689482e-09 -1.396983862e-09 9.313225746e-10 1.245643944e-08)
5(-1.129228622e-08 -1.0128133e-08 -6.98491931e-09 9.313225746e-10 9.778887033e-09)
5(-1.75787136e-08 -1.513399184e-08 -9.080395103e-09 1.396983862e-09 1.059379429e-08)
5(-1.897569746e-08 -1.466833055e-08 -1.129228622e-08 -8.149072528e-10 1.490116119e-08)
5(-2.165324986e-08 -1.932494342e-08 -1.152511686e-08 -2.328306437e-09 1.711305231e-08)
5(-2.887099981e-08 -2.29338184e-08 -1.071020961e-08 2.328306437e-09 2.083834261e-08)
5(-3.108289093e-08 -2.339947969e-08 -1.082662493e-08 7.799826562e-09 2.654269338e-08)
5(-3.166496754e-08 -2.549495548e-08 -1.001171768e-08 8.381903172e-09 2.910383046e-08)
5(-3.84170562e-08 -2.596061677e-08 -1.036096364e-08 7.217749953e-09 3.923196346e-08)
5(-4.58676368e-08 -2.607703209e-08 -1.094304025e-08 1.408625394e-08 4.458706826e-08)
5(-4.69153747e-08 -2.817250788e-08 -1.105945557e-08 2.118758857e-08 4.970934242e-08)
5(-4.470348358e-08 -3.119930625e-08 -8.149072528e-09 2.246815711e-08 6.100162864e-08)
5(-5.145557225e-08 -2.852175385e-08 -1.629814506e-09 3.026798368e-08 6.996560842e-08)
5(-5.436595529e-08 -2.945307642e-08 8.149072528e-10 4.027970135e-08 8.451752365e-08)
5(-5.518086255e-08 -2.922024578e-08 5.937181413e-09 4.994217306e-08 9.674113244e-08)
5(-6.030313671e-08 -2.339947969e-08 1.059379429e-08 5.727633834e-08 1.082662493e-07)
5(-5.681067705e-08 -2.537854016e-08 1.525040716e-08 7.031485438e-08 1.303851604e-07)
5(-5.681067705e-08 -2.305023372e-08 2.689193934e-08 8.498318493e-08 1.499429345e-07)
5(-6.484333426e-08 -1.28056854e-08 4.132743925e-08 9.615905583e-08 1.68569386e-07)
5(-6.530899554e-08 -4.889443517e-09 4.970934242e-08 1.189764589e-07 1.864973456e-07)
5(-5.739275366e-08 -8.149072528e-10 5.785841495e-08 1.415610313e-07 2.130400389e-07)
5(-5.401670933e-08 6.170012057e-09 7.834751159e-08 1.628650352e-07 2.481974661e-07)
5(-4.871981218e-08 2.083834261e-08 9.81381163e-08 1.880107448e-07 2.741580829e-07)
5(-4.237517715e-08 3.41096893e-08 1.187436283e-07 2.187443897e-07 3.104796633e-07)
5(-3.486638889e-08 5.098991096e-08 1.416774467e-07 2.465676516e-07 3.44356522e-07)
5(-2.270098776e-08 7.054768503e-08 1.681037247e-07 2.784654498e-07 3.818422556e-07)
5(-8.789356798e-09 9.208451957e-08 2.047745511e-07 3.194436431e-07 4.260800779e-07)
5(7.159542292e-09 1.166481525e-07 2.300366759e-07 3.596069291e-07 4.69153747e-07)
5(2.747401595e-08 1.433072612e-07 2.582091838e-07 4.005851224e-07 5.176989362e-07)
5(5.046604201e-08 1.733424142e-07 3.048917279e-07 4.457542673e-07 5.728797987e-07)
5(7.712515071e-08 2.072192729e-07 3.474997357e-07 4.960456863e-07 6.259651855e-07)
5(1.102453098e-07 2.458691597e-07 3.976747394e-07 5.511101335e-07 6.803311408e-07)
5(1.477892511e-07 2.900487743e-07 4.465691745e-07 6.13508746e-07 7.544877008e-07)
5(1.924927346e-07 3.394088708e-07 5.015172064e-07 6.828922778e-07 8.208444342e-07)
5(2.468586899e-07 3.978493623e-07 5.711335689e-07 7.579801604e-07 8.979113773e-07)
5(3.104214557e-07 4.644389264e-07 6.468035281e-07 8.411007002e-07 9.823124856e-07)
5(3.922614269e-07 5.421461537e-07 7.359776646e-07 9.37958248e-07 1.066597179e-06)
5(4.905741662e-07 6.366753951e-07 8.417991921e-07 1.046573743e-06 1.170672476e-06)
5(6.083864719e-07 7.495982572e-07 9.603099898e-07 1.162639819e-06 1.278356649e-06)
5(7.546623237e-07 8.816132322e-07 1.092907041e-06 1.289881766e-06 1.388136297e-06)
5(9.31264367e-07 1.038657501e-06 1.248321496e-06 1.429114491e-06 1.498963684e-06)
5(1.148728188e-06 1.222244464e-06 1.409905963e-06 1.572188921e-06 1.606415026e-06)
5(1.389009412e-06 1.420732588e-06 1.583015546e-06 1.713517122e-06 1.717591658e-06)
5(1.672189683e-06 1.632608473e-06 1.766020432e-06 1.855776645e-06 1.815031283e-06)
5(1.956708729e-06 1.854146831e-06 1.939130016e-06 1.991400495e-06 1.906650141e-06)
5(2.248911187e-06 2.081971616e-06 2.114800736e-06 2.121785656e-06 2.001645043e-06)
5(2.584245522e-06 2.307235263e-06 2.288492396e-06 2.242741175e-06 2.086278982e-06)
5(2.885470167e-06 2.512999345e-06 2.453452908e-06 2.36381311e-06 2.17941124e-06)
5(3.164459486e-06 2.718588803e-06 2.622487955e-06 2.499902621e-06 2.286629751e-06)
5(3.456778359e-06 2.958113328e-06 2.823071554e-06 2.65520066e-06 2.40362715e-06)
5(3.789726179e-06 3.230350558e-06 3.060617018e-06 2.844259143e-06 2.549146302e-06)
5(4.209927283e-06 3.593333531e-06 3.365275916e-06 3.07848677e-06 2.748682164e-06)
5(4.886533134e-06 4.171859473e-06 3.854918759e-06 3.466382623e-06 3.056426067e-06)
5(6.300630048e-06 5.33182174e-06 4.890782293e-06 4.230823833e-06 3.657827619e-06)
5(1.428712858e-05 1.547910506e-05 1.602084376e-05 1.188361784e-05 9.924639016e-06)
5(1.594249625e-05 1.597113442e-05 2.175488044e-05 1.623047865e-05 1.186103327e-05)
)


60
(
5(4.423782229e-09 4.947651178e-08 6.98491931e-10 3.492459655e-10 1.979060471e-08)
5(-1.047737896e-09 -9.54605639e-09 -8.26548785e-09 -4.656612873e-10 -1.583248377e-08)
5(-2.211891115e-09 -4.307366908e-09 9.313225746e-10 3.259629011e-09 4.889443517e-09)
5(-5.238689482e-09 -3.958120942e-09 1.513399184e-09 4.540197551e-09 1.234002411e-08)
5(-9.778887033e-09 -9.313225746e-09 -3.259629011e-09 2.328306437e-09 1.420266926e-08)
5(-1.420266926e-08 -1.210719347e-08 -6.4028427e-09 3.492459655e-09 1.618172973e-08)
5(-1.746229827e-08 -1.350417733e-08 -7.334165275e-09 3.376044333e-09 1.839362085e-08)
5(-2.305023372e-08 -1.688022166e-08 -7.566995919e-09 5.238689482e-09 2.29338184e-08)
5(-2.502929419e-08 -1.641456038e-08 -7.683411241e-09 7.799826562e-09 2.840533853e-08)
5(-2.956949174e-08 -1.979060471e-08 -7.450580597e-09 1.036096364e-08 3.341119736e-08)
5(-3.213062882e-08 -2.235174179e-08 -6.4028427e-09 1.362059265e-08 3.911554813e-08)
5(-3.422610462e-08 -1.979060471e-08 -5.238689482e-09 1.792795956e-08 4.621688277e-08)
5(-3.364402801e-08 -2.339947969e-08 -2.793967724e-09 2.281740308e-08 5.33182174e-08)
5(-3.969762474e-08 -2.409797162e-08 -2.328306437e-10 2.759043127e-08 6.204936653e-08)
5(-4.831235856e-08 -2.363231033e-08 4.190951586e-09 3.445893526e-08 7.299240679e-08)
5(-4.505272955e-08 -2.235174179e-08 5.587935448e-09 4.062894732e-08 8.16071406e-08)
5(-4.598405212e-08 -2.037268132e-08 4.656612873e-09 5.296897143e-08 9.17352736e-08)
5(-4.936009645e-08 -2.153683454e-08 1.466833055e-08 5.76255843e-08 1.052394509e-07)
5(-5.005858839e-08 -1.792795956e-08 2.200249583e-08 6.414484233e-08 1.206062734e-07)
5(-5.052424967e-08 -1.292210072e-08 2.654269338e-08 8.079223335e-08 1.357402653e-07)
5(-5.273614079e-08 -1.152511686e-08 3.597233444e-08 9.266659617e-08 1.55181624e-07)
5(-5.098991096e-08 -5.70435077e-09 4.831235856e-08 1.095468178e-07 1.745065674e-07)
5(-4.703179002e-08 2.793967724e-09 5.809124559e-08 1.275911927e-07 1.942971721e-07)
5(-4.668254405e-08 9.080395103e-09 6.996560842e-08 1.443549991e-07 2.173474059e-07)
5(-4.412140697e-08 2.39815563e-08 8.684583008e-08 1.651933417e-07 2.445885912e-07)
5(-3.969762474e-08 2.898741513e-08 1.061707735e-07 1.901062205e-07 2.735760063e-07)
5(-3.143213689e-08 3.748573363e-08 1.237494871e-07 2.169981599e-07 3.010500222e-07)
5(-2.072192729e-08 5.97210601e-08 1.440057531e-07 2.435408533e-07 3.359746188e-07)
5(-1.001171768e-08 7.62520358e-08 1.684529707e-07 2.726446837e-07 3.732275218e-07)
5(1.688022166e-09 9.348150343e-08 1.962762326e-07 3.061722964e-07 4.093162715e-07)
5(1.455191523e-08 1.145526767e-07 2.256128937e-07 3.434251994e-07 4.541361704e-07)
5(3.189779818e-08 1.380685717e-07 2.556480467e-07 3.810273483e-07 4.908069968e-07)
5(5.337642506e-08 1.672888175e-07 2.875458449e-07 4.201428965e-07 5.317851901e-07)
5(7.968628779e-08 1.988373697e-07 3.236345947e-07 4.634493962e-07 5.855690688e-07)
5(1.094886102e-07 2.287561074e-07 3.624008968e-07 5.09317033e-07 6.353948265e-07)
5(1.401058398e-07 2.664746717e-07 4.075700417e-07 5.615875125e-07 6.903428584e-07)
5(1.774751581e-07 3.079185262e-07 4.592584446e-07 6.181653589e-07 7.534399629e-07)
5(2.229353413e-07 3.516906872e-07 5.121110007e-07 6.790505722e-07 8.199131116e-07)
5(2.775923349e-07 4.059984349e-07 5.724141374e-07 7.482012734e-07 8.903443813e-07)
5(3.454042599e-07 4.72238753e-07 6.423797458e-07 8.277129382e-07 9.754439816e-07)
5(4.289904609e-07 5.50178811e-07 7.239868864e-07 9.204959497e-07 1.067994162e-06)
5(5.349284038e-07 6.435438991e-07 8.257338777e-07 1.024920493e-06 1.163338311e-06)
5(6.654881872e-07 7.550115697e-07 9.430805221e-07 1.14319846e-06 1.271255314e-06)
5(8.253264241e-07 8.914503269e-07 1.080450602e-06 1.277658157e-06 1.393025741e-06)
5(1.009786502e-06 1.054489985e-06 1.233653165e-06 1.426087692e-06 1.52096618e-06)
5(1.232430805e-06 1.247914042e-06 1.406064257e-06 1.586624421e-06 1.651817001e-06)
5(1.49232801e-06 1.468928531e-06 1.609907486e-06 1.757172868e-06 1.778826118e-06)
5(1.787149813e-06 1.715845428e-06 1.825625077e-06 1.92085281e-06 1.901877113e-06)
5(2.118118573e-06 1.980399247e-06 2.033542842e-06 2.084532753e-06 2.022250555e-06)
5(2.461660188e-06 2.250308171e-06 2.245185897e-06 2.248911187e-06 2.13063322e-06)
5(2.817541827e-06 2.529937774e-06 2.463231795e-06 2.400833182e-06 2.233311534e-06)
5(3.185123205e-06 2.799846698e-06 2.66788993e-06 2.558226697e-06 2.339365892e-06)
5(3.546767402e-06 3.049790394e-06 2.866261639e-06 2.703513019e-06 2.441229299e-06)
5(3.901019227e-06 3.312365152e-06 3.090885002e-06 2.862652764e-06 2.56486237e-06)
5(4.268134944e-06 3.614230081e-06 3.352528438e-06 3.072898835e-06 2.727028914e-06)
5(4.725821782e-06 4.009634722e-06 3.695720807e-06 3.349268809e-06 2.947519533e-06)
5(5.418958608e-06 4.627625458e-06 4.288740456e-06 3.79019184e-06 3.290886525e-06)
5(6.867281627e-06 5.948182661e-06 5.545211025e-06 4.711386282e-06 3.990659025e-06)
5(1.480564242e-05 1.50341657e-05 1.780013554e-05 1.413258724e-05 1.261127181e-05)
5(1.645612065e-05 1.780886669e-05 2.274813596e-05 1.836189767e-05 1.717620762e-05)
)


60
(
5(1.711305231e-08 5.878973752e-08 -6.98491931e-10 1.862645149e-09 1.210719347e-08)
5(-4.190951586e-09 -1.315493137e-08 -9.313225746e-10 2.328306437e-09 -2.793967724e-09)
5(-5.005858839e-09 -7.334165275e-09 1.396983862e-09 4.773028195e-09 1.129228622e-08)
5(-5.355104804e-09 -7.450580597e-09 2.328306437e-10 6.98491931e-09 1.746229827e-08)
5(-9.662471712e-09 -8.149072528e-09 -3.608874977e-09 6.053596735e-09 1.839362085e-08)
5(-1.722946763e-08 -1.024454832e-08 -2.793967724e-09 8.381903172e-09 2.258457243e-08)
5(-1.944135875e-08 -1.350417733e-08 -3.958120942e-09 9.662471712e-09 2.770684659e-08)
5(-2.211891115e-08 -1.443549991e-08 -3.608874977e-09 1.268927008e-08 3.317836672e-08)
5(-2.491287887e-08 -1.629814506e-08 -2.910383046e-09 1.629814506e-08 3.923196346e-08)
5(-2.747401595e-08 -1.629814506e-08 -1.396983862e-09 1.967418939e-08 4.575122148e-08)
5(-3.166496754e-08 -1.699663699e-08 1.047737896e-09 2.433080226e-08 5.296897143e-08)
5(-3.282912076e-08 -1.769512892e-08 2.910383046e-09 2.968590707e-08 6.053596735e-08)
5(-3.585591912e-08 -1.664739102e-08 5.937181413e-09 3.434251994e-08 6.915070117e-08)
5(-3.702007234e-08 -1.699663699e-08 8.149072528e-09 4.132743925e-08 7.858034223e-08)
5(-3.806781024e-08 -1.536682248e-08 1.292210072e-08 4.831235856e-08 8.894130588e-08)
5(-4.121102393e-08 -1.559965312e-08 1.676380634e-08 5.692709237e-08 1.001171768e-07)
5(-4.0512532e-08 -1.268927008e-08 2.281740308e-08 6.472691894e-08 1.125736162e-07)
5(-4.272442311e-08 -8.963979781e-09 2.817250788e-08 7.543712854e-08 1.257285476e-07)
5(-4.307366908e-08 -7.566995919e-09 3.539025784e-08 8.789356798e-08 1.415610313e-07)
5(-4.10946086e-08 -1.629814506e-09 4.528556019e-08 9.883660823e-08 1.561129466e-07)
5(-4.342291504e-08 2.211891115e-09 5.168840289e-08 1.139706001e-07 1.753214747e-07)
5(-3.969762474e-08 8.032657206e-09 6.449408829e-08 1.294538379e-07 1.955777407e-07)
5(-3.457535058e-08 1.75787136e-08 7.881317288e-08 1.452863216e-07 2.161832526e-07)
5(-3.480818123e-08 2.596061677e-08 8.975621313e-08 1.676380634e-07 2.414453775e-07)
5(-2.922024578e-08 3.376044333e-08 1.071020961e-07 1.88476406e-07 2.661254257e-07)
5(-1.944135875e-08 4.807952791e-08 1.268927008e-07 2.09431164e-07 2.931337804e-07)
5(-1.257285476e-08 6.34463504e-08 1.443549991e-07 2.367887646e-07 3.239838406e-07)
5(-6.519258022e-09 7.660128176e-08 1.642620191e-07 2.658925951e-07 3.554159775e-07)
5(6.519258022e-09 9.243376553e-08 1.899898052e-07 2.919696271e-07 3.878958523e-07)
5(2.363231033e-08 1.14669092e-07 2.180458978e-07 3.247987479e-07 4.266621545e-07)
5(3.94647941e-08 1.392327249e-07 2.429587767e-07 3.597233444e-07 4.65894118e-07)
5(5.669426173e-08 1.599546522e-07 2.712476999e-07 3.94997187e-07 5.034962669e-07)
5(7.62520358e-08 1.832377166e-07 3.054738045e-07 4.324829206e-07 5.461042747e-07)
5(1.023290679e-07 2.133892849e-07 3.419118002e-07 4.713656381e-07 5.918554962e-07)
5(1.338194124e-07 2.477318048e-07 3.785826266e-07 5.170004442e-07 6.393529475e-07)
5(1.691514626e-07 2.846354619e-07 4.163011909e-07 5.657784641e-07 6.901100278e-07)
5(2.089655027e-07 3.230525181e-07 4.617031664e-07 6.139744073e-07 7.452908903e-07)
5(2.569868229e-07 3.670575097e-07 5.140900612e-07 6.683403626e-07 8.087372407e-07)
5(3.165914677e-07 4.217145033e-07 5.703186616e-07 7.365597412e-07 8.780043572e-07)
5(3.892346285e-07 4.856847227e-07 6.365589797e-07 8.115312085e-07 9.54605639e-07)
5(4.822504707e-07 5.617039278e-07 7.143244147e-07 8.932547644e-07 1.040985808e-06)
5(5.976762623e-07 6.552436389e-07 8.074566722e-07 9.938376024e-07 1.136213541e-06)
5(7.341732271e-07 7.699709386e-07 9.208451957e-07 1.109554432e-06 1.248321496e-06)
5(8.950009942e-07 9.083305486e-07 1.058331691e-06 1.239823177e-06 1.373817213e-06)
5(1.089822035e-06 1.076550689e-06 1.220032573e-06 1.396052539e-06 1.508044079e-06)
5(1.325155608e-06 1.281034201e-06 1.405598596e-06 1.569045708e-06 1.65309757e-06)
5(1.589942258e-06 1.523061655e-06 1.63144432e-06 1.755659468e-06 1.806067303e-06)