/*--------------------------------*- C++ -*----------------------------------*\
| =========                 |                                                 |
| \\      /  F ield         | OpenFOAM: The Open Source CFD Toolbox           |
|  \\    /   O peration     | Version:  2.3.1                                 |
|   \\  /    A nd           | Web:      www.OpenFOAM.org                      |
|    \\/     M anipulation  |                                                 |
\*---------------------------------------------------------------------------*/
FoamFile
{
    version     2.0;
    format      ascii;
    class       dictionary;
    location    "constant";
    object      PM40;
}
// * * * * * * * * * * * * * * * * * * * * * * * * * * * * * * * * * * * * * //

PM40_table
60
(

60
(
5(5.285469128e-05 0.0002348876571 0.0001970504122 -0.0002970634302 0.0006076134289)
5(0.0008392360184 -0.0006930304528 -0.0006949057876 -0.000483215337 0.00178207478)
5(-0.0003620278895 -0.0006825316846 -0.0006255351394 -0.0003102444547 -0.0004942568173)
5(-0.0006362044376 -0.0006986190141 -0.0005768991354 -0.0005446041462 -0.0003819485934)
5(-0.0007523780219 -0.0007336206282 -0.0005499622522 -0.0005366635711 -0.0004330368073)
5(-0.0007609410837 -0.0007449128957 -0.0006222302533 -0.0005240946817 -0.0005718291217)
5(-0.0007791490716 -0.0007164911484 -0.000718644357 -0.0005532326424 -0.0006036881196)
5(-0.0006731058468 -0.0007389602998 -0.0006981245417 -0.0005351213847 -0.0005184860768)
5(-0.0006315382748 -0.0007791377316 -0.0006843509442 -0.0005333898865 -0.0006055111232)
5(-0.0006766871612 -0.0007964394956 -0.000673088371 -0.0005289214677 -0.0005902157908)
5(-0.0007855949773 -0.0008016299147 -0.0006589541742 -0.0005298726595 -0.0005764683355)
5(-0.00085930646 -0.0007603771357 -0.0006605728687 -0.0005306769426 -0.0005712630346)
5(-0.0008153112018 -0.0007284904594 -0.0006714465795 -0.0005271660452 -0.0005733575582)
5(-0.0007654635843 -0.0007240523287 -0.0006664623302 -0.0005241729961 -0.000567299181)
5(-0.0007618473492 -0.0007238243084 -0.000667964021 -0.0005250492911 -0.000564796263)
5(-0.0007613457744 -0.0007231192994 -0.0006656258872 -0.0005211116718 -0.0005640302551)
5(-0.000771835697 -0.000722961653 -0.0006617326716 -0.0005205101437 -0.0005616912078)
5(-0.0007759640659 -0.0007198804499 -0.0006604545292 -0.000516832896 -0.0005547143945)
5(-0.0007764085129 -0.0007186194719 -0.0006560037378 -0.0005151880982 -0.0005493623783)
5(-0.0007752125765 -0.000711081982 -0.0006499258847 -0.0005103881694 -0.0005430518091)
5(-0.0007713578906 -0.0007057085893 -0.0006456280264 -0.0005052852648 -0.0005395977921)
5(-0.0007720506543 -0.0007018525584 -0.0006386223523 -0.0005071709069 -0.000541934593)
5(-0.0007673301503 -0.0006952268174 -0.0006361230634 -0.0005076830129 -0.0005429692249)
5(-0.0007615830541 -0.0006836290651 -0.0006311582462 -0.0005068828968 -0.0005431990728)
5(-0.0007541327314 -0.0006700324516 -0.0006279654914 -0.0005076238808 -0.0005479118318)
5(-0.0007413201422 -0.0006619218338 -0.000622744608 -0.000508291798 -0.0005555750954)
5(-0.0007306153825 -0.0006633367434 -0.0006215054683 -0.0005136988799 -0.0005705281658)
5(-0.0007250603048 -0.0006573492293 -0.0006182182158 -0.000524784921 -0.0005931171085)
5(-0.000710731828 -0.0006414618784 -0.0006230100916 -0.0005449185648 -0.0006232345515)
5(-0.0006944090632 -0.0006304268564 -0.000630900296 -0.0005727725699 -0.0006659591476)
5(-0.00067595764 -0.0006233454918 -0.000644251924 -0.0006078632965 -0.0007253578167)
5(-0.0006585859506 -0.0006233135112 -0.0006724909675 -0.0006640648981 -0.0008025458747)
5(-0.0006408039178 -0.0006223896696 -0.000701691865 -0.0007294077205 -0.0008906133489)
5(-0.0006228047561 -0.0006327686426 -0.0007510850597 -0.000824070758 -0.001035758635)
5(-0.0006144381873 -0.0006590059837 -0.0008148143526 -0.0009352199298 -0.001179698952)
5(-0.0006108494134 -0.0006980530214 -0.000919773979 -0.001092368063 -0.001329087782)
5(-0.0006425879503 -0.0008053177526 -0.0011160071 -0.001257175211 -0.001505659202)
5(-0.000684204834 -0.0009008371341 -0.001255759776 -0.001439329437 -0.001718754437)
5(-0.0007652575457 -0.001060127335 -0.001418737976 -0.001622446292 -0.001642897533)
5(-0.0008914262359 -0.001253239917 -0.001634033141 -0.001716161732 -0.001198360423)
5(-0.00110095929 -0.001521389442 -0.001891769558 -0.001693199814 -0.001364526041)
5(-0.001321323667 -0.001742979365 -0.002000561123 -0.001452747243 -0.001212621092)
5(-0.001550139696 -0.001917134533 -0.001895471383 -0.001301943666 -0.0009914893072)
5(-0.001689700456 -0.001852203928 -0.001617818431 -0.001115144414 -0.0007330219311)
5(-0.001785061252 -0.001791846626 -0.001443498313 -0.00080117274 -0.0004989711088)
5(-0.001718098071 -0.001537262942 -0.0009431704966 -0.0005197829341 -0.0002938577091)
5(-0.001469193726 -0.001194376228 -0.0005233153931 -0.0003318271069 -0.0001512338801)
5(-0.001185323675 -0.000819388428 -0.000347223652 -0.0001760574298 -6.578643623e-05)
5(-0.0008298058615 -0.0003740122295 -0.0001880250782 -7.816538524e-05 -2.415596065e-05)
5(-0.0003768918222 -0.0001686252099 -9.131458635e-05 -2.886635564e-05 -7.494667157e-06)
5(-0.0001585345363 -8.518465542e-05 -3.378359927e-05 -8.916977755e-06 -1.923886385e-06)
5(-7.563931298e-05 -3.119928852e-05 -1.011320059e-05 -2.213532979e-06 -4.071632395e-07)
5(-2.709374007e-05 -8.449694391e-06 -2.428382101e-06 -4.27951289e-07 -6.756320861e-08)
5(-6.317656789e-06 -1.691959506e-06 -4.20235441e-07 -6.006198209e-08 -8.780664099e-09)
5(-1.064971669e-06 -2.499908518e-07 -5.086220899e-08 -5.025595537e-09 -6.591714354e-10)
5(-1.004070534e-07 -1.869384183e-08 -3.64740685e-09 -3.67889292e-11 9.187077015e-13)
5(-4.151891956e-09 -7.067405044e-10 -4.95626434e-11 4.069822483e-11 4.604872659e-12)
5(4.993592862e-11 2.07952537e-11 5.635249127e-12 3.217808026e-12 2.727776435e-13)
5(1.712622897e-12 5.282402694e-13 6.460121061e-12 -1.345307611e-13 2.44686062e-15)
5(2.829537485e-17 8.1787235e-17 2.619637153e-08 4.112622971e-16 7.335898495e-16)
)


60
(
5(-0.000963550425 -0.000719214281 -0.0009468594676 -0.0006852474001 -0.0007521035998)
5(-0.001219605922 -0.001054773382 -0.001153944209 -0.0007897912749 -0.001016824436)
5(-0.00120936142 -0.001017376036 -0.000985534689 -0.0007676797455 -0.0008968287964)
5(-0.001038473052 -0.001007065541 -0.0008950016004 -0.0007775404324 -0.0006472399757)
5(-0.001150853945 -0.001069203966 -0.0009610895704 -0.0007637769524 -0.0007752869174)
5(-0.001232284556 -0.001138937159 -0.001097621632 -0.0008061074367 -0.0008626914744)
5(-0.001313854524 -0.00118223269 -0.00113546265 -0.0008547406721 -0.0008575693049)
5(-0.001382286012 -0.001196052768 -0.001123855217 -0.0008467185185 -0.0009044674183)
5(-0.001308748254 -0.00120094711 -0.00112707747 -0.0008400917128 -0.000883775789)
5(-0.001288939841 -0.001204486084 -0.001106242138 -0.0008459674588 -0.0008691424704)
5(-0.001303029934 -0.001218794742 -0.001112720333 -0.0008484463772 -0.0008749368486)
5(-0.001379593 -0.001229163268 -0.001135392709 -0.0008537646477 -0.0008846164136)
5(-0.001437857164 -0.001234566474 -0.001143889883 -0.0008537458035 -0.0008816500238)
5(-0.001440134202 -0.001236017908 -0.001145815074 -0.0008644345885 -0.0008836696909)
5(-0.001462204437 -0.00124963814 -0.001153058563 -0.0008604806196 -0.0008797776644)
5(-0.001466247836 -0.001251538775 -0.001152252961 -0.0008595075614 -0.000874936679)
5(-0.001470700365 -0.001258650209 -0.001150167714 -0.0008555607014 -0.0008648515224)
5(-0.001485019366 -0.001259659639 -0.001146453304 -0.000848082438 -0.0008586732338)
5(-0.001493376046 -0.001256544375 -0.001139745452 -0.0008444013289 -0.0008510999282)
5(-0.001491019721 -0.001245889113 -0.00112859887 -0.0008327240658 -0.0008403481665)
5(-0.001497894266 -0.00124513885 -0.001121133687 -0.0008260660495 -0.0008236536989)
5(-0.001489183719 -0.001234871436 -0.001104948529 -0.0008258224299 -0.0008147613788)
5(-0.001482957534 -0.00121732681 -0.001087600528 -0.0008026563749 -0.0007923025846)
5(-0.001469059597 -0.00119030631 -0.001063241682 -0.0007842703651 -0.0007721532518)
5(-0.00145111137 -0.001165510168 -0.001035304354 -0.0007618967146 -0.000748078878)
5(-0.001424166266 -0.001136046975 -0.001000233756 -0.0007339382905 -0.0007254025822)
5(-0.001390291134 -0.001106532069 -0.0009684988814 -0.0007066709579 -0.0006982501858)
5(-0.001359773578 -0.001068996009 -0.0009246176666 -0.0006779211001 -0.0006757927384)
5(-0.001307046892 -0.001019299684 -0.0008828766174 -0.000652413349 -0.0006531064863)
5(-0.001253571674 -0.0009614141639 -0.0008361267713 -0.0006289034472 -0.0006362773754)
5(-0.001186233323 -0.0008994121829 -0.0007829919052 -0.0006002827512 -0.0006247398667)
5(-0.001115537037 -0.0008403099504 -0.0007397679283 -0.0005884330288 -0.0006333958261)
5(-0.001037645899 -0.0007762201782 -0.0006943480176 -0.0005786603039 -0.0006387155072)
5(-0.0009517305899 -0.0007105367278 -0.0006540788564 -0.0005869220387 -0.0006893551929)
5(-0.0008645319802 -0.0006571898614 -0.0006362619123 -0.0006148682541 -0.0007556878231)
5(-0.0007839574085 -0.0006058627147 -0.0006223245205 -0.0006680156483 -0.0008521919751)
5(-0.0007073286903 -0.0005971583326 -0.0006813983217 -0.0007729885477 -0.0009846478928)
5(-0.00065391092 -0.0005963379761 -0.0007555624875 -0.000899056542 -0.001208493846)
5(-0.0006258082524 -0.0006461546987 -0.0008646254584 -0.001081933903 -0.00136072925)
5(-0.0006345828905 -0.0007368866652 -0.001007308585 -0.001276902242 -0.001728086321)
5(-0.0007045327737 -0.0008942644316 -0.001236662794 -0.00150125985 -0.001913366718)
5(-0.0008319527878 -0.001078797739 -0.001457711795 -0.001761883529 -0.00201449435)
5(-0.001000465091 -0.00129951451 -0.001670629794 -0.00203374414 -0.001974058025)
5(-0.001186620829 -0.001448460104 -0.001666163243 -0.001998962862 -0.001768753228)
5(-0.001352396933 -0.001557043402 -0.001703679209 -0.00179327006 -0.00145849765)
5(-0.001472220595 -0.001528584289 -0.001615215119 -0.001462047404 -0.001066204454)
5(-0.001468803036 -0.001418540205 -0.001468403103 -0.001056670501 -0.00068371896)
5(-0.001304096389 -0.001232696609 -0.001101352266 -0.0006688712898 -0.0003768872227)
5(-0.001070490098 -0.0008776650769 -0.0006993241809 -0.0003628324173 -0.0001750289686)
5(-0.0007571569874 -0.0006199068405 -0.000375627732 -0.0001644687548 -6.74128597e-05)
5(-0.0004630228713 -0.0003242895141 -0.0001667036017 -6.133376288e-05 -2.161246885e-05)
5(-0.000255183871 -0.000136100294 -5.897906719e-05 -1.843751006e-05 -5.72059406e-06)
5(-0.0001031080792 -4.498630514e-05 -1.640990951e-05 -4.43636633e-06 -1.219547547e-06)
5(-3.007866377e-05 -1.084142763e-05 -3.391970075e-06 -7.922620148e-07 -2.00500781e-07)
5(-5.853065276e-06 -1.788911823e-06 -5.025434982e-07 -1.048859231e-07 -2.550036086e-08)
5(-6.740341091e-07 -1.889719426e-07 -4.581493741e-08 -9.248020195e-09 -2.123817065e-09)
5(-3.583519517e-08 -9.530179944e-09 -2.610083818e-09 -4.326642188e-10 -1.124115945e-10)
5(-8.142817645e-10 -2.652539139e-10 -5.916571047e-11 -1.270675713e-11 -2.531442135e-12)
5(-4.039505994e-11 -1.409764265e-09 1.921774377e-09 -1.738953226e-10 1.635983837e-13)
5(-8.941165357e-13 9.041056592e-09 2.896557297e-08 -7.370511707e-09 -1.448325944e-15)
)


60
(
5(-0.001099868059 -0.0005811766522 -0.001138703488 -0.000752401395 -0.0009321755278)
5(-0.001582913878 -0.0009261798376 -0.00140748379 -0.0008886322691 -0.001210063605)
5(-0.001663228343 -0.001074094968 -0.001364942157 -0.0009009818089 -0.001078021225)
5(-0.001685134049 -0.001135456771 -0.001365997898 -0.0009136017204 -0.001040634867)
5(-0.00173856543 -0.001174400361 -0.001404155631 -0.0009387824447 -0.001060703753)
5(-0.001804672605 -0.001215821192 -0.001448259444 -0.0009760454848 -0.001094674862)
5(-0.001855537582 -0.001243131606 -0.001494003935 -0.001001400176 -0.00112479347)
5(-0.001891916641 -0.001268570253 -0.001515634845 -0.001014769015 -0.001136206463)
5(-0.001908177001 -0.001287569572 -0.001525187023 -0.001025344734 -0.001146280953)
5(-0.001906012481 -0.001295892711 -0.001530804691 -0.00103392041 -0.001155439913)
5(-0.001915345404 -0.001301466057 -0.001539264378 -0.001040327784 -0.001152612573)
5(-0.001924442901 -0.001312442198 -0.001542915331 -0.00104797513 -0.001152566595)
5(-0.001926895358 -0.00131607954 -0.001547077442 -0.001055050313 -0.001154316093)
5(-0.001923282533 -0.001317929023 -0.001548800446 -0.001055346573 -0.001155283484)
5(-0.001911204503 -0.001318457283 -0.001547105634 -0.001056775498 -0.001146198929)
5(-0.001908798332 -0.001315437776 -0.00154054632 -0.001057121426 -0.001139639271)
5(-0.001900666344 -0.001308772609 -0.001532649422 -0.001052790612 -0.001126661833)
5(-0.001879700425 -0.001301660438 -0.001522268196 -0.001044233495 -0.00110865748)
5(-0.001867169966 -0.001295658085 -0.001507532537 -0.001034172471 -0.001096617274)
5(-0.001840252842 -0.001282776938 -0.001487438595 -0.001021308307 -0.00107731917)
5(-0.001825561985 -0.0012708859 -0.001462406781 -0.001008288912 -0.001054930176)
5(-0.001799821118 -0.001248609115 -0.001434703955 -0.0009876150452 -0.001027168436)
5(-0.001768297607 -0.001227566004 -0.001403890847 -0.0009641732849 -0.0009952481312)
5(-0.001721781154 -0.001198813213 -0.001362660459 -0.0009366818349 -0.0009601309261)
5(-0.001681832372 -0.001169873627 -0.001318029171 -0.0009033550077 -0.0009140448477)
5(-0.001630069319 -0.001132093126 -0.001261182962 -0.0008636664287 -0.0008669231372)
5(-0.001567228243 -0.001093855235 -0.001203640996 -0.0008208456442 -0.000818608623)
5(-0.001514003471 -0.00104709608 -0.001138456405 -0.0007711291796 -0.0007594463008)
5(-0.001439563625 -0.0009890036884 -0.001064674444 -0.0007176974089 -0.0007025142795)
5(-0.001358596056 -0.0009326456786 -0.0009857773843 -0.0006571797999 -0.0006358289621)
5(-0.001272773469 -0.0008663218138 -0.0008980390854 -0.0005934266671 -0.0005744019991)
5(-0.001177631313 -0.0007922477035 -0.0008089499322 -0.0005283725964 -0.000511163469)
5(-0.001072678453 -0.0007144311338 -0.0007175059893 -0.0004648054149 -0.0004557558179)
5(-0.00096407206 -0.0006342412443 -0.0006249449331 -0.0004047043025 -0.0004110633436)
5(-0.000847406557 -0.0005493319933 -0.0005377087514 -0.000355639849 -0.0003841288616)
5(-0.0007347843851 -0.0004710126726 -0.0004620464374 -0.0003226701618 -0.0003805470549)
5(-0.0006208568758 -0.0003957667376 -0.000403792693 -0.0003143561215 -0.0004073588881)
5(-0.0005116067308 -0.0003353149334 -0.0003697770083 -0.000336611628 -0.0004719401144)
5(-0.0004190039482 -0.0002961337674 -0.0003680517088 -0.0003951385293 -0.0005787319819)
5(-0.0003454835982 -0.000280821712 -0.000405068108 -0.0004951242782 -0.0007270756439)
5(-0.0003021411629 -0.0003041668543 -0.0004839565477 -0.00063319668 -0.0009088068556)
5(-0.0002913008491 -0.0003557463811 -0.0005942024767 -0.0007997685023 -0.001096945187)
5(-0.0003120564726 -0.0004421194576 -0.0007261981838 -0.0009722903257 -0.00124771286)
5(-0.0003612678674 -0.0005497052144 -0.0008571724764 -0.001115024271 -0.00131767209)
5(-0.0004294351854 -0.0006511442785 -0.000959638837 -0.001184200196 -0.00127638571)
5(-0.0004974650871 -0.0007218221456 -0.0009998459613 -0.001146661315 -0.001122877886)
5(-0.0005363378582 -0.0007380675562 -0.0009591628541 -0.0009961242176 -0.0008812321352)
5(-0.0005328428971 -0.0006923034493 -0.0008254296683 -0.0007668209714 -0.0006082941329)
5(-0.0004708148395 -0.000580157634 -0.0006242958128 -0.0005150470436 -0.0003625085534)
5(-0.0003717774828 -0.0004271829197 -0.0004059599199 -0.0002952695744 -0.0001820510154)
5(-0.0002512171391 -0.0002693082833 -0.0002221625444 -0.0001413933539 -7.640557478e-05)
5(-0.0001413421844 -0.0001386272889 -9.921836662e-05 -5.49370993e-05 -2.563714375e-05)
5(-6.252098538e-05 -5.605810259e-05 -3.46537236e-05 -1.686138814e-05 -6.990156535e-06)
5(-2.054520574e-05 -1.692601724e-05 -9.043059228e-06 -3.928971513e-06 -1.443523678e-06)
5(-4.696250137e-06 -3.538750018e-06 -1.636214883e-06 -6.529350927e-07 -2.231451043e-07)
5(-6.60285947e-07 -4.639330269e-07 -2.007290723e-07 -7.47092572e-08 -2.529244348e-08)
5(-5.792945276e-08 -3.655213106e-08 -1.317742136e-08 -5.42225611e-09 -1.597440656e-09)
5(-1.443832045e-09 -1.366870496e-09 -4.779601123e-10 -4.046693686e-10 -5.216943878e-11)
5(-1.361457793e-09 2.223678465e-09 2.461289945e-09 -3.63385638e-10 5.86651031e-10)
5(1.123879567e-12 3.732623902e-07 6.574694056e-10 -1.595240206e-09 -2.630243573e-15)
)


60
(
5(-0.001306051383 -0.0004953738977 -0.001401323627 -0.0009000227619 -0.00120857465)
5(-0.002022927593 -0.001013157351 -0.001751288127 -0.001089756807 -0.001509300025)
5(-0.00224291325 -0.001237554537 -0.001789072814 -0.001140368855 -0.001420915336)
5(-0.002294680685 -0.001313675399 -0.00181675877 -0.001172735413 -0.001397513565)
5(-0.002334114215 -0.001347910133 -0.001856593892 -0.001205301574 -0.001412819071)
5(-0.002394927445 -0.001385367434 -0.001903844185 -0.001241760133 -0.001458137132)
5(-0.00244207938 -0.001409876742 -0.001942591765 -0.00126476835 -0.001500076694)
5(-0.002450493544 -0.001412884271 -0.001961650892 -0.001283127174 -0.001517044419)
5(-0.002436958736 -0.001413001718 -0.00196120079 -0.001287088169 -0.001522332203)
5(-0.002424900346 -0.001401706512 -0.001952518355 -0.0012875537 -0.001517890606)
5(-0.002391321315 -0.001384943125 -0.001936314737 -0.001280273825 -0.001512254956)
5(-0.002357794819 -0.001367785509 -0.001921291068 -0.001282160105 -0.001514946474)
5(-0.00232376995 -0.001339440895 -0.001907742793 -0.001279287234 -0.001503142655)
5(-0.002288582683 -0.001308963958 -0.001892303299 -0.001266460785 -0.001489266039)
5(-0.002222304328 -0.001278026004 -0.001869272282 -0.001255609283 -0.001487523173)
5(-0.002161372228 -0.001249314384 -0.001839173303 -0.001242834292 -0.001466646659)
5(-0.002112095655 -0.001217411423 -0.001802754187 -0.001225057861 -0.001446028961)
5(-0.0020404283 -0.001176337277 -0.001769121946 -0.001201517985 -0.001421967242)
5(-0.001978431964 -0.001140025441 -0.001724177469 -0.001181604542 -0.001394324952)
5(-0.00190695091 -0.001094447568 -0.001684901928 -0.001158542545 -0.001372310352)
5(-0.001829595464 -0.001054869025 -0.001640412567 -0.001132333077 -0.001329652759)
5(-0.001753269456 -0.001014618342 -0.001588245287 -0.001104201911 -0.001289400297)
5(-0.001687598704 -0.0009654606857 -0.001529777009 -0.00107032096 -0.001246595239)
5(-0.001593923735 -0.0009143485205 -0.00147471229 -0.001033076776 -0.001201583473)
5(-0.001501867697 -0.0008747311399 -0.001415365498 -0.0009952306936 -0.001154720167)
5(-0.001412096701 -0.0008295178942 -0.001346682232 -0.0009467357718 -0.00108866948)
5(-0.001321264074 -0.0007902127878 -0.001275462362 -0.0008973590523 -0.001023558393)
5(-0.001239937863 -0.0007405634549 -0.001195390977 -0.0008400597681 -0.0009539565668)
5(-0.001140338695 -0.0006913646066 -0.001114533371 -0.0007799980303 -0.0008703265818)
5(-0.001039708438 -0.0006422509359 -0.001023562476 -0.000712714291 -0.000793543787)
5(-0.0009387122871 -0.0005866254464 -0.0009270472511 -0.0006371976442 -0.0006972317482)
5(-0.0008378379992 -0.0005283473459 -0.0008293505891 -0.000561456362 -0.0006096098747)
5(-0.0007273152945 -0.0004722422483 -0.0007269175917 -0.0004773807683 -0.0005145329758)
5(-0.0006207476599 -0.000402805125 -0.0006207726544 -0.0003952350119 -0.0004292448787)
5(-0.0005079267412 -0.0003344627222 -0.0005163454737 -0.0003165178189 -0.0003503792928)
5(-0.0004063625768 -0.000266435574 -0.0004154632634 -0.0002493680614 -0.0002944079954)
5(-0.0002955719398 -0.0001978074641 -0.0003278846781 -0.0001972197596 -0.0002610797273)
5(-0.0001905082261 -0.0001351885406 -0.0002574997784 -0.0001695082154 -0.0002634233704)
5(-0.0001003515233 -8.636364258e-05 -0.0002130862658 -0.0001742686346 -0.0003113668968)
5(-2.651002493e-05 -5.310234057e-05 -0.0001975800488 -0.0002168233078 -0.0004060450342)
5(2.800650865e-05 -4.10801231e-05 -0.0002168164778 -0.0003039530308 -0.0005463451839)
5(6.063197078e-05 -5.266117876e-05 -0.0002749032173 -0.0004296352867 -0.0007179051902)
5(6.79592089e-05 -9.218187285e-05 -0.0003638804863 -0.000587281486 -0.0008969608636)
5(5.411878389e-05 -0.0001564447846 -0.0004733222721 -0.0007499449087 -0.001041280444)
5(2.35836686e-05 -0.0002347928743 -0.0005854735149 -0.0008812267578 -0.001114158578)
5(-1.772640015e-05 -0.0003077724578 -0.0006741778046 -0.0009444478576 -0.001087744302)
5(-5.277134616e-05 -0.0003591402929 -0.0007109564812 -0.0009099974988 -0.0009575475548)
5(-7.550538503e-05 -0.0003769954757 -0.000675578767 -0.0007842902228 -0.0007509243217)
5(-7.41974119e-05 -0.0003557556268 -0.0005681374385 -0.0005948680984 -0.000513408343)
5(-5.076183178e-05 -0.0002920079057 -0.0004141961122 -0.0003887133899 -0.0003015546972)
5(-1.78279674e-05 -0.000206537093 -0.0002546228984 -0.0002144992692 -0.0001494003532)
5(1.424270457e-05 -0.0001197066597 -0.0001289227223 -9.789756765e-05 -6.046994246e-05)
5(3.446764672e-05 -5.390456376e-05 -5.217608128e-05 -3.501019929e-05 -1.920552765e-05)
5(3.403872618e-05 -1.766524363e-05 -1.586810844e-05 -9.547181502e-06 -4.786409027e-06)
5(1.946941953e-05 -4.04690284e-06 -3.355741207e-06 -1.841990835e-06 -8.411403617e-07)
5(8.951724324e-06 -4.251485111e-07 -4.43603197e-07 -2.36709114e-07 -9.553457451e-08)
5(2.253786936e-06 1.221642397e-08 -3.818013666e-08 -1.791492554e-08 -7.598016824e-09)
5(2.649913247e-07 3.104364101e-09 -1.497228011e-09 8.299828849e-10 -2.994482611e-10)
5(3.427791446e-08 9.728293445e-08 1.864637796e-10 2.081858192e-09 -5.332736375e-09)
5(8.012055849e-07 2.893141206e-07 -1.242792848e-07 -6.216705098e-10 -3.644877741e-09)
)


60
(
5(-0.001645168856 -0.0005297265244 -0.001816474677 -0.001188965623 -0.001633166359)
5(-0.002630563155 -0.001269031405 -0.002217494223 -0.001423764107 -0.001937858179)
5(-0.002989683654 -0.001564706984 -0.002320409042 -0.001504633056 -0.001880636549)
5(-0.003067618523 -0.001650242974 -0.002370503411 -0.001547927964 -0.001872315372)
5(-0.003105559665 -0.001678130449 -0.002411843121 -0.001583431909 -0.001893202945)
5(-0.003152615136 -0.001699151783 -0.002445190487 -0.001611755517 -0.001936730559)
5(-0.003173486385 -0.001689758465 -0.002463562548 -0.001627905006 -0.001982133547)
5(-0.003162042918 -0.001665052026 -0.002463505497 -0.001631546936 -0.001997139497)
5(-0.003112721495 -0.001620913166 -0.002431825337 -0.001612730571 -0.001987021138)
5(-0.003049546532 -0.001568805149 -0.002393475986 -0.001588959104 -0.001968640466)
5(-0.002965475593 -0.001504958295 -0.00233993498 -0.001563313536 -0.00195226732)
5(-0.002877917085 -0.001433845719 -0.002291608246 -0.001538358127 -0.001929208372)
5(-0.002768849999 -0.001362627479 -0.002232616942 -0.001500937512 -0.001906684758)
5(-0.00269223923 -0.001292175914 -0.002168511069 -0.001464886392 -0.001881522851)
5(-0.002583226459 -0.001202445857 -0.002096241193 -0.001425006449 -0.001840847746)
5(-0.002440779216 -0.001103969621 -0.002023606046 -0.001384222092 -0.00180889244)
5(-0.002316452389 -0.001018420559 -0.001951825328 -0.001330593222 -0.001777472638)
5(-0.002184898332 -0.0009299403691 -0.001866331601 -0.001292189811 -0.001736732443)
5(-0.002051656188 -0.0008309491384 -0.001781875596 -0.001245741213 -0.001690905309)
5(-0.001908478021 -0.0007387746528 -0.001704416341 -0.001197012868 -0.001643893968)
5(-0.00177247557 -0.000654617506 -0.001613106649 -0.00114426589 -0.00159332776)
5(-0.001625877454 -0.0005548669157 -0.001525378171 -0.001092749144 -0.0015360575)
5(-0.001477192983 -0.000472286257 -0.001436581503 -0.001040784005 -0.001492219789)
5(-0.001336332196 -0.0003970246725 -0.001358841042 -0.0009920759114 -0.001436800804)
5(-0.001189039434 -0.0003205001421 -0.001266852682 -0.0009428760796 -0.001367842283)
5(-0.001049604502 -0.0002548329267 -0.001178355494 -0.0008888317772 -0.00129995717)
5(-0.0009059852995 -0.0001927454171 -0.001085628773 -0.0008367340322 -0.001236536972)
5(-0.0007774327025 -0.0001330902867 -0.001002671439 -0.0007801896433 -0.001151583353)
5(-0.0006441263053 -8.219264738e-05 -0.0009170865505 -0.0007226072076 -0.001063380772)
5(-0.0005256264249 -5.134617484e-05 -0.0008242989926 -0.000654536294 -0.0009629846069)
5(-0.000416382306 -8.598261161e-06 -0.0007302055595 -0.0005845246111 -0.0008595387194)
5(-0.0002919907465 3.725715052e-05 -0.0006469863476 -0.0005080121382 -0.0007476595569)
5(-0.0001755085233 6.43191413e-05 -0.0005469816103 -0.0004280980705 -0.0006442832178)
5(-6.934503082e-05 0.0001014654112 -0.0004517281354 -0.0003445190087 -0.0005267852904)
5(3.494724695e-05 0.0001298877919 -0.0003505599013 -0.0002594450156 -0.0004203461865)
5(0.0001235568093 0.0001698665434 -0.0002552691007 -0.0001755125922 -0.0003219261072)
5(0.0002282211787 0.0002074299971 -0.0001703982636 -0.000105085402 -0.0002442525792)
5(0.0003146352139 0.0002353781202 -9.147386592e-05 -5.059974265e-05 -0.000194709636)
5(0.0003881422686 0.00026258879 -2.894626435e-05 -2.079358217e-05 -0.0001833121955)
5(0.0004474527832 0.0002850440498 9.388334475e-06 -2.141054614e-05 -0.0002195138959)
5(0.0004877741279 0.0002933346329 2.092944444e-05 -6.103132401e-05 -0.0003014106685)
5(0.000502823166 0.0002878821335 -1.283337644e-06 -0.000139586992 -0.0004292120606)
5(0.0005058530634 0.0002641827924 -5.055115264e-05 -0.0002605393355 -0.0005954493057)
5(0.000481658292 0.0002190995553 -0.0001291481815 -0.0004114685744 -0.0007623685217)
5(0.0004490164122 0.0001664928318 -0.000222897173 -0.0005632050386 -0.0008967641265)
5(0.0004133757139 0.0001090927894 -0.0003214351688 -0.0006841768294 -0.0009639318706)
5(0.0003795709954 5.294269052e-05 -0.0003988685434 -0.0007397132217 -0.000937329173)
5(0.0003522370724 1.062941667e-05 -0.0004358106249 -0.000707832695 -0.0008168988706)
5(0.0003300991559 -1.628261174e-05 -0.0004157644545 -0.0005974123155 -0.0006281139832)
5(0.0003245768478 -2.564085778e-05 -0.0003394785655 -0.0004390687138 -0.0004204272594)
5(0.0003079857048 -2.301251192e-05 -0.0002359018505 -0.0002740740128 -0.0002367236266)
5(0.0002836964404 -4.171463698e-06 -0.0001346535475 -0.0001410137701 -0.0001111600595)
5(0.0002459334807 7.311049092e-06 -6.165457782e-05 -5.875095642e-05 -4.207981103e-05)
5(0.0001998402766 1.275736561e-05 -2.185008923e-05 -1.81314458e-05 -1.163818673e-05)
5(0.0001292082179 1.067971821e-05 -5.352234645e-06 -4.073300222e-06 -2.409964518e-06)
5(7.620453176e-05 4.718261122e-06 -1.007061638e-06 -5.883842085e-07 -3.366288253e-07)
5(3.068803822e-05 1.97866555e-06 -5.508017803e-08 -4.928417773e-08 -2.51549503e-08)
5(1.016947705e-05 2.723630552e-07 -1.599201224e-09 -2.077048057e-09 -1.10617751e-09)
5(2.837772385e-06 2.167819868e-08 2.480545141e-08 -5.697077489e-09 -2.697890662e-09)
5(3.760121683e-06 -4.369595148e-07 3.774227987e-07 -4.403454075e-08 2.026981142e-09)
)


60
(
5(-0.002150517504 -0.0007437006748 -0.002421986328 -0.001693992402 -0.002250091315)
5(-0.003505401133 -0.00179726376 -0.002879364957 -0.001972810391 -0.002549483032)
5(-0.00404225293 -0.002211685959 -0.003056214131 -0.002077581919 -0.002516922047)
5(-0.00418043818 -0.002343259215 -0.003137414463 -0.002128413713 -0.002507391758)
5(-0.004249139671 -0.0023782052 -0.003182103276 -0.002159829962 -0.002542462722)
5(-0.004336856738 -0.002393877737 -0.003203776176 -0.002182931533 -0.002594068643)
5(-0.004360874583 -0.002376554161 -0.003203945593 -0.002181300983 -0.002626045219)
5(-0.004351686117 -0.00233225865 -0.003179913045 -0.002158274103 -0.002634012859)
5(-0.004287991629 -0.002257944648 -0.003113370174 -0.002109393831 -0.002600171497)
5(-0.004212035276 -0.002179534641 -0.003033052027 -0.002055550344 -0.002562439128)
5(-0.004109926982 -0.00206996486 -0.002935587608 -0.001990616211 -0.002511455957)
5(-0.003991024468 -0.001968360348 -0.00284282041 -0.001925108173 -0.002469929703)
5(-0.003874229296 -0.001853345073 -0.002732136027 -0.001851839913 -0.00241448706)
5(-0.003734158588 -0.001725416178 -0.002627980217 -0.001776258464 -0.002362602028)
5(-0.003584100682 -0.00159719145 -0.002502523195 -0.001691490907 -0.002296384447)
5(-0.003429845874 -0.001462728589 -0.00238796102 -0.001609313788 -0.002238409955)
5(-0.003259549998 -0.00132322089 -0.00224847152 -0.001517872832 -0.002160833844)
5(-0.003100264776 -0.001183765858 -0.002113923535 -0.001446073474 -0.002098456061)
5(-0.002913469804 -0.001040474459 -0.001988103987 -0.001344463198 -0.002022638852)
5(-0.00273125387 -0.0009050933325 -0.001849536263 -0.001260299992 -0.00195323934)
5(-0.002559561457 -0.0007781420873 -0.001717932037 -0.00117655676 -0.001886565369)
5(-0.002352852362 -0.0006325454074 -0.001581382426 -0.001091538374 -0.001814290247)
5(-0.002177262248 -0.0005162751671 -0.001457423011 -0.001022066659 -0.001744561054)
5(-0.002006754221 -0.0004017075739 -0.001334206233 -0.0009463184207 -0.001668202695)
5(-0.001800433326 -0.0002956928133 -0.001208553502 -0.0008747462805 -0.00159211864)
5(-0.001621849974 -0.0002010025107 -0.001092221394 -0.0008114967163 -0.001515597314)
5(-0.00144902972 -0.0001124368527 -0.0009843738995 -0.0007458541742 -0.001424972491)
5(-0.00129539866 -3.678967731e-05 -0.0008934215633 -0.0006791774621 -0.001335759794)
5(-0.001097623543 2.229690982e-05 -0.0007798265926 -0.000614896095 -0.001253280724)
5(-0.0009345687823 8.211086844e-05 -0.0006782887982 -0.0005601762162 -0.001143286691)
5(-0.0007514100865 0.0001491294586 -0.0005852248835 -0.0004842300489 -0.001030813128)
5(-0.0005958500419 0.0001832020923 -0.0005010714315 -0.0004150144866 -0.0009206924659)
5(-0.0004378577637 0.0002314975371 -0.0004023184616 -0.0003385819662 -0.0007882535928)
5(-0.0002528635595 0.0002735826091 -0.0002993442649 -0.0002575264158 -0.0006532473366)
5(-9.97649863e-05 0.0003138768738 -0.0002131319763 -0.0001779395018 -0.0005348026898)
5(7.250673772e-05 0.0003740367425 -0.0001134284062 -9.580608978e-05 -0.0004089101731)
5(0.0002366695062 0.0003966759669 -2.664441491e-05 -2.290651452e-05 -0.0002979470659)
5(0.0003881820119 0.0004417987924 5.441251548e-05 4.370183113e-05 -0.0002083475384)
5(0.0005238669356 0.0004829465377 0.000123455433 9.701984357e-05 -0.0001491642431)
5(0.0006440155869 0.0005080042587 0.0001723895859 0.000125907139 -0.0001284569155)
5(0.0007212197411 0.00052796687 0.0002064834344 0.0001218687399 -0.0001512289656)
5(0.0007726778138 0.0005295772167 0.0002137746259 8.37109953e-05 -0.0002285176971)
5(0.0007872122287 0.0005151381994 0.0001901983581 2.324052555e-06 -0.000350023586)