/*--------------------------------*- C++ -*----------------------------------*\
| =========                 |                                                 |
| \\      /  F ield         | OpenFOAM: The Open Source CFD Toolbox           |
|  \\    /   O peration     | Version:  2.3.1                                 |
|   \\  /    A nd           | Web:      www.OpenFOAM.org                      |
|    \\/     M anipulation  |                                                 |
\*---------------------------------------------------------------------------*/
FoamFile
{
    version     2.0;
    format      ascii;
    class       dictionary;
    location    "constant";
    object      PM41;
}
// * * * * * * * * * * * * * * * * * * * * * * * * * * * * * * * * * * * * * //

PM41_table
60
(

60
(
5(0.002920186055 0.0008381305277 0.002210063157 0.0009361640157 0.001948696964)
5(0.001496387037 0.0003667079574 0.0006101673328 0.0004073882459 0.001724070646)
5(0.0001480548262 0.0008929636326 0.0005605198407 0.0002117303435 0.0001221951677)
5(0.0004296534536 0.0009854698267 0.0006939902648 0.0003667855709 0.001120883558)
5(0.0008446857759 0.0007775090663 0.0004710651088 0.0005056020858 0.0002916123419)
5(0.001037763546 0.0005596587164 0.0003096684045 0.0004004959684 0.0003308689002)
5(0.0008129646714 0.000530940854 0.0005175989614 0.0003900932974 0.0004865639946)
5(0.0006265758348 0.0006254153025 0.0005823690992 0.0003950002134 0.0002190328225)
5(0.0007143192029 0.0006476910988 0.0005236183465 0.0004081918148 0.0004197554547)
5(0.0006747051866 0.0006892329275 0.0005887443059 0.0003858017408 0.0004022237861)
5(0.0007635865385 0.0006754586648 0.0005264426044 0.0003993071732 0.0003757800235)
5(0.0008189809778 0.00065372041 0.0004886168198 0.0004087208709 0.0003534349572)
5(0.0008275137747 0.0006552387537 0.0005119983025 0.000417435638 0.0003690989277)
5(0.0008368322106 0.0006481258017 0.0005121954664 0.0003930941058 0.0003559799903)
5(0.00079196874 0.0006426445777 0.0005125021091 0.0004190495424 0.0003584758717)
5(0.0008217066073 0.0006561054569 0.0005284617681 0.000415372567 0.0003677118493)
5(0.0008266330065 0.000653865076 0.0005255267782 0.000422182708 0.0003798891593)
5(0.0008319043689 0.0006575225029 0.0005308162673 0.0004291249007 0.000376721458)
5(0.000841559456 0.0006729778037 0.0005362442143 0.0004318474404 0.0003757267668)
5(0.000862730952 0.0006835894048 0.0005412182999 0.0004422881744 0.0003673617726)
5(0.0008481029324 0.0006618387686 0.0005311113006 0.0004225371313 0.0003634864564)
5(0.0008602062436 0.0006696239688 0.0005331095361 0.0004071459133 0.0003667880781)
5(0.0008681695936 0.0006788905444 0.0005350715642 0.0004412040288 0.0003885687489)
5(0.0008626350238 0.0006893060319 0.0005387379101 0.0004412863353 0.0003871632602)
5(0.0008668236548 0.000678971812 0.0005539151523 0.0004597914466 0.0004009716554)
5(0.0008546113173 0.0006739269503 0.0005622178796 0.0004726404034 0.0004049097894)
5(0.0008425551011 0.0006710652218 0.0005569386215 0.0004859275346 0.0004212887225)
5(0.0008379568859 0.000680954469 0.0005725952643 0.0004985289877 0.0004425494461)
5(0.0008393132856 0.0006807451391 0.0005705125144 0.0005135869445 0.0004731362703)
5(0.0008269920314 0.0006875875921 0.0005851285018 0.0005388311285 0.0005103167151)
5(0.0008173909898 0.0006919854137 0.0006118701019 0.0005827397219 0.0005432782328)
5(0.0007941049941 0.0006926547221 0.0006292187468 0.000607304603 0.0005786841475)
5(0.0007771889643 0.0007116082313 0.0006774430894 0.000682521854 0.000696184904)
5(0.0007648675631 0.0007358117974 0.0007300338883 0.0007418088797 0.0007109739528)
5(0.0007523891037 0.0007652962073 0.0007954737229 0.0008399733129 0.0008398933647)
5(0.0007480549788 0.000819915264 0.0008871580436 0.0009383796319 0.0009426233691)
5(0.0007578493925 0.0008733840598 0.0009532977266 0.001061345061 0.0009984667532)
5(0.0007907123412 0.0009786923639 0.001102916395 0.00116969108 0.0009711008256)
5(0.0008535215039 0.001100620046 0.001258188991 0.001322613973 0.0009690519178)
5(0.0009502195019 0.001250054276 0.001406906339 0.0012130668 0.0003505228466)
5(0.00107610131 0.001404506778 0.001495618726 0.00110810139 0.0006051608714)
5(0.001228279093 0.001548248647 0.001491887754 0.0006968500052 0.000649156519)
5(0.001376091406 0.001642400201 0.001386056928 0.0005606231849 0.0007426458036)
5(0.001494570621 0.001696221402 0.001365783788 0.0006368014398 0.000619758633)
5(0.001526799247 0.001593453329 0.001076590171 0.0005261207814 0.000450829886)
5(0.001471618548 0.001373124547 0.0006155471571 0.0004033794544 0.0003011888092)
5(0.001255565121 0.0008830969595 0.0002712117197 0.0003182671692 0.000178032691)
5(0.0009482634008 0.0005754729714 0.00023042949 0.000199655384 9.116165314e-05)
5(0.0007398153739 0.0002825635487 0.00014897445 0.0001041814624 4.007607941e-05)
5(0.0003312701939 9.627969404e-05 9.218483011e-05 4.60247906e-05 1.517047468e-05)
5(0.0001386214466 7.016311497e-05 4.014351619e-05 1.754220019e-05 4.890237608e-06)
5(5.624876792e-05 3.388455588e-05 1.452387018e-05 5.60595544e-06 1.350337052e-06)
5(2.66243169e-05 1.186283972e-05 4.370454639e-06 1.492237176e-06 3.149891347e-07)
5(7.958018539e-06 3.077314886e-06 1.005004826e-06 3.231456619e-07 6.460441768e-08)
5(1.77193237e-06 6.287732792e-07 1.782140031e-07 5.508616939e-08 1.035820185e-08)
5(2.552975787e-07 7.517008618e-08 2.330987865e-08 6.735627821e-09 1.308883881e-09)
5(2.449236269e-08 7.029344103e-09 1.581287401e-09 5.452852158e-10 9.355470404e-11)
5(1.148602277e-09 2.910946484e-10 6.222222415e-11 1.947164948e-11 2.96100801e-12)
5(7.470296759e-12 2.165633462e-12 2.679285366e-11 -2.370469284e-12 2.129690497e-14)
5(6.060395453e-17 1.691393647e-16 4.956126355e-08 8.231154229e-16 1.607664789e-15)
)


60
(
5(0.005293668412 0.002390575238 0.003698115931 0.002144441313 0.00259281343)
5(0.00286376122 0.001299112355 0.001735550656 0.001308708104 0.001155803359)
5(0.001240425874 0.001625456163 0.001364898087 0.001015673161 0.00050431267)
5(0.0008368128218 0.001773852306 0.001591938141 0.0008689848094 0.001297072205)
5(0.001198303844 0.001726270848 0.001605747397 0.001085073758 0.001046912261)
5(0.001991521227 0.001668845963 0.001189534435 0.001097809095 0.000909985362)
5(0.002392789493 0.001635450581 0.001239618174 0.0009996769583 0.001079551278)
5(0.00197684371 0.001650224475 0.001412107231 0.001047480426 0.0008079348324)
5(0.002163194485 0.001702467391 0.001362653985 0.001072543346 0.0009097582985)
5(0.002097241476 0.001764746305 0.001485554413 0.001063102669 0.000939538755)
5(0.002173706966 0.001788994875 0.001492859779 0.001081324687 0.0009571782467)
5(0.00229540628 0.001813994212 0.001442816456 0.00109331566 0.0009362182756)
5(0.002294485075 0.001844491375 0.00143713481 0.001129036703 0.0009552742836)
5(0.002435916148 0.001874951327 0.001462126491 0.001104160326 0.0009430056001)
5(0.002380375004 0.001871398865 0.001455157636 0.001130061268 0.0009442256021)
5(0.002445610523 0.001903488037 0.00148681278 0.001141041061 0.0009516663772)
5(0.002467168408 0.001921500511 0.00149695869 0.001145726232 0.0009642244176)
5(0.002499174062 0.001934966757 0.001506241106 0.001159603106 0.0009723834223)
5(0.002513330693 0.001949673665 0.001511074078 0.001158905286 0.0009730734371)
5(0.002562446792 0.00199111781 0.001531240745 0.001181318806 0.0009669149519)
5(0.00257561422 0.001972120829 0.001511239168 0.001172537595 0.0009567261161)
5(0.00257425185 0.00196485904 0.001515084574 0.00112674017 0.0009324461136)
5(0.00261342137 0.001966714971 0.001500437718 0.001139811705 0.0009431279434)
5(0.0025815972 0.00197665452 0.001485785854 0.001127647315 0.0009298600242)
5(0.002581411765 0.001956147528 0.001476138956 0.001127731062 0.0009271152843)
5(0.002545965211 0.001920311622 0.001473446772 0.001126301315 0.0009174476618)
5(0.002507441996 0.001877040441 0.001426592799 0.00111432052 0.000906839001)
5(0.00245258595 0.001835519921 0.001403186702 0.001096760801 0.0009017525166)
5(0.002403131369 0.001791326036 0.001356839955 0.001075289475 0.0009018543685)
5(0.002324580643 0.001741182176 0.001311945401 0.001047793268 0.0009030128783)
5(0.002238197009 0.001677633472 0.001282573053 0.001052082951 0.0009211802344)
5(0.002127284717 0.001598117462 0.00123623448 0.001038070358 0.0009163164997)
5(0.001996297764 0.001528929218 0.001211806695 0.001053660534 0.0009916709829)
5(0.001866012902 0.001459866807 0.001201824668 0.001082137097 0.001020561231)
5(0.001732435161 0.00139116342 0.001195370837 0.001136676035 0.001110952664)
5(0.001605434568 0.001350787562 0.001235157128 0.001220065483 0.00122020421)
5(0.001475381391 0.001310691913 0.001252698298 0.001313923631 0.001357290838)
5(0.001375989731 0.001324556115 0.001337983289 0.001460335254 0.001411396213)
5(0.00131359352 0.001371302118 0.001465938077 0.001610164345 0.001643490566)
5(0.001307117675 0.001469342153 0.001626854773 0.001778696499 0.001402354183)
5(0.001353561613 0.001605400979 0.001781623418 0.001891816854 0.001478074443)
5(0.001452184408 0.001769440112 0.001929437138 0.001807401941 0.001485281657)
5(0.001600181194 0.001922078594 0.002022437855 0.00154632743 0.001432654479)
5(0.001758596611 0.002037139825 0.002068975659 0.001461164906 0.001309947382)
5(0.001887781424 0.002059181741 0.001922464433 0.001293636913 0.001097501293)
5(0.001933125973 0.001956601872 0.001642295813 0.001071711829 0.000838724443)
5(0.001860370944 0.001702375052 0.00111586424 0.000809117158 0.0005753665818)
5(0.001596112178 0.00131357995 0.0007798018189 0.0005475958808 0.0003481008289)
5(0.00132104444 0.0009424558773 0.0005133945629 0.0003275759956 0.0001831230325)
5(0.0009389482641 0.0005080649719 0.0002982412633 0.0001686272497 8.223753441e-05)
5(0.000566966814 0.0002809183975 0.0001481005468 7.443101674e-05 3.132047895e-05)
5(0.0002575913066 0.0001314420989 6.067338765e-05 2.713873213e-05 1.016073107e-05)
5(0.0001051405191 5.029659268e-05 2.013542862e-05 8.135293378e-06 2.715025683e-06)
5(3.504542216e-05 1.467151469e-05 5.108153385e-06 1.867437807e-06 5.794905546e-07)
5(8.507475238e-06 3.090903189e-06 9.657652353e-07 3.387554483e-07 1.012102633e-07)
5(1.338417676e-06 4.43291377e-07 1.183227294e-07 4.274924969e-08 1.202832395e-08)
5(1.16777497e-07 3.05979809e-08 9.179057933e-09 2.990432974e-09 8.715284999e-10)
5(2.183800972e-09 5.239469139e-10 2.530518161e-10 8.387764104e-11 3.236206887e-11)
5(-1.272728435e-10 -8.535235896e-09 6.32213312e-09 -4.435291728e-09 -1.120866889e-13)
5(-2.004830734e-12 1.684229629e-08 5.9127484e-08 -1.654225469e-08 -5.02758484e-15)
)


60
(
5(0.01186935593 0.006674615307 0.008221890853 0.00535743675 0.005681983403)
5(0.008964941883 0.006535136417 0.005546232353 0.004295797676 0.00356967783)
5(0.00809001944 0.006535556908 0.004864846808 0.003990563196 0.003057578485)
5(0.008125625156 0.006669258159 0.004985266553 0.004039957273 0.003128256381)
5(0.008601080825 0.006901729482 0.005411095072 0.004245559109 0.003462296063)
5(0.009209842767 0.007137419866 0.005778301272 0.004417583234 0.003747778505)
5(0.009525242089 0.007314877124 0.005890198764 0.004535124966 0.003826016214)
5(0.009633865342 0.007448754991 0.005928494489 0.004593308463 0.003803294945)
5(0.009742133521 0.007555547746 0.00594336213 0.004619181059 0.003802581599)
5(0.009952265554 0.00768349205 0.006029050936 0.004686833269 0.003831396106)
5(0.01009695103 0.007841857412 0.006144211777 0.004770053847 0.003901516127)
5(0.01037271634 0.007978973614 0.006279439122 0.004850529925 0.003967176339)
5(0.01059068469 0.008121894453 0.00639007497 0.004909408538 0.004002430307)
5(0.01074274046 0.008246720586 0.006472721717 0.004968817866 0.004051153414)
5(0.01086868424 0.008361747296 0.006535341807 0.005017446801 0.004055873156)
5(0.01105577475 0.00847250266 0.006604123317 0.005059995351 0.004077810155)
5(0.01123031373 0.008570545387 0.006675834386 0.005089936659 0.004083059802)
5(0.01132533907 0.008665969002 0.006738438836 0.005112018825 0.004079700019)
5(0.01149316258 0.008720116678 0.006772830452 0.005122029281 0.004080360121)
5(0.01156569528 0.008772748762 0.006792701439 0.00512023422 0.004055378623)
5(0.0116505799 0.008805538722 0.006778469007 0.005085000976 0.004007717277)
5(0.01171811501 0.008784707566 0.006744129445 0.005043808624 0.003963752478)
5(0.01172347892 0.008742340317 0.006688523793 0.004961776953 0.003895355804)
5(0.01164550354 0.008673527698 0.006612398638 0.004853010812 0.003807826083)
5(0.01154458381 0.008555840839 0.006470907268 0.004738216074 0.003678100418)
5(0.01141820346 0.008378854328 0.006314505206 0.004602069863 0.003562592841)
5(0.01120504724 0.00815373136 0.006115067901 0.004439666459 0.003434551092)
5(0.01094939101 0.007891874882 0.005878828422 0.004252904761 0.003271127797)
5(0.01058619086 0.007573633093 0.005609059306 0.0040480888 0.00314174639)
5(0.01016358947 0.007205488519 0.005304156407 0.003824661638 0.002965263498)
5(0.009678891935 0.006790363907 0.004979019425 0.003597649062 0.002829131653)
5(0.009115337662 0.006338258805 0.004638947961 0.003375067649 0.00268137744)
5(0.008479438183 0.005857954159 0.004282805355 0.003156813797 0.002566208947)
5(0.007817098258 0.005354447176 0.003926814257 0.002958431975 0.00246755249)
5(0.007082890239 0.004852380504 0.003592202769 0.002785192565 0.00241448565)
5(0.006362465444 0.00435576934 0.003290099678 0.002646317661 0.002385943524)
5(0.005637496864 0.003898037443 0.003031994577 0.002549421412 0.002404174353)
5(0.004936771014 0.003492253301 0.002824443932 0.002505631813 0.002462846032)
5(0.004312902352 0.00314868961 0.002680821072 0.002511460006 0.002540259664)
5(0.003755223145 0.00289787918 0.002604391713 0.002556752731 0.002625447373)
5(0.003300007264 0.002727318416 0.002589413775 0.002623782356 0.00268112472)
5(0.002994629598 0.002651629033 0.002623125299 0.002676026981 0.002693803835)
5(0.002806215025 0.002639923764 0.002665632156 0.002676012876 0.002626968152)
5(0.002731613294 0.002658731141 0.00267348645 0.002589556756 0.002460708705)
5(0.002726366535 0.002663793494 0.0025942501 0.002398694055 0.002180922052)
5(0.002735908331 0.002596570151 0.002393833338 0.002099489058 0.001797178218)
5(0.002686709578 0.002412448123 0.002063728364 0.001711511081 0.001359076283)
5(0.002527660548 0.002090859045 0.001647374299 0.001274703327 0.0009240190461)
5(0.002219574616 0.001657666248 0.001191469117 0.0008536918688 0.0005579175322)
5(0.001779043198 0.001179829078 0.0007616046114 0.0005020032749 0.0002923806498)
5(0.001274246132 0.0007352123088 0.000425244809 0.0002552679212 0.0001306163721)
5(0.000791804218 0.000386621063 0.0001999416079 0.000107585573 4.840753139e-05)
5(0.0003994961042 0.0001671263523 7.538498861e-05 3.71481962e-05 1.490119112e-05)
5(0.0001593780959 5.603651309e-05 2.159623825e-05 1.001075541e-05 3.630722739e-06)
5(4.786496024e-05 1.334105181e-05 4.364616615e-06 1.94952032e-06 6.63581486e-07)
5(8.656410297e-06 2.016459429e-06 6.091520404e-07 2.605594869e-07 9.222201097e-08)
5(6.543724681e-07 1.932915035e-07 4.416741821e-08 2.161591982e-08 6.72492405e-09)
5(4.661045623e-08 7.996942696e-09 1.724460888e-09 1.303877719e-09 2.591165789e-10)
5(-2.827074461e-09 4.65551082e-08 2.41097167e-10 4.548063836e-08 5.470078021e-10)
5(9.027710094e-12 1.937760029e-06 -2.441581813e-08 1.646245635e-08 -1.656797169e-14)
)


60
(
5(0.02022449611 0.01235960997 0.01413442117 0.00983045818 0.009835751208)
5(0.01708686164 0.0127766849 0.01088056591 0.008567782723 0.007128801188)
5(0.01622975195 0.01302546931 0.01009784085 0.008241244726 0.006466252471)
5(0.0163766577 0.01336752869 0.01036172591 0.008400948563 0.006592124361)
5(0.01723220186 0.0138041442 0.01106191751 0.008769284612 0.007125202111)
5(0.01813491849 0.01422496471 0.01164604842 0.00909533363 0.007593012668)
5(0.01870258244 0.01454067436 0.01190651971 0.009308425988 0.007776421803)
5(0.01896483116 0.01482092189 0.01201910644 0.009426912304 0.007778941492)
5(0.01924864544 0.01509088414 0.01212285202 0.00954605681 0.007801589631)
5(0.01961170647 0.01538646207 0.01228885665 0.009684249793 0.007916812139)
5(0.01992532308 0.01564825845 0.0125226621 0.009848161581 0.008045436639)
5(0.02033609934 0.01592500544 0.0127556068 0.009994473732 0.00815913587)
5(0.02073436634 0.01621336201 0.01296215254 0.01013611139 0.008254318848)
5(0.02119543947 0.01645161216 0.01314746153 0.01024861174 0.008307654253)
5(0.02141126804 0.01667458065 0.01331635027 0.01034617071 0.008374768849)
5(0.02161999239 0.0168725198 0.01346915333 0.01042745545 0.008412813179)
5(0.02199137348 0.01705746986 0.01357850809 0.01050409133 0.008425029171)
5(0.02224498859 0.01721060724 0.01365268378 0.0105634419 0.008411108609)
5(0.02245785852 0.01733000177 0.01373467095 0.01055195678 0.008377470274)
5(0.02265892476 0.01741911894 0.01374973189 0.01052513405 0.008331428194)
5(0.0227310123 0.01746466761 0.01371804728 0.01045204352 0.008228421163)
5(0.02280565501 0.01744109894 0.01363381502 0.0103328655 0.008120001646)
5(0.02281351715 0.01735941952 0.01351848608 0.01018623373 0.00794568585)
5(0.0227558533 0.01719308206 0.01332348101 0.009975196937 0.007740627711)
5(0.022496349 0.01694128309 0.01304914217 0.009705888032 0.007486018692)
5(0.0222389958 0.01661960003 0.0127032986 0.009394585441 0.007202252779)
5(0.02177042772 0.01613804419 0.01228144318 0.00902432376 0.006870788588)
5(0.02120326239 0.01561317569 0.0117964223 0.008614116414 0.006504290308)
5(0.02055107168 0.0149821544 0.01121871177 0.008134847615 0.006133873957)
5(0.01977263525 0.01423815769 0.01058810152 0.007630097836 0.005736394041)
5(0.01880943815 0.0134072867 0.009902635632 0.007089895482 0.005331146055)
5(0.01768024898 0.01249111888 0.009161103413 0.006535047705 0.004943919725)
5(0.01647275431 0.01149676553 0.008385775834 0.005977709832 0.00452562769)
5(0.01516341645 0.0104966411 0.007589188757 0.005435732947 0.004160280835)
5(0.01380729018 0.009438740737 0.006802287024 0.004920534818 0.003836513111)
5(0.01233352966 0.00837627337 0.006054043594 0.004450460714 0.003569123983)
5(0.01088167984 0.007367601868 0.005358734397 0.004044742966 0.003362783059)
5(0.009460273021 0.006415356395 0.004742456342 0.00371081156 0.003233146039)
5(0.008097302657 0.005540875405 0.004221925707 0.003462126382 0.003155872955)
5(0.006860374236 0.004803293695 0.003813861518 0.00329911348 0.003128628971)
5(0.00578317989 0.004215303871 0.003527058788 0.003208633543 0.003121399868)
5(0.004918642563 0.003792262232 0.003345725472 0.003163525478 0.003121515423)
5(0.004263388472 0.003519052517 0.003250432141 0.00311823018 0.003066374459)
5(0.003852426425 0.003359701687 0.003189502605 0.003033853658 0.0029399247)
5(0.003613936576 0.003274194591 0.003094767312 0.00286974107 0.002704212738)
5(0.003512231084 0.003204473256 0.002928692182 0.002603628858 0.002354281892)
5(0.003471505774 0.003063489626 0.002638555326 0.002237616815 0.001906709384)
5(0.003385614851 0.00280595548 0.002223163025 0.001785355219 0.001418097464)
5(0.003175244585 0.00239872458 0.001729042237 0.001297804784 0.0009513522956)
5(0.002805240018 0.0018754705 0.001210699106 0.0008501741327 0.0005634740025)
5(0.002272041364 0.001308147282 0.0007467914458 0.0004841982436 0.0002893874539)
5(0.001657668582 0.0007899796437 0.0003935517148 0.0002364020081 0.0001272889852)
5(0.001057288688 0.0004075964986 0.0001705121426 9.314077304e-05 4.344796276e-05)
5(0.0005612025846 0.0001706711761 5.712405268e-05 2.889999843e-05 1.277275322e-05)
5(0.0002266286933 5.140906784e-05 1.396172893e-05 6.373261322e-06 2.638164475e-06)
5(7.615281855e-05 1.089709895e-05 2.160670785e-06 9.585618201e-07 3.256832114e-07)
5(1.555605765e-05 1.35945209e-06 1.528924015e-07 8.836275136e-08 3.115548863e-08)
5(1.581014159e-06 8.488616074e-08 5.798192481e-09 3.677905309e-09 1.075920836e-09)
5(1.379620937e-07 3.899041546e-07 2.539376108e-10 2.739071026e-08 -8.172419223e-09)
5(1.841210398e-06 8.83569461e-07 -2.902693952e-07 -3.491478076e-09 -1.598328153e-08)
)


60
(
5(0.03021125323 0.01953112821 0.02135136729 0.01562338596 0.01506237477)
5(0.02728148477 0.02075630807 0.01778260776 0.01426788634 0.01193480484)
5(0.02637241967 0.02135193633 0.01702301368 0.01399583145 0.01118233805)
5(0.02677397547 0.02190751561 0.01749926837 0.01430958869 0.01148725925)
5(0.02800081604 0.02256276646 0.01844817233 0.01487200944 0.01222158719)
5(0.02927812629 0.02321636122 0.01926361395 0.01539249636 0.0128727191)
5(0.03002380594 0.02376367172 0.01971919487 0.01572129108 0.01317911836)
5(0.03056220887 0.02420787401 0.01994680926 0.01594063361 0.01324898381)
5(0.03094884972 0.0246350447 0.02017505587 0.01616384189 0.01334292315)
5(0.03148729904 0.02508594409 0.02046014921 0.01641804101 0.01350522058)
5(0.03211215927 0.02554945378 0.02082438449 0.01667054138 0.01372494886)
5(0.03264576842 0.02598868093 0.02117160244 0.0169053188 0.01389805568)
5(0.03322187605 0.02640662952 0.02149597958 0.01713118957 0.01408198561)
5(0.03371130137 0.02678806149 0.02177219861 0.01732459122 0.01413271471)
5(0.03432166044 0.027127824 0.02203289316 0.01747622226 0.01426779747)
5(0.03474911698 0.02746160888 0.02227516971 0.01759967709 0.01429407801)
5(0.03511221223 0.02773757978 0.02246877258 0.01771629602 0.01435907451)
5(0.03562440596 0.02798674875 0.02260789708 0.01775675986 0.01434309632)
5(0.03581473615 0.02818544025 0.02269434828 0.01777358483 0.01427700369)
5(0.03616460028 0.02830224879 0.0227103348 0.01772271247 0.01420731168)
5(0.0363413521 0.02833318293 0.02267869075 0.01762731309 0.01403146717)
5(0.03629998968 0.02830817548 0.02253681885 0.01744583521 0.01380799748)
5(0.03633779425 0.02815766464 0.02232297026 0.01719549129 0.01352044489)
5(0.03625730175 0.02788906977 0.02197773176 0.01685439957 0.01316801696)
5(0.03588790352 0.02748065193 0.02156396522 0.01642838852 0.0127852569)
5(0.03543394923 0.02694924631 0.02104131303 0.01590798304 0.01229135956)
5(0.03485364459 0.02627207956 0.02039111587 0.01530038382 0.01172742255)
5(0.03395994137 0.0254509757 0.01958691009 0.01461340718 0.01115521847)
5(0.03281831114 0.02445182169 0.01866650796 0.01382627769 0.01043847835)
5(0.03160068725 0.0232720654 0.01765694528 0.01296928866 0.009751112134)
5(0.03010722315 0.02198756589 0.01653676296 0.01205140595 0.009009369458)
5(0.02845008949 0.02057139196 0.01528997079 0.01108441847 0.008262932843)
5(0.02658423968 0.01898729757 0.01402778889 0.01009493593 0.007489861425)
5(0.02447754024 0.01734360807 0.01270552976 0.009097996885 0.00678740728)
5(0.02236856167 0.01562862144 0.0113781396 0.008128561504 0.006062972389)
5(0.02004338212 0.01391434226 0.01006283967 0.007216623928 0.005445516547)
5(0.01778746185 0.01221600326 0.008792278653 0.006373414457 0.004903715444)
5(0.01546191405 0.01055469234 0.007637009862 0.005621338992 0.004456408788)
5(0.01324551929 0.009010475426 0.006591875521 0.004989212931 0.00411654273)
5(0.01116022887 0.007642381826 0.005695699598 0.004490846195 0.003861919888)
5(0.00929702549 0.006469407688 0.004986456195 0.004119008819 0.003708993301)
5(0.007657946725 0.005532224287 0.004456643511 0.003867246389 0.003598582487)
5(0.006391799384 0.004833541037 0.004105115077 0.003693334884 0.003511644969)
5(0.0054208716 0.004349967164 0.003873637497 0.003548576336 0.003385933865)
5(0.004787007657 0.00407038285 0.003710417942 0.003381286907 0.003189687183)
5(0.004430530099 0.00392030369 0.003544067464 0.003142885272 0.002884657856)
5(0.004267636207 0.0038021887 0.003304904525 0.00280115732 0.002457168252)
5(0.004182927086 0.003623990792 0.002931692378 0.002360277065 0.001954267093)
5(0.004082869191 0.00331447399 0.002439404098 0.001839328432 0.001415517203)
5(0.003865970873 0.002838631787 0.001867759136 0.00129956577 0.0009193025536)
5(0.003453928572 0.002224756325 0.001276362097 0.0008150073614 0.000525676221)
5(0.002860884515 0.001581936619 0.0007578224213 0.0004424010602 0.0002585892267)
5(0.002142661613 0.0009555760339 0.0003834432031 0.0001965594246 0.0001034945388)
5(0.001450466281 0.0004919149843 0.0001520375332 7.19372453e-05 3.394070299e-05)
5(0.0008019937367 0.0002056806861 4.508243679e-05 1.886371718e-05 7.816477956e-06)
5(0.0004040408634 6.330244047e-05 7.680074022e-06 3.228278981e-06 1.222785051e-06)
5(0.0001451724194 1.639620353e-05 1.198431489e-06 3.097712866e-07 9.569182164e-08)
5(4.284811501e-05 1.813267652e-06 6.719787564e-08 1.310544478e-08 4.391326694e-09)
5(9.81071177e-06 1.114541316e-07 8.601465677e-08 -4.600260496e-08 -5.411791015e-09)
5(1.071096586e-05 -1.469102823e-06 1.373170693e-06 -1.620382961e-07 1.489557447e-08)
)


60
(
5(0.04168767735 0.02809171532 0.02984024907 0.02272684514 0.02146523057)
5(0.03922503692 0.03046660545 0.02617589746 0.02138154439 0.01804949108)
5(0.03836135492 0.03144757782 0.02555585296 0.02125324132 0.01729870318)
5(0.0390830497 0.03220103055 0.02629696846 0.02175746569 0.01774408035)
5(0.04072680464 0.03310220246 0.02754168079 0.02254088912 0.0187833173)
5(0.04240122305 0.03405784688 0.02860801625 0.0232450296 0.0196742541)
5(0.0433353764 0.03481585426 0.02925948684 0.02373236136 0.02001966766)
5(0.04412286681 0.03547942005 0.0296247449 0.02409025246 0.02026195751)
5(0.04466228724 0.03612029527 0.02999034508 0.02442805392 0.02038841552)
5(0.04554314643 0.03672059647 0.03041906265 0.02479651926 0.02066726813)
5(0.04633086287 0.03739519731 0.03094799101 0.02517814219 0.0209567135)
5(0.04721668973 0.03798371259 0.03144041483 0.02554106902 0.02124630965)
5(0.04795085064 0.0385632892 0.03192239911 0.02585529531 0.0214585756)
5(0.04854067483 0.03910624562 0.03229893496 0.02612935669 0.02163596859)
5(0.04933809901 0.03962551724 0.03266645549 0.02636016417 0.02174708497)
5(0.0500141181 0.04009681972 0.03295523997 0.02654993278 0.02181546824)
5(0.05063213754 0.04051230186 0.03326143921 0.0266890029 0.02187668919)
5(0.05102825842 0.04085681771 0.03348979772 0.02673158206 0.02187388825)
5(0.05162043906 0.04111551247 0.03359530362 0.02678827294 0.02181102446)
5(0.05188519679 0.04127153052 0.03364199572 0.0267343824 0.02166138092)
5(0.05218826547 0.04130645921 0.03357727723 0.02659768912 0.02143924394)
5(0.05233651794 0.04129179048 0.03340859224 0.02635577763 0.02115081344)
5(0.052098826 0.04107189261 0.03309097467 0.02597973099 0.02072930828)
5(0.05196217249 0.04068188198 0.03265214948 0.02549730228 0.02026451796)
5(0.05163439067 0.04013073657 0.03207535547 0.02488325434 0.01970450606)
5(0.05079018375 0.03937340587 0.03130726692 0.02413736395 0.01893361247)
5(0.05004125485 0.03846213881 0.03036676802 0.02327898411 0.01818074383)
5(0.04873606749 0.03730389423 0.02924155996 0.02229488937 0.01731212604)
5(0.04738280098 0.03588607097 0.02799044026 0.02118237377 0.01627381837)
5(0.04560990725 0.03430351435 0.02656543658 0.01993152165 0.01526561183)
5(0.04379532094 0.0325536781 0.0249632204 0.01860880226 0.01408516231)
5(0.04125903181 0.03054592969 0.02319788188 0.01718607966 0.01291683828)
5(0.03871261019 0.02839017933 0.02134749246 0.01570882619 0.01172199502)
5(0.03597161595 0.02605591184 0.01943632593 0.01418788154 0.0105772576)
5(0.0328633631 0.02362426966 0.01745244589 0.01267005974 0.009381870915)
5(0.0296770428 0.02116574201 0.01549368698 0.01119049171 0.008277884979)
5(0.02647339661 0.01861492127 0.01355638916 0.009784950523 0.007297103509)
5(0.02316993295 0.0161644002 0.01171388349 0.008499493402 0.00642507943)
5(0.01994319251 0.01383475415 0.01000446497 0.007366373942 0.005687802085)
5(0.01691423998 0.01165846323 0.008484366729 0.006397758069 0.005084890047)
5(0.0140133233 0.009742539293 0.007203498913 0.005602703873 0.004643757777)
5(0.01150863721 0.00810705485 0.006174119023 0.005005736684 0.004332322821)
5(0.009433342815 0.006795224052 0.005397909945 0.004572159764 0.00410966108)
5(0.007698478705 0.005833826795 0.004867143691 0.004260300908 0.003925610305)
5(0.006449798349 0.00519010071 0.004536040098 0.0040205377 0.003726653306)
5(0.005621948641 0.004815720344 0.00430062832 0.003775303076 0.003443931429)
5(0.00514239765 0.004619173508 0.004079113511 0.003465489476 0.003057691407)
5(0.004915124579 0.004475072848 0.003786369176 0.003057519364 0.002561894116)
5(0.004818862407 0.004279765965 0.003366034082 0.002540476441 0.001993291172)
5(0.004723469388 0.003926016166 0.002804944497 0.001944714201 0.001405286073)
5(0.00450334831 0.003395622807 0.002143058838 0.001345951878 0.0008822805618)
5(0.004113170659 0.002712642194 0.001460000276 0.0008218155783 0.0004745024409)
5(0.003534132164 0.001947863223 0.0008724328463 0.00042331082 0.0002221398251)
5(0.002779798009 0.001243232001 0.0004223691316 0.0001795508853 7.82698781e-05)
5(0.001992897032 0.0006964410644 0.0001660433051 5.736867553e-05 2.18572128e-05)
5(0.001200443054 0.0003094799136 5.34904895e-05 1.291016813e-05 4.191413961e-06)
5(0.0006753906431 0.000113042711 9.904039592e-06 1.77325498e-06 3.816202719e-07)
5(0.0003321666007 2.81318967e-05 1.486026308e-06 1.427995394e-07 1.668822764e-08)
5(0.0001505666587 8.477884243e-06 4.30938057e-07 -1.827466086e-08 1.139541359e-09)
5(0.0001580000523 1.854553923e-05 1.812992925e-07 -4.246116546e-07 1.508562006e-08)
)


60
(
5(0.0547277235 0.03824690294 0.03970015588 0.03107914856 0.02912215029)
5(0.05311570262 0.04190816308 0.03604235129 0.02989855459 0.0254111576)
5(0.05240962175 0.04319571907 0.03566160599 0.02998964145 0.02480589178)
5(0.05317619674 0.04421809516 0.036704467 0.0307351863 0.02545593335)
5(0.0551818739 0.04547229356 0.03829189213 0.03175520625 0.02677247022)
5(0.05735335763 0.04664628154 0.03967023575 0.03268894873 0.02790721257)
5(0.05872054459 0.04764310686 0.04046006991 0.03332729882 0.02840418449)
5(0.05956225667 0.04856280048 0.04101943319 0.03383562632 0.02870070579)
5(0.06055430359 0.04940979701 0.04149289312 0.03428831151 0.0289532383)
5(0.06146778971 0.05029047544 0.0421485498 0.03479892704 0.02929920511)
5(0.06264961974 0.05110738386 0.04279159476 0.03529491609 0.02973960554)
5(0.06363652714 0.0519303797 0.04349104245 0.03579263793 0.03004775119)
5(0.06474807537 0.05268924609 0.04407158497 0.03621425846 0.03041330963)
5(0.06557771641 0.05340357189 0.04462351429 0.03660289815 0.0306065391)
5(0.06658588822 0.05406900819 0.04508957198 0.03691245714 0.03083432285)
5(0.06720024534 0.05468636148 0.04552864707 0.03718109495 0.03094041709)