/*--------------------------------*- C++ -*----------------------------------*\
| =========                 |                                                 |
| \\      /  F ield         | OpenFOAM: The Open Source CFD Toolbox           |
|  \\    /   O peration     | Version:  2.3.1                                 |
|   \\  /    A nd           | Web:      www.OpenFOAM.org                      |
|    \\/     M anipulation  |                                                 |
\*---------------------------------------------------------------------------*/
FoamFile
{
    version     2.0;
    format      ascii;
    class       dictionary;
    location    "constant";
    object      PM43;
}
// * * * * * * * * * * * * * * * * * * * * * * * * * * * * * * * * * * * * * //

PM43_table
60
(

60
(
5(-1.279477628e-06 -3.732613233e-06 -9.751573306e-07 -2.243684088e-06 -8.35585404e-07)
5(0.0001145002058 -4.586084631e-06 -3.363090649e-06 -2.686565293e-06 6.167258696e-07)
5(0.0001015483364 -1.591894569e-05 -3.375956358e-06 -2.397786385e-06 -2.491730432e-06)
5(9.976137924e-05 -3.519666368e-05 -3.166419651e-06 -3.020694711e-06 -1.438096624e-06)
5(8.562329267e-05 -5.712857773e-05 -3.719220027e-06 -3.025872436e-06 -2.47856088e-06)
5(-9.080514177e-06 -6.971135009e-05 -4.654143501e-06 -3.418167435e-06 -3.150919072e-06)
5(-0.000103972652 -6.286654839e-06 -5.353690319e-06 -4.115361363e-06 -3.687935959e-06)
5(0.0001115401049 -7.095321811e-06 -5.7400632e-06 -4.611176777e-06 -4.215076892e-06)
5(0.0001855477526 -7.383840288e-05 -6.2985455e-06 -5.385916364e-06 -5.249230227e-06)
5(0.0001035192729 -0.000108876869 -7.54791145e-06 -6.254973907e-06 -6.038852611e-06)
5(-7.161545109e-05 -0.0001234939535 -9.249247474e-06 -7.302026853e-06 -7.065311901e-06)
5(-0.000183425944 -5.303864571e-05 -1.04482291e-05 -8.4244212e-06 -8.177483933e-06)
5(-7.353746047e-05 -1.369224284e-05 -1.210726653e-05 -9.692133668e-06 -9.771623128e-06)
5(-1.550061117e-05 -1.571967094e-05 -1.388789362e-05 -1.127713843e-05 -1.130224808e-05)
5(-1.210895665e-05 -1.62562495e-05 -1.551727598e-05 -1.282647369e-05 -1.31836492e-05)
5(-1.29202915e-05 -2.086533833e-05 -1.793070991e-05 -1.498358818e-05 -1.556075341e-05)
5(-2.469325433e-05 -2.579304858e-05 -2.153281995e-05 -1.782686365e-05 -1.811558438e-05)
5(-3.034358429e-05 -2.798090528e-05 -2.543182037e-05 -2.018309395e-05 -2.063026804e-05)
5(-3.166110549e-05 -3.083416991e-05 -2.797924912e-05 -2.311605827e-05 -2.37493244e-05)
5(-3.409833598e-05 -3.462848747e-05 -3.17880832e-05 -2.676544658e-05 -2.869317092e-05)
5(-3.862231733e-05 -3.917551844e-05 -3.640334272e-05 -3.177098573e-05 -3.46920167e-05)
5(-4.378575327e-05 -4.453691636e-05 -4.186983999e-05 -3.800929527e-05 -4.123931784e-05)
5(-4.931272195e-05 -5.041764494e-05 -4.94346045e-05 -4.502041618e-05 -5.039396336e-05)
5(-5.512805704e-05 -5.506114619e-05 -5.820933819e-05 -5.435221824e-05 -6.225431751e-05)
5(-6.033399278e-05 -5.719197937e-05 -6.949743433e-05 -6.623606573e-05 -7.908719916e-05)
5(-6.510257393e-05 -6.689130304e-05 -8.598522986e-05 -8.284486504e-05 -0.000103513097)
5(-7.656829862e-05 -9.30022496e-05 -0.0001052052006 -0.0001066595011 -0.0001388765041)
5(-9.379688197e-05 -0.0001168378584 -0.0001295294885 -0.0001429334962 -0.0001899328405)
5(-0.0001094355642 -0.0001371690634 -0.0001720142245 -0.000199438214 -0.0002666305069)
5(-0.0001296307305 -0.0001732262194 -0.0002323937057 -0.0002812609721 -0.0003797396209)
5(-0.0001598260553 -0.000230265925 -0.0003252208701 -0.0004070034216 -0.0005599390542)
5(-0.0002098092892 -0.0003203562676 -0.0004682774481 -0.0005996637698 -0.0008023502827)
5(-0.0002812028201 -0.0004446700759 -0.0006620572007 -0.0008666298829 -0.001142333124)
5(-0.0003909295601 -0.000641762745 -0.0009586282348 -0.001261863422 -0.001661522241)
5(-0.0005751677943 -0.0009347507405 -0.00135498301 -0.001776290145 -0.002267560838)
5(-0.0008387930497 -0.001351467792 -0.00196732737 -0.002488359476 -0.002956872811)
5(-0.001287358226 -0.002030932972 -0.002891687944 -0.003294724335 -0.003716759314)
5(-0.001858636575 -0.002795235091 -0.003793882264 -0.004154570234 -0.004516832982)
5(-0.00264506442 -0.003822955473 -0.00479270912 -0.005094816149 -0.004515692596)
5(-0.003661270032 -0.00502031402 -0.005934342899 -0.005357323353 -0.002373098403)
5(-0.005005172277 -0.006401591024 -0.007055061329 -0.00525218943 -0.003755559822)
5(-0.006349299649 -0.007511973381 -0.007440483599 -0.003984286688 -0.003590817299)
5(-0.007579873624 -0.008254021744 -0.006914946975 -0.003837915982 -0.003188942616)
5(-0.008333316779 -0.008075378706 -0.005992706805 -0.003604137915 -0.002283205361)
5(-0.00857952762 -0.007514564568 -0.004952664745 -0.002557200094 -0.001449212128)
5(-0.008025484728 -0.006142504517 -0.002890777166 -0.001617688229 -0.0007842456324)
5(-0.006580369874 -0.004194809106 -0.001550954645 -0.0009833428785 -0.0003606198281)
5(-0.004846189194 -0.002679311664 -0.001107883628 -0.000474278847 -0.0001377248371)
5(-0.003231374891 -0.001152942604 -0.0005587162401 -0.0001859001999 -4.408965426e-05)
5(-0.001227717851 -0.0004703050654 -0.0002476311343 -5.911785155e-05 -1.214111668e-05)
5(-0.0004631379763 -0.0002356697608 -7.864193496e-05 -1.589691019e-05 -2.85958793e-06)
5(-0.0002211664005 -7.853971951e-05 -2.012421649e-05 -3.528698201e-06 -5.827515945e-07)
5(-7.576974287e-05 -1.856010845e-05 -4.203625805e-06 -6.404141202e-07 -9.706574729e-08)
5(-1.534894462e-05 -3.102622057e-06 -6.528404313e-07 -8.818507421e-08 -1.29414399e-08)
5(-2.109390717e-06 -3.990382971e-07 -7.548329181e-08 -7.513655989e-09 -1.007717301e-09)
5(-1.607123377e-07 -2.740948669e-08 -5.427496356e-09 -5.685188993e-11 1.463868008e-12)
5(-5.895621294e-09 -1.021908653e-09 -7.602633569e-11 6.523681868e-11 7.671281477e-12)
5(6.907488707e-11 3.09786464e-11 8.959520263e-12 1.217660088e-11 4.753224526e-13)
5(2.426267796e-12 -1.885295693e-11 2.906400954e-11 -2.551101979e-12 4.767252663e-15)
5(1.016618212e-16 3.140016085e-16 1.334947418e-07 1.600453335e-15 3.054740683e-15)
)


60
(
5(-4.037605762e-06 -3.258934624e-06 -3.370574805e-06 -2.440077102e-06 -2.12879422e-06)
5(-5.279353347e-06 -4.966459421e-06 -4.26843576e-06 -2.784051915e-06 -2.729813597e-06)
5(1.644628056e-05 -4.579277393e-06 -4.018416482e-06 -2.868047236e-06 -2.952943629e-06)
5(5.453606137e-05 -4.645335311e-06 -3.784111211e-06 -3.119269961e-06 -2.114534139e-06)
5(7.538363671e-05 -5.287867195e-06 -4.299241683e-06 -3.198079687e-06 -2.783037266e-06)
5(6.6806108e-05 -6.172669724e-06 -5.478339899e-06 -3.720745398e-06 -3.412622316e-06)
5(-7.827536736e-06 -7.142204051e-06 -6.242775158e-06 -4.452690202e-06 -3.769720538e-06)
5(-9.31028831e-06 -8.133413155e-06 -6.933144224e-06 -5.022000575e-06 -4.656643758e-06)
5(6.925079464e-05 -9.274842377e-06 -7.918841732e-06 -5.760828248e-06 -5.307317153e-06)
5(0.0001118095977 -1.028943042e-05 -8.910725778e-06 -6.737381889e-06 -6.145140404e-06)
5(0.000119212213 -1.17807732e-05 -1.041927709e-05 -7.849123355e-06 -7.281348816e-06)
5(2.999418398e-05 -1.429250294e-05 -1.239771546e-05 -9.215538504e-06 -8.614795381e-06)
5(-1.862788678e-05 -1.647394706e-05 -1.44683132e-05 -1.069270281e-05 -1.008105214e-05)
5(-2.129730329e-05 -1.891042639e-05 -1.671879914e-05 -1.257351135e-05 -1.180985488e-05)
5(-2.479595623e-05 -2.19118954e-05 -1.941950455e-05 -1.445726545e-05 -1.372443044e-05)
5(-2.43244675e-05 -2.417493962e-05 -2.202375276e-05 -1.653377682e-05 -1.576659718e-05)
5(-2.865037081e-05 -2.791903274e-05 -2.503088924e-05 -1.891955554e-05 -1.806329358e-05)
5(-3.556735127e-05 -3.197733057e-05 -2.877977118e-05 -2.146458641e-05 -2.066409718e-05)
5(-4.202946351e-05 -3.637596455e-05 -3.247357096e-05 -2.429601568e-05 -2.335373293e-05)
5(-4.714661192e-05 -4.067390699e-05 -3.621879113e-05 -2.701022118e-05 -2.627819019e-05)
5(-5.288934016e-05 -4.53059874e-05 -4.026583802e-05 -3.002415731e-05 -2.930014146e-05)
5(-5.863630002e-05 -4.972244841e-05 -4.387127886e-05 -3.341294614e-05 -3.260237733e-05)
5(-6.414837142e-05 -5.349104226e-05 -4.727347155e-05 -3.530834303e-05 -3.495790359e-05)
5(-6.925590063e-05 -5.609131094e-05 -4.964001626e-05 -3.681729714e-05 -3.680068652e-05)
5(-7.310697907e-05 -5.634252133e-05 -5.040947442e-05 -3.663094767e-05 -3.679948839e-05)
5(-7.522487126e-05 -5.286522856e-05 -4.807507054e-05 -3.372659867e-05 -3.479658e-05)
5(-7.446966008e-05 -4.901056697e-05 -4.217606089e-05 -2.743811961e-05 -3.057380882e-05)
5(-6.921331857e-05 -4.181382391e-05 -2.993203327e-05 -1.708243203e-05 -2.336918214e-05)
5(-5.624835796e-05 -2.357050139e-05 -1.132215268e-05 -2.271692966e-06 -1.364956523e-05)
5(-3.453342048e-05 4.401976934e-06 1.531823653e-05 1.578652319e-05 -6.758768478e-06)
5(-1.208923949e-06 4.231206306e-05 4.880147981e-05 3.336545355e-05 -8.304819389e-06)
5(4.35687128e-05 8.609033326e-05 8.106582796e-05 3.836443048e-05 -3.184500618e-05)
5(9.855636442e-05 0.0001342656089 0.0001056151 1.958990499e-05 -0.0001000033855)
5(0.0001602996467 0.0001762276073 0.0001042798455 -5.568289641e-05 -0.000261305822)
5(0.0002167776465 0.0001831728027 3.68923119e-05 -0.00022367798 -0.0005437524276)
5(0.0002418501899 0.0001379299056 -0.0001150886915 -0.0005302861542 -0.001001180105)
5(0.0001984630244 -4.07212331e-05 -0.0004848668573 -0.001058967609 -0.001671981825)
5(4.639555269e-05 -0.0003560220487 -0.001049215963 -0.001799207693 -0.002674694117)
5(-0.0002823598823 -0.0009159834294 -0.001857900862 -0.002828892508 -0.003724780991)
5(-0.000824663529 -0.00173012157 -0.002915688792 -0.00402831679 -0.005388463357)
5(-0.001685301987 -0.002877336803 -0.004336059306 -0.005371230002 -0.006663877289)
5(-0.002864467938 -0.004207962935 -0.005777561543 -0.006821264397 -0.007514950085)
5(-0.004254903637 -0.005685889686 -0.007114777129 -0.008196222104 -0.007597766391)
5(-0.005702485244 -0.006803329654 -0.007507504158 -0.008280191024 -0.006800745397)
5(-0.006937077659 -0.007545416681 -0.007751675507 -0.007411593074 -0.005431115986)
5(-0.007748394511 -0.007489581832 -0.007259532926 -0.005864071943 -0.003741898016)
5(-0.007743945901 -0.006852753011 -0.006417321405 -0.004004421827 -0.002203085788)
5(-0.006834956427 -0.005742830767 -0.004580001465 -0.00233363638 -0.001086809329)
5(-0.005380811258 -0.003933292431 -0.002699427474 -0.001139359788 -0.0004425075033)
5(-0.003622291043 -0.002599348707 -0.001311017799 -0.0004543259731 -0.0001469575496)
5(-0.002076828571 -0.001244408994 -0.000513703497 -0.0001464351816 -4.083323605e-05)
5(-0.001039279411 -0.0004631570785 -0.0001561639021 -3.787658916e-05 -9.62565193e-06)
5(-0.0003725200922 -0.0001324401544 -3.689113876e-05 -7.957092053e-06 -1.901248124e-06)
5(-9.435377741e-05 -2.681230313e-05 -6.43610774e-06 -1.275155671e-06 -3.029854738e-07)
5(-1.545519823e-05 -3.652702353e-06 -8.318664105e-07 -1.604522886e-07 -3.890172796e-08)
5(-1.448777333e-06 -3.226168873e-07 -6.972251111e-08 -1.404706405e-08 -3.321562387e-09)
5(-6.251530372e-08 -1.429212982e-08 -3.88504702e-09 -6.665497763e-10 -1.80314019e-10)
5(-1.1363327e-09 -4.084156758e-10 -8.643805172e-11 -7.759988341e-11 -7.446449881e-12)
5(-6.354395962e-11 -7.974607958e-08 9.795216556e-09 -7.858864817e-09 3.637718085e-12)
5(-1.266018162e-12 4.608609873e-08 1.476086537e-07 -3.755337171e-08 -7.248912961e-16)
)


60
(
5(-4.112643629e-06 -2.27961351e-06 -3.607382644e-06 -2.429717135e-06 -2.27940169e-06)
5(-5.88147201e-06 -3.31109394e-06 -4.450541565e-06 -2.590001409e-06 -2.703921053e-06)
5(-6.2345172e-06 -3.705533269e-06 -4.407471886e-06 -2.546479279e-06 -2.518817791e-06)
5(-6.499365539e-06 -3.977439217e-06 -4.553081011e-06 -2.635399018e-06 -2.53149031e-06)
5(-7.053237547e-06 -4.33538391e-06 -4.932086275e-06 -2.884649789e-06 -2.733426725e-06)
5(-7.888105141e-06 -4.852993291e-06 -5.524225721e-06 -3.322051649e-06 -3.135012764e-06)
5(-8.905065367e-06 -5.476635938e-06 -6.373102113e-06 -3.848122737e-06 -3.679271546e-06)
5(-1.016157644e-05 -6.270316818e-06 -7.352807385e-06 -4.453441844e-06 -4.334726165e-06)
5(-1.156837155e-05 -7.213927626e-06 -8.510130009e-06 -5.213256514e-06 -5.16658424e-06)
5(-1.317808525e-05 -8.295428709e-06 -9.883475385e-06 -6.13343506e-06 -6.183128886e-06)
5(-1.512325134e-05 -9.545684972e-06 -1.151711661e-05 -7.216536478e-06 -7.312243746e-06)
5(-1.740560614e-05 -1.111754509e-05 -1.338618546e-05 -8.493330737e-06 -8.622975434e-06)
5(-1.999616141e-05 -1.281654637e-05 -1.553980183e-05 -9.961695549e-06 -1.017017049e-05)
5(-2.27759805e-05 -1.472452402e-05 -1.794913002e-05 -1.15596391e-05 -1.186425913e-05)
5(-2.588339253e-05 -1.686181065e-05 -2.0642233e-05 -1.334749259e-05 -1.366750523e-05)
5(-2.954352822e-05 -1.919444381e-05 -2.358165931e-05 -1.533773465e-05 -1.57216767e-05)
5(-3.345567315e-05 -2.170829648e-05 -2.67959254e-05 -1.744860403e-05 -1.783981195e-05)
5(-3.739952893e-05 -2.442769702e-05 -3.024866553e-05 -1.963616789e-05 -2.003368143e-05)
5(-4.19012039e-05 -2.736320622e-05 -3.376381376e-05 -2.189108577e-05 -2.244985544e-05)
5(-4.62374442e-05 -3.025352726e-05 -3.734885856e-05 -2.408012658e-05 -2.476298681e-05)
5(-5.115460772e-05 -3.317218826e-05 -4.076926681e-05 -2.608854813e-05 -2.672130416e-05)
5(-5.618515413e-05 -3.554025316e-05 -4.390092137e-05 -2.748176397e-05 -2.829434431e-05)
5(-6.059028867e-05 -3.744866872e-05 -4.645254099e-05 -2.80052653e-05 -2.872439607e-05)
5(-6.377428387e-05 -3.820450779e-05 -4.732095405e-05 -2.68178619e-05 -2.734292224e-05)
5(-6.653761642e-05 -3.721992862e-05 -4.584550627e-05 -2.275230869e-05 -2.250089282e-05)
5(-6.671143222e-05 -3.297474094e-05 -4.022749593e-05 -1.440662657e-05 -1.293547893e-05)
5(-6.339683595e-05 -2.448414752e-05 -2.95443034e-05 2.572050944e-07 3.445788865e-06)
5(-5.607377141e-05 -9.130430885e-06 -1.003086987e-05 2.452850537e-05 3.002257394e-05)
5(-4.047157471e-05 1.633306428e-05 2.163957019e-05 6.143901272e-05 7.103836714e-05)
5(-1.51388089e-05 5.395729185e-05 6.829993042e-05 0.0001150523644 0.0001267182595)
5(2.396821064e-05 0.0001090529927 0.0001348266851 0.0001869512958 0.0001969153504)
5(8.064695504e-05 0.0001846702088 0.0002229684596 0.0002790794407 0.0002844031382)
5(0.0001578207892 0.0002818460028 0.0003329889982 0.000385543184 0.0003771846131)
5(0.0002557052028 0.0004010742776 0.0004605394816 0.0005004381499 0.0004612457658)
5(0.0003767621215 0.0005392227741 0.0005924690975 0.000600565953 0.000501763734)
5(0.0005129333008 0.0006797148564 0.0007071471785 0.0006558824844 0.0004642516962)
5(0.0006478906283 0.0008052294646 0.000769465687 0.0006166523971 0.0002828640193)
5(0.0007711682921 0.0008842146758 0.0007315892365 0.0004276429369 -9.19476893e-05)
5(0.0008437103484 0.0008676083084 0.0005372459547 3.240724756e-05 -0.0007137461228)
5(0.000831746692 0.0007146185338 0.000130465358 -0.000614560832 -0.00160387496)
5(0.000690866683 0.00036570646 -0.0005296775279 -0.00152285904 -0.002739539377)
5(0.0003864596775 -0.0001891971061 -0.001420229437 -0.002640037828 -0.003966761243)
5(-9.609575451e-05 -0.0009552573475 -0.002470807916 -0.003830124813 -0.005016655294)
5(-0.0007218071133 -0.001864220945 -0.003531090476 -0.004852050387 -0.005597202066)
5(-0.001440758381 -0.002750140531 -0.004398384728 -0.005417879122 -0.005518105225)
5(-0.00212679978 -0.003427858462 -0.004845383453 -0.005324320279 -0.004788055574)
5(-0.002592663068 -0.003729034521 -0.004745146929 -0.004556875402 -0.003602849524)
5(-0.002744543889 -0.003583829602 -0.004051405282 -0.003360730269 -0.002324500782)
5(-0.002487818522 -0.002994544062 -0.002961757381 -0.002110812576 -0.001266964194)
5(-0.001962335215 -0.002150847736 -0.001811809131 -0.001105130744 -0.000565749654)
5(-0.001292528903 -0.001292266247 -0.0009115524259 -0.0004719073465 -0.0002073372676)
5(-0.0006917855509 -0.0006171649309 -0.0003646519338 -0.0001595674223 -5.956725134e-05)
5(-0.0002829202923 -0.0002258049232 -0.0001108356515 -4.187174338e-05 -1.405344385e-05)
5(-8.306017787e-05 -5.976985405e-05 -2.453137069e-05 -8.298701946e-06 -2.555077008e-06)
5(-1.626012885e-05 -1.066656433e-05 -3.68484691e-06 -1.189504674e-06 -3.664489037e-07)
5(-1.859018206e-06 -1.148709515e-06 -3.793996802e-07 -1.234849444e-07 -4.06994736e-08)
5(-1.270921455e-07 -7.449050405e-08 -2.172697393e-08 -8.717289502e-09 -2.612069993e-09)
5(-7.889041141e-10 -1.493584875e-08 -7.063838274e-10 -9.886219929e-09 7.918345043e-11)
5(-7.570231511e-08 1.244251951e-07 2.522455205e-08 -1.628376093e-08 2.670177363e-08)
5(5.302559532e-12 1.085780982e-07 3.352936281e-09 -1.248826926e-08 -4.190803402e-15)
)


60
(
5(-4.536208892e-06 -1.911629254e-06 -4.085365834e-06 -2.784965521e-06 -2.729226473e-06)
5(-6.820491792e-06 -3.254614451e-06 -5.01369982e-06 -2.899300131e-06 -3.047497609e-06)
5(-7.464046555e-06 -3.636638523e-06 -5.048636231e-06 -2.788318335e-06 -2.834420925e-06)
5(-7.716950034e-06 -3.716242968e-06 -5.177109479e-06 -2.821226377e-06 -2.828789935e-06)
5(-8.084930571e-06 -3.827114794e-06 -5.489914444e-06 -2.99954078e-06 -3.00010452e-06)
5(-8.780385746e-06 -4.08968059e-06 -5.994177509e-06 -3.318238405e-06 -3.371966385e-06)
5(-9.658018972e-06 -4.403145373e-06 -6.703208708e-06 -3.727339546e-06 -3.944658781e-06)
5(-1.068239828e-05 -4.756673453e-06 -7.614411293e-06 -4.279676e-06 -4.638567614e-06)
5(-1.182308975e-05 -5.175650955e-06 -8.675161815e-06 -4.914515792e-06 -5.490879353e-06)
5(-1.320413298e-05 -5.667804855e-06 -9.954931097e-06 -5.692783575e-06 -6.480904679e-06)
5(-1.477972453e-05 -6.293619361e-06 -1.137612485e-05 -6.58180322e-06 -7.714092986e-06)
5(-1.65240767e-05 -6.994142871e-06 -1.300413126e-05 -7.706188071e-06 -9.11201217e-06)
5(-1.848445566e-05 -7.695153289e-06 -1.489291976e-05 -8.950151504e-06 -1.059869782e-05)
5(-2.058284911e-05 -8.447543041e-06 -1.702761575e-05 -1.02586074e-05 -1.227351959e-05)
5(-2.262676226e-05 -9.333050929e-06 -1.929637241e-05 -1.169506036e-05 -1.417662614e-05)
5(-2.488469749e-05 -1.019670232e-05 -2.162190835e-05 -1.320259593e-05 -1.606542166e-05)
5(-2.749792075e-05 -1.09750146e-05 -2.399274207e-05 -1.467278788e-05 -1.809192448e-05)
5(-2.957424062e-05 -1.162360741e-05 -2.660111137e-05 -1.607400847e-05 -2.008088097e-05)
5(-3.219886761e-05 -1.233734004e-05 -2.894467038e-05 -1.750457796e-05 -2.203548467e-05)
5(-3.42572811e-05 -1.238648023e-05 -3.140176951e-05 -1.877939016e-05 -2.405721653e-05)
5(-3.570862245e-05 -1.242182633e-05 -3.367076853e-05 -1.959305521e-05 -2.508820571e-05)
5(-3.745242167e-05 -1.20941129e-05 -3.512293449e-05 -1.965531696e-05 -2.567008661e-05)
5(-3.930717438e-05 -1.039263726e-05 -3.55060496e-05 -1.877775849e-05 -2.524444392e-05)
5(-3.827644073e-05 -7.181381798e-06 -3.494506295e-05 -1.596966103e-05 -2.271462184e-05)
5(-3.646610852e-05 -3.149783047e-06 -3.206725349e-05 -1.04011045e-05 -1.678323042e-05)
5(-3.252289121e-05 3.983263833e-06 -2.499837204e-05 7.003756004e-08 -4.651187555e-06)
5(-2.578128759e-05 1.496429937e-05 -1.246695887e-05 1.708586951e-05 1.532770672e-05)
5(-1.468028602e-05 3.264944797e-05 8.493147536e-06 4.435849404e-05 4.653296145e-05)
5(3.744695865e-06 5.843001326e-05 4.103104608e-05 8.491317029e-05 9.423869736e-05)
5(3.134777526e-05 9.568143201e-05 8.971872519e-05 0.0001441260519 0.000162878162)
5(7.117322628e-05 0.0001488666317 0.0001589109614 0.0002271871652 0.0002571105313)
5(0.0001262700893 0.0002211826113 0.0002522644605 0.0003364521433 0.000377110173)
5(0.0002009610211 0.0003157553491 0.0003735457325 0.0004748600448 0.0005229089198)
5(0.0002977029612 0.0004369327928 0.0005229099474 0.0006373413013 0.0006868584893)
5(0.0004175695657 0.0005816552429 0.0006948475122 0.0008173267552 0.0008490655465)
5(0.0005581000339 0.0007453617938 0.0008779683573 0.0009867495273 0.0009690309298)
5(0.0007156449151 0.0009183818099 0.001047625383 0.001117199718 0.001015621754)
5(0.0008736181407 0.001078184718 0.001171198485 0.001159569125 0.0009170892152)
5(0.001015325597 0.001199913277 0.00120386147 0.001054591971 0.0006117804068)
5(0.001121445759 0.001247946985 0.001094564409 0.0007467765007 4.402816148e-05)
5(0.001159832592 0.001182199975 0.000795294775 0.000184840904 -0.0008120772835)
5(0.001112203358 0.0009746532693 0.0002728757666 -0.0006362311184 -0.001919080203)
5(0.0009606092799 0.0006009051145 -0.0004565938934 -0.00168967144 -0.003143111152)
5(0.0007174697602 7.579249696e-05 -0.001331530474 -0.002823130821 -0.004202564093)
5(0.0004026136179 -0.0005479027898 -0.002237374934 -0.003801962519 -0.004851732781)
5(6.215408923e-05 -0.001151887609 -0.002998237245 -0.004370737103 -0.004904813833)
5(-0.0002147326112 -0.001620967888 -0.00341951284 -0.00434415714 -0.00433130016)
5(-0.0003971684031 -0.001860736188 -0.003367728173 -0.00374428098 -0.003306098698)
5(-0.0004226940374 -0.001827745313 -0.002852625237 -0.002763035652 -0.002143874278)
5(-0.0002978100122 -0.001517292056 -0.00204056111 -0.001710194864 -0.001164029811)
5(-0.0001009267741 -0.001059424722 -0.0011985762 -0.0008735525581 -0.0005223865176)
5(8.702529129e-05 -0.0005944984458 -0.0005666405377 -0.0003612514595 -0.0001860103619)
5(0.0002018505194 -0.0002514389511 -0.0002092536328 -0.0001134541361 -5.071404098e-05)
5(0.0001916146442 -7.501295228e-05 -5.648122808e-05 -2.650985105e-05 -1.084966765e-05)
5(0.0001029882269 -1.520358866e-05 -1.024594938e-05 -4.3084464e-06 -1.637691307e-06)
5(4.532621481e-05 -1.090891862e-06 -1.122205535e-06 -4.685082611e-07 -1.656833249e-07)
5(1.034058337e-05 1.250523483e-07 -8.137853774e-08 -3.070309471e-08 -1.257685501e-08)
5(1.099888785e-06 1.055790245e-07 -3.297239674e-09 7.222896531e-08 -1.627012897e-09)
5(7.378958206e-07 3.644427193e-07 -2.51432331e-08 5.696209619e-08 -2.42872392e-07)
5(1.403710596e-07 -3.828277651e-07 2.836675114e-07 -8.082819823e-08 -1.383276371e-11)
)


60
(
5(-5.403249197e-06 -2.068309712e-06 -4.941944396e-06 -3.506653691e-06 -3.448301971e-06)
5(-8.195116356e-06 -3.758497733e-06 -5.868497368e-06 -3.53265432e-06 -3.648212981e-06)
5(-8.963546655e-06 -4.028211504e-06 -5.86347255e-06 -3.264841282e-06 -3.343334071e-06)
5(-9.128821227e-06 -3.856985643e-06 -5.852681062e-06 -3.165663219e-06 -3.288626845e-06)
5(-9.296053072e-06 -3.632458063e-06 -5.977801642e-06 -3.213428752e-06 -3.390945728e-06)
5(-9.671774475e-06 -3.506202704e-06 -6.268694168e-06 -3.375859255e-06 -3.679443659e-06)
5(-1.02427842e-05 -3.318836786e-06 -6.699227924e-06 -3.595910238e-06 -4.19668215e-06)
5(-1.09113875e-05 -3.162773824e-06 -7.355388149e-06 -3.926994633e-06 -4.838253733e-06)
5(-1.175711604e-05 -2.965702463e-06 -8.095727061e-06 -4.314956573e-06 -5.661995652e-06)
5(-1.26107227e-05 -2.664353857e-06 -9.003413461e-06 -4.830253745e-06 -6.646337772e-06)
5(-1.351309014e-05 -2.315397755e-06 -9.985451471e-06 -5.433189189e-06 -7.786058387e-06)
5(-1.454206868e-05 -1.90126872e-06 -1.113988749e-05 -6.164554403e-06 -9.120749044e-06)
5(-1.542139684e-05 -1.394554233e-06 -1.231823889e-05 -6.875315413e-06 -1.056776658e-05)
5(-1.667993973e-05 -8.035715855e-07 -1.356863148e-05 -7.658948007e-06 -1.214947578e-05)
5(-1.765367292e-05 8.163307475e-08 -1.478559676e-05 -8.329693889e-06 -1.362023429e-05)
5(-1.807666909e-05 1.404639181e-06 -1.589776948e-05 -8.92172795e-06 -1.51961625e-05)
5(-1.870517774e-05 2.921619777e-06 -1.694048018e-05 -9.149792579e-06 -1.682745584e-05)
5(-1.881949797e-05 4.917183759e-06 -1.75906606e-05 -9.485479524e-06 -1.830221105e-05)
5(-1.85527732e-05 7.65249778e-06 -1.793784057e-05 -9.25790575e-06 -1.937070687e-05)
5(-1.761267767e-05 1.095860157e-05 -1.800998206e-05 -8.520675333e-06 -2.009468099e-05)
5(-1.622004973e-05 1.488513835e-05 -1.712166877e-05 -7.094903531e-06 -2.025268668e-05)
5(-1.366305557e-05 2.044963538e-05 -1.56282871e-05 -4.798696082e-06 -1.968929557e-05)
5(-9.755059131e-06 2.697133674e-05 -1.294182718e-05 -1.229193516e-06 -1.810759489e-05)
5(-4.450700984e-06 3.484896841e-05 -8.981903321e-06 4.355585237e-06 -1.401177156e-05)
5(2.206231792e-06 4.470800391e-05 -2.005077157e-06 1.235274801e-05 -7.11485225e-06)
5(1.185136393e-05 5.703070244e-05 8.210148025e-06 2.494748418e-05 6.045184551e-06)
5(2.453152541e-05 7.313952295e-05 2.389852102e-05 4.378815537e-05 2.592672066e-05)
5(4.108165085e-05 9.49768945e-05 4.62991995e-05 7.201462118e-05 5.805317326e-05)
5(6.330465344e-05 0.0001235371624 7.96129114e-05 0.0001132386586 0.0001061605751)
5(9.451184538e-05 0.0001615317351 0.0001275582883 0.0001722802479 0.0001761553086)
5(0.000136074653 0.0002128640778 0.0001936981393 0.000254606976 0.0002741432179)
5(0.0001915366258 0.0002812996735 0.000282782806 0.0003659412567 0.0004028293169)
5(0.0002647597934 0.0003696730213 0.0004007998873 0.0005068112647 0.0005612499249)
5(0.00035837311 0.0004812176992 0.0005465092107 0.000680885084 0.0007541485247)
5(0.0004740665748 0.0006146280406 0.0007214820654 0.0008829737299 0.0009661519619)
5(0.0006079872534 0.0007712734412 0.0009191044394 0.001100912838 0.001175448424)
5(0.0007603761843 0.0009453859344 0.0011246069 0.001311107508 0.001349558159)
5(0.0009245552991 0.001123410234 0.001316400228 0.001479421325 0.001435586695)
5(0.001084273282 0.001288497731 0.00146348816 0.0015572781 0.001373162152)
5(0.001227520165 0.00141978571 0.001525465483 0.001493799743 0.001100249445)
5(0.001332039598 0.001491258415 0.001461304325 0.001232653046 0.0005642822293)
5(0.001392525947 0.001482760871 0.001231544646 0.0007331306426 -0.0002779425112)
5(0.001399438373 0.001374234124 0.0008251911479 -2.964913899e-05 -0.001381743028)
5(0.001362561832 0.00116373656 0.0002462725075 -0.001007797665 -0.002568606879)
5(0.001307750874 0.0008780733016 -0.0004437429969 -0.002051562949 -0.00360560411)
5(0.001264976597 0.0005578672121 -0.001166432474 -0.002941009644 -0.004246232147)
5(0.001227455654 0.0002387767029 -0.001767560881 -0.003452547359 -0.004322618739)
5(0.001267237826 -8.285575294e-06 -0.002116180128 -0.003431346458 -0.003809454029)
5(0.001312841858 -0.0001543001488 -0.00209924795 -0.002912036247 -0.002886207972)
5(0.001410125907 -0.0001881063766 -0.001732228859 -0.002101411321 -0.00185649571)
5(0.001462688426 -0.0001576703836 -0.001190894586 -0.00125926003 -0.0009802731961)
5(0.001418925952 -3.085817889e-05 -0.0006550522139 -0.0006077877022 -0.0004220399876)
5(0.001276440087 3.653897493e-05 -0.0002844730382 -0.0002317557201 -0.0001420281446)
5(0.001065022238 6.557331234e-05 -9.397731185e-05 -6.353330005e-05 -3.409640551e-05)
5(0.0006864152908 5.462891044e-05 -2.071813405e-05 -1.232604263e-05 -6.009772206e-06)
5(0.0004010954128 2.277611159e-05 -3.442449612e-06 -1.48799859e-06 -7.098577042e-07)
5(0.0001582783449 9.418590986e-06 -1.079993962e-07 -1.008979028e-07 -4.647045652e-08)
5(5.075720383e-05 1.309572e-06 1.348675658e-09 2.852300536e-08 -2.634349898e-09)
5(1.418178785e-05 -5.660234381e-07 6.049336771e-08 -2.551874791e-07 -1.169334474e-07)
5(1.908315147e-05 3.342265908e-07 1.921146396e-06 -2.578357707e-07 7.581549385e-12)
)


60
(
5(-6.767326917e-06 -2.847527454e-06 -6.214965661e-06 -4.647220422e-06 -4.445777777e-06)
5(-1.027712048e-05 -4.987643762e-06 -7.101016826e-06 -4.574190872e-06 -4.519190001e-06)
5(-1.115338708e-05 -5.17518205e-06 -6.979847168e-06 -4.084646206e-06 -4.007237644e-06)
5(-1.116394895e-05 -4.808480574e-06 -6.817857703e-06 -3.768762425e-06 -3.740364335e-06)
5(-1.126849746e-05 -4.376159149e-06 -6.73794829e-06 -3.606660623e-06 -3.805245794e-06)
5(-1.149924189e-05 -3.932363391e-06 -6.720787263e-06 -3.587688002e-06 -4.001816306e-06)
5(-1.195814743e-05 -3.416145442e-06 -6.8642933e-06 -3.59012349e-06 -4.392124782e-06)
5(-1.251581514e-05 -2.842360003e-06 -7.219014184e-06 -3.684563204e-06 -5.0265392e-06)
5(-1.318402808e-05 -2.227564773e-06 -7.626262138e-06 -3.816454838e-06 -5.727490447e-06)
5(-1.39279021e-05 -1.536818304e-06 -8.159222423e-06 -4.051782855e-06 -6.695251465e-06)
5(-1.485536407e-05 -6.52119828e-07 -8.717634693e-06 -4.303627602e-06 -7.736441954e-06)
5(-1.557854192e-05 3.530519935e-07 -9.347972728e-06 -4.592975737e-06 -8.975917663e-06)
5(-1.662970463e-05 1.483976256e-06 -9.866569514e-06 -4.817523584e-06 -1.024062699e-05)
5(-1.748545116e-05 2.973447546e-06 -1.038428059e-05 -4.951070932e-06 -1.153174231e-05)
5(-1.834389508e-05 4.742009528e-06 -1.063941338e-05 -4.831730827e-06 -1.268285767e-05)
5(-1.906132122e-05 6.987410407e-06 -1.08428904e-05 -4.404183754e-06 -1.374644903e-05)
5(-1.918904915e-05 9.881416789e-06 -1.030635479e-05 -3.338926302e-06 -1.438950265e-05)
5(-1.923637236e-05 1.337646682e-05 -9.27901274e-06 -2.119742894e-06 -1.492721557e-05)
5(-1.833198259e-05 1.773140507e-05 -7.712940819e-06 3.869317896e-07 -1.464855079e-05)
5(-1.690807378e-05 2.302208834e-05 -5.123799481e-06 3.170097419e-06 -1.449278804e-05)
5(-1.540623025e-05 2.918611988e-05 -1.850058369e-06 7.15784691e-06 -1.274853241e-05)
5(-1.15621467e-05 3.739735912e-05 2.946877074e-06 1.259340676e-05 -1.034855663e-05)
5(-7.119152098e-06 4.642193593e-05 8.879102644e-06 1.903109107e-05 -6.948056371e-06)
5(-2.097072377e-06 5.710150148e-05 1.660583165e-05 2.783557095e-05 -7.529924167e-07)
5(6.167932934e-06 6.988588356e-05 2.717881891e-05 3.945345377e-05 8.079218078e-06)
5(1.598927162e-05 8.540707757e-05 4.079381069e-05 5.444498523e-05 2.097414056e-05)
5(2.889230422e-05 0.000104489447 5.873768251e-05 7.563816853e-05 4.233337547e-05)
5(4.479430131e-05 0.0001277027018 8.246098283e-05 0.0001051877296 7.380282066e-05)
5(6.809230347e-05 0.0001566028238 0.0001170451531 0.0001464917905 0.0001189592357)
5(9.824700065e-05 0.0001950440086 0.0001636006453 0.0002026736449 0.0001857929269)
5(0.0001390843043 0.0002456071074 0.0002260946276 0.0002813810954 0.0002788122205)
5(0.0001917240526 0.0003090829215 0.0003084815626 0.0003850719687 0.0004013636272)
5(0.0002608959489 0.0003915811363 0.0004168469125 0.0005200937226 0.0005647864677)
5(0.0003532528935 0.0004943533617 0.0005538697605 0.000691980923 0.0007658131852)
5(0.0004642532526 0.0006198386784 0.0007189943829 0.0008929153703 0.0009866229947)
5(0.000597981087 0.0007699834995 0.000911374212 0.001121559731 0.001231646869)
5(0.000755645497 0.0009356464926 0.001120213358 0.001359685813 0.001466720639)
5(0.0009253559355 0.001111909397 0.00133090372 0.001582945551 0.001659736776)
5(0.001097003156 0.001285841742 0.001521417207 0.001761583282 0.001764598431)
5(0.00125585699 0.001439376634 0.001664256724 0.001850284434 0.001713256339)
5(0.00138801229 0.001558435656 0.001725947054 0.001793693004 0.001447145209)
5(0.001482466803 0.001623659683 0.001677555207 0.001565412594 0.0009185384084)