/*--------------------------------*- C++ -*----------------------------------*\
| =========                 |                                                 |
| \\      /  F ield         | OpenFOAM: The Open Source CFD Toolbox           |
|  \\    /   O peration     | Version:  2.3.1                                 |
|   \\  /    A nd           | Web:      www.OpenFOAM.org                      |
|    \\/     M anipulation  |                                                 |
\*---------------------------------------------------------------------------*/
FoamFile
{
    version     2.0;
    format      ascii;
    class       dictionary;
    location    "constant";
    object      PM45;
}
// * * * * * * * * * * * * * * * * * * * * * * * * * * * * * * * * * * * * * //

PM45_table
60
(

60
(
5(-7.047424737e-07 -1.363553977e-06 -3.232502892e-07 -8.707608447e-07 -2.161608955e-07)
5(4.549158541e-05 -1.681466158e-06 -1.055645968e-06 -1.002728832e-06 2.276628747e-07)
5(4.554319443e-05 -6.547689992e-06 -1.17360723e-06 -9.055499726e-07 -7.931721433e-07)
5(4.719598339e-05 -1.483925237e-05 -1.165201075e-06 -1.246162755e-06 -5.109995115e-07)
5(4.08885969e-05 -2.364602043e-05 -1.392662656e-06 -1.29223542e-06 -8.782455277e-07)
5(-8.429603956e-06 -2.824790634e-05 -1.762622467e-06 -1.441511277e-06 -1.145350136e-06)
5(-5.252942591e-05 -2.500364694e-06 -2.045556553e-06 -1.750122723e-06 -1.336360677e-06)
5(5.716062368e-05 -2.892097013e-06 -2.20122057e-06 -1.969669278e-06 -1.513793493e-06)
5(9.186453322e-05 -3.139472135e-05 -2.440644575e-06 -2.333544215e-06 -1.93318818e-06)
5(4.673641974e-05 -4.719779458e-05 -2.995872799e-06 -2.739880082e-06 -2.253761543e-06)
5(-4.743142682e-05 -5.420073492e-05 -3.727554172e-06 -3.248455337e-06 -2.672225682e-06)
5(-0.0001021775182 -2.347637593e-05 -4.251488048e-06 -3.793065377e-06 -3.128463235e-06)
5(-3.974663204e-05 -5.973111893e-06 -4.999725128e-06 -4.412912487e-06 -3.787230007e-06)
5(-7.924667829e-06 -6.942413815e-06 -5.804974723e-06 -5.17545023e-06 -4.426066228e-06)
5(-5.995554614e-06 -7.237476729e-06 -6.565093364e-06 -5.974285701e-06 -5.228339425e-06)
5(-6.768739435e-06 -9.527847327e-06 -7.724843253e-06 -7.069043533e-06 -6.265349918e-06)
5(-1.350787438e-05 -1.19644691e-05 -9.443508745e-06 -8.53382e-06 -7.387506559e-06)
5(-1.660303394e-05 -1.312697425e-05 -1.130948297e-05 -9.763896815e-06 -8.496284724e-06)
5(-1.724348049e-05 -1.465405438e-05 -1.257357215e-05 -1.130211342e-05 -9.891034012e-06)
5(-1.86810219e-05 -1.667755811e-05 -1.44657741e-05 -1.323861866e-05 -1.21061629e-05)
5(-2.134168769e-05 -1.903261287e-05 -1.675216292e-05 -1.581835157e-05 -1.481211923e-05)
5(-2.440655224e-05 -2.192499663e-05 -1.949478215e-05 -1.909120073e-05 -1.780808353e-05)
5(-2.767160571e-05 -2.511487655e-05 -2.330607839e-05 -2.294305733e-05 -2.203325053e-05)
5(-3.107817715e-05 -2.764121282e-05 -2.771698224e-05 -2.78887166e-05 -2.746688307e-05)
5(-3.393192025e-05 -2.870715284e-05 -3.342660621e-05 -3.427274849e-05 -3.524861073e-05)
5(-3.618415876e-05 -3.388717391e-05 -4.178373016e-05 -4.309267092e-05 -4.654091423e-05)
5(-4.242159238e-05 -4.77759938e-05 -5.12118e-05 -5.567242894e-05 -6.299386417e-05)
5(-5.20283674e-05 -5.998723603e-05 -6.294867347e-05 -7.481930207e-05 -8.687052834e-05)
5(-5.951001562e-05 -6.971222968e-05 -8.373144827e-05 -0.0001047820995 -0.0001230758245)
5(-6.841153089e-05 -8.736470762e-05 -0.0001132584748 -0.000148293494 -0.0001769559562)
5(-8.14632564e-05 -0.0001153307783 -0.0001591382491 -0.0002161155841 -0.0002644760899)
5(-0.0001041147188 -0.0001594720025 -0.0002303031157 -0.0003198513038 -0.0003832534366)
5(-0.0001354500962 -0.0002201127074 -0.0003268467686 -0.0004665239161 -0.0005527339735)
5(-0.0001845818414 -0.0003180087372 -0.0004774426189 -0.0006845072763 -0.0008176113693)
5(-0.0002728745113 -0.0004636827177 -0.0006781171917 -0.0009720127725 -0.001131732029)
5(-0.0003973943685 -0.0006742889201 -0.0009998697113 -0.001376113361 -0.001496005561)
5(-0.0006275921058 -0.00102603693 -0.001496036194 -0.001837213467 -0.001910664631)
5(-0.0009079962957 -0.001415604831 -0.001971571478 -0.002331510592 -0.00237440512)
5(-0.001300071508 -0.001947568353 -0.002501807164 -0.002890055577 -0.002351551158)
5(-0.001809763233 -0.002569187081 -0.003123818275 -0.003000082988 -0.001113658651)
5(-0.002511468439 -0.00330657439 -0.003769832032 -0.0029164212 -0.001975503407)
5(-0.003180732981 -0.003894838458 -0.004008346585 -0.002156425286 -0.001942462546)
5(-0.003786625997 -0.004304127387 -0.003705698407 -0.002229032904 -0.001801794926)
5(-0.004094459613 -0.00418033012 -0.003122158477 -0.002148766194 -0.001336959225)
5(-0.004204500689 -0.003944209602 -0.002617380344 -0.001550812909 -0.0008881030522)
5(-0.003906256184 -0.003249476589 -0.001470437685 -0.001014128087 -0.000506502656)
5(-0.003205704015 -0.002272505598 -0.000876211538 -0.00066050672 -0.0002480974832)
5(-0.002447041004 -0.001512923771 -0.0006919022967 -0.0003405150271 -0.0001022276665)
5(-0.001570139765 -0.0006188597474 -0.0003661869417 -0.0001439273956 -3.585335913e-05)
5(-0.0004235041233 -0.0003040973637 -0.0001754994516 -5.027600951e-05 -1.101647899e-05)
5(-0.0001550651678 -0.0001640526512 -6.056126491e-05 -1.52144248e-05 -2.971532182e-06)
5(-0.0001489133148 -5.968123583e-05 -1.716754707e-05 -3.920079832e-06 -7.181473751e-07)
5(-5.41644909e-05 -1.558724915e-05 -4.077693346e-06 -8.727622311e-07 -1.513043942e-07)
5(-1.169894753e-05 -2.994373578e-06 -7.505114142e-07 -1.636017778e-07 -2.861283712e-08)
5(-1.806057148e-06 -4.653411508e-07 -1.107054367e-07 -2.439805329e-08 -4.212636074e-09)
5(-1.611852658e-07 -4.285325053e-08 -1.21681123e-08 -2.586407666e-09 -4.85464836e-10)
5(-8.022967214e-09 -3.049203915e-09 -6.644681503e-10 -1.716538941e-10 -3.249247464e-11)
5(-7.848560298e-11 -7.009968561e-11 -1.796082792e-11 -8.050323165e-12 -9.056177448e-13)
5(1.57724861e-12 -1.336639319e-12 -2.266572662e-12 1.413182522e-11 -6.535105468e-15)
5(1.575013587e-16 3.909218068e-16 1.747488215e-07 2.337724636e-15 4.190182488e-15)
)


60
(
5(-1.973114866e-06 -1.707334974e-06 -1.184291418e-06 -1.06708166e-06 -6.463273796e-07)
5(-2.203709868e-06 -1.996877347e-06 -1.402095287e-06 -1.113408254e-06 -8.088780955e-07)
5(7.006093963e-06 -1.86547917e-06 -1.405289156e-06 -1.162159148e-06 -9.721893595e-07)
5(2.449407564e-05 -1.919032182e-06 -1.375428601e-06 -1.286507195e-06 -7.195547122e-07)
5(3.462740663e-05 -2.179446209e-06 -1.596016293e-06 -1.349338565e-06 -9.984229418e-07)
5(3.045563054e-05 -2.530962249e-06 -2.055392973e-06 -1.572675666e-06 -1.237696021e-06)
5(-3.456697179e-06 -2.924340117e-06 -2.325952848e-06 -1.872582831e-06 -1.335895685e-06)
5(-4.139286666e-06 -3.34848838e-06 -2.574167026e-06 -2.11768154e-06 -1.665602876e-06)
5(3.159436548e-05 -3.859135592e-06 -2.973800982e-06 -2.448020959e-06 -1.900363419e-06)
5(5.177414164e-05 -4.335575874e-06 -3.381638045e-06 -2.891892919e-06 -2.225372042e-06)
5(5.585282928e-05 -5.017750088e-06 -4.011421747e-06 -3.404768863e-06 -2.672954667e-06)
5(1.425635604e-05 -6.156972183e-06 -4.845412216e-06 -4.035771063e-06 -3.202218296e-06)
5(-8.694116139e-06 -7.181563954e-06 -5.720475328e-06 -4.728445417e-06 -3.776020664e-06)
5(-1.001786327e-05 -8.344639715e-06 -6.682759827e-06 -5.608804908e-06 -4.471438237e-06)
5(-1.181672114e-05 -9.77141748e-06 -7.868555097e-06 -6.512135545e-06 -5.248160619e-06)
5(-1.167740638e-05 -1.091646638e-05 -9.030797327e-06 -7.517921832e-06 -6.086026596e-06)
5(-1.391505423e-05 -1.275772727e-05 -1.038508689e-05 -8.676620827e-06 -7.028580987e-06)
5(-1.748631029e-05 -1.477952976e-05 -1.207173176e-05 -9.920076531e-06 -8.099777881e-06)
5(-2.087617913e-05 -1.700071051e-05 -1.375700815e-05 -1.129741612e-05 -9.203531453e-06)
5(-2.359831596e-05 -1.922638364e-05 -1.545891635e-05 -1.260414123e-05 -1.038381778e-05)
5(-2.66656543e-05 -2.157369312e-05 -1.729691628e-05 -1.400821215e-05 -1.155552119e-05)
5(-2.971064021e-05 -2.382132386e-05 -1.886706768e-05 -1.553945907e-05 -1.28042092e-05)
5(-3.25335758e-05 -2.570679908e-05 -2.024407668e-05 -1.617336438e-05 -1.342988694e-05)
5(-3.499961811e-05 -2.688969121e-05 -2.091433296e-05 -1.638157879e-05 -1.35972746e-05)
5(-3.648873107e-05 -2.662200027e-05 -2.04645588e-05 -1.530624201e-05 -1.24414659e-05)
5(-3.655210739e-05 -2.401873482e-05 -1.78716386e-05 -1.20927723e-05 -9.648622102e-06)
5(-3.420756996e-05 -2.044964011e-05 -1.258892205e-05 -6.027056596e-06 -4.710624014e-06)
5(-2.81662566e-05 -1.398148724e-05 -2.585099096e-06 3.832098247e-06 3.306977971e-06)
5(-1.58558302e-05 3.184803817e-08 1.28837503e-05 1.849663847e-05 1.509972947e-05)
5(4.249007531e-06 2.188995706e-05 3.581705031e-05 3.833053315e-05 2.893458695e-05)
5(3.489617729e-05 5.29048098e-05 6.705575727e-05 6.27315856e-05 4.30825189e-05)
5(7.75073267e-05 9.236525025e-05 0.0001036937076 8.606942701e-05 5.107984519e-05)
5(0.0001330799148 0.0001412445974 0.0001445280099 0.0001040450792 4.515925034e-05)
5(0.0002018708857 0.0001958224011 0.0001817473726 9.838312391e-05 -5.522680792e-06)
5(0.0002787254666 0.0002420773281 0.0001940829591 4.940327383e-05 -0.000111370001)
5(0.0003501039339 0.0002721108463 0.0001738016397 -6.973083131e-05 -0.0003074550001)
5(0.0003957373902 0.0002409287344 4.065067076e-05 -0.0003137559807 -0.0006197952538)
5(0.0003917286703 0.0001475408334 -0.000189817616 -0.0006758346473 -0.001150065481)
5(0.000300158602 -7.11303918e-05 -0.000551817426 -0.001217075796 -0.001662865495)
5(9.753188078e-05 -0.0004246840154 -0.001051471782 -0.001863136536 -0.00269928702)
5(-0.0002821227785 -0.0009698023635 -0.001788711889 -0.002621142509 -0.00339325077)
5(-0.0008411424198 -0.001628358903 -0.002574694012 -0.003546823978 -0.003890199926)
5(-0.001528265746 -0.002410692517 -0.003356701435 -0.004521934612 -0.004017020545)
5(-0.00226865348 -0.003027243188 -0.003565448956 -0.004597322938 -0.00369822571)
5(-0.002925679739 -0.003518202118 -0.00382441751 -0.004167514459 -0.003059985677)
5(-0.003425143947 -0.003613710395 -0.003697602013 -0.003368550601 -0.002190797874)
5(-0.003549442192 -0.003455933421 -0.003578801708 -0.002370764046 -0.001345689644)
5(-0.003275137285 -0.003059044635 -0.002647748092 -0.001434438137 -0.0006962033874)
5(-0.002615375391 -0.002133368119 -0.001611118915 -0.0007313619659 -0.0002994161342)
5(-0.001796948902 -0.001584680433 -0.0008173531191 -0.0003078053909 -0.0001059336901)
5(-0.001071878552 -0.0007865699909 -0.0003389750287 -0.0001055228513 -3.181635233e-05)
5(-0.0006160179109 -0.0003086877001 -0.0001105886141 -2.961629865e-05 -8.223907587e-06)
5(-0.0002355824247 -9.546852376e-05 -2.853871677e-05 -6.908158072e-06 -1.826342796e-06)
5(-6.375275268e-05 -2.1365683e-05 -5.584503754e-06 -1.274888692e-06 -3.384462126e-07)
5(-1.14783894e-05 -3.331619367e-06 -8.389642042e-07 -1.930947472e-07 -5.269944716e-08)
5(-1.258482846e-06 -3.565398827e-07 -8.658055786e-08 -2.202972497e-08 -5.88410168e-09)
5(-7.098661017e-08 -2.169042137e-08 -6.556260558e-09 -1.540925536e-09 -4.535652591e-10)
5(-2.348960162e-09 -8.026938142e-10 -2.222484531e-10 -1.653504899e-11 -2.593405439e-11)
5(-1.068379601e-10 -5.165620159e-08 1.556718536e-08 1.989776399e-08 1.224972046e-11)
5(-2.009134026e-12 8.361821656e-08 2.55549982e-07 -7.848579774e-08 -1.217692909e-15)
)


60
(
5(-2.091504261e-06 -1.760713852e-06 -1.254665788e-06 -1.120234121e-06 -6.845845432e-07)
5(-2.267041961e-06 -1.747812369e-06 -1.378655694e-06 -1.051714269e-06 -7.734175325e-07)
5(-2.307113672e-06 -1.707080474e-06 -1.377625413e-06 -9.995073971e-07 -7.544178204e-07)
5(-2.38849452e-06 -1.755233877e-06 -1.418737367e-06 -1.012478744e-06 -7.744655528e-07)
5(-2.537926331e-06 -1.878836676e-06 -1.49510987e-06 -1.083237726e-06 -8.238843577e-07)
5(-2.710401378e-06 -2.055124424e-06 -1.597994499e-06 -1.212146473e-06 -8.989922687e-07)
5(-2.935279509e-06 -2.272824474e-06 -1.774688135e-06 -1.356408227e-06 -9.97247887e-07)
5(-3.291652721e-06 -2.559100126e-06 -1.995889066e-06 -1.522750115e-06 -1.133086969e-06)
5(-3.72162316e-06 -2.906380397e-06 -2.288971254e-06 -1.749076636e-06 -1.335287091e-06)
5(-4.207397059e-06 -3.313249401e-06 -2.646620591e-06 -2.031404095e-06 -1.599302302e-06)
5(-4.827588955e-06 -3.788730933e-06 -3.07362888e-06 -2.360092684e-06 -1.870166755e-06)
5(-5.541230202e-06 -4.397329763e-06 -3.54185107e-06 -2.744083469e-06 -2.178676108e-06)
5(-6.359992586e-06 -5.049835798e-06 -4.08031115e-06 -3.186132662e-06 -2.547135582e-06)
5(-7.246165024e-06 -5.779761162e-06 -4.686081721e-06 -3.646673021e-06 -2.931081005e-06)
5(-8.248062543e-06 -6.591911159e-06 -5.369278123e-06 -4.151838874e-06 -3.325081507e-06)
5(-9.47739536e-06 -7.48120966e-06 -6.096628579e-06 -4.697407891e-06 -3.762440571e-06)
5(-1.076320613e-05 -8.410104139e-06 -6.860401543e-06 -5.228287285e-06 -4.148004504e-06)
5(-1.201912795e-05 -9.38803046e-06 -7.625638158e-06 -5.699600659e-06 -4.460186318e-06)
5(-1.341975234e-05 -1.041468872e-05 -8.320472678e-06 -6.074622754e-06 -4.735610607e-06)
5(-1.469118706e-05 -1.132446326e-05 -8.878471806e-06 -6.264648192e-06 -4.818392941e-06)
5(-1.613973289e-05 -1.210740033e-05 -9.196790483e-06 -6.186678596e-06 -4.542138328e-06)
5(-1.736714359e-05 -1.245595534e-05 -9.152368372e-06 -5.49591853e-06 -3.729441038e-06)
5(-1.802151364e-05 -1.232879567e-05 -8.491754246e-06 -4.03896755e-06 -2.092977844e-06)
5(-1.78207921e-05 -1.129200484e-05 -6.533260806e-06 -1.223868919e-06 9.668713431e-07)
5(-1.68332846e-05 -8.845712271e-06 -2.941530362e-06 3.840148302e-06 6.360085699e-06)
5(-1.368767434e-05 -4.058801351e-06 3.666154286e-06 1.217177068e-05 1.521703905e-05)
5(-7.623855872e-06 3.889590967e-06 1.400134968e-05 2.538193729e-05 2.910308475e-05)
5(1.865363344e-06 1.688563851e-05 3.059097933e-05 4.596187595e-05 5.050054368e-05)
5(1.815175192e-05 3.740104391e-05 5.611200643e-05 7.661237615e-05 8.292287097e-05)
5(4.267446288e-05 6.727393993e-05 9.319236814e-05 0.0001210090152 0.0001278838456)
5(7.877763809e-05 0.0001107689642 0.0001461228004 0.0001818366096 0.0001877858815)
5(0.0001304865553 0.0001711303772 0.0002180684327 0.0002628533805 0.0002667497742)
5(0.0002009963181 0.0002507651435 0.0003115239481 0.0003631536174 0.0003611627914)
5(0.0002920021514 0.0003524968957 0.0004273401943 0.0004821306652 0.0004676592937)
5(0.0004078156798 0.0004770738024 0.0005608089219 0.0006101860751 0.000570906385)
5(0.0005445566619 0.0006169104552 0.0007030678829 0.0007331945551 0.0006528298627)
5(0.0006916090484 0.00076366406 0.000837435723 0.0008219621328 0.0006801741762)
5(0.0008486596446 0.0009023809668 0.0009351825854 0.0008457253906 0.0006209349412)
5(0.0009841000743 0.001001317362 0.0009655377895 0.0007683027277 0.0004389411103)
5(0.001074517621 0.001035830645 0.0008921482832 0.0005544367488 0.0001152566032)
5(0.001089254494 0.000968233962 0.000681463101 0.0001916699087 -0.0003552055106)
5(0.0009987212775 0.0007824885039 0.000332783379 -0.0002985679411 -0.0009084062877)
5(0.0007846987011 0.0004640125944 -0.0001340635434 -0.00085715963 -0.001451721232)
5(0.0004635300194 3.701511562e-05 -0.0006547851769 -0.00138052268 -0.001852643568)
5(6.147751175e-05 -0.0004297717804 -0.001131509021 -0.001744360319 -0.00200233352)
5(-0.0003584421306 -0.0008463640526 -0.001455226027 -0.001862255963 -0.001872588294)
5(-0.0006846059704 -0.001123584411 -0.001567996854 -0.00169256095 -0.001499769376)
5(-0.0008619752723 -0.00120882759 -0.001428135752 -0.001312757956 -0.001030611907)
5(-0.000832460445 -0.001082545985 -0.001106856743 -0.0008633797741 -0.0005983386007)
5(-0.0006523254274 -0.0008178733039 -0.0007256279006 -0.0004754551964 -0.0002842227503)
5(-0.0004026829968 -0.000519345176 -0.0003891752517 -0.0002120308836 -0.0001117510571)
5(-0.0001814190042 -0.0002664663656 -0.0001666099324 -7.621560638e-05 -3.424154557e-05)
5(-5.63803892e-05 -0.0001045089879 -5.496085434e-05 -2.12504806e-05 -8.686322481e-06)
5(-7.204436767e-06 -2.994382093e-05 -1.371377394e-05 -4.529090568e-06 -1.701695397e-06)
5(2.209305679e-06 -6.168310395e-06 -2.415161469e-06 -7.371967754e-07 -2.758839743e-07)
5(4.037415192e-07 -8.231895205e-07 -3.042861229e-07 -9.385158943e-08 -3.545785616e-08)
5(-7.648654122e-08 -6.777484689e-08 -2.327083586e-08 -8.875426399e-09 -2.964234912e-09)
5(7.447319798e-10 -2.934652126e-08 -1.076535255e-09 -1.800950027e-08 2.620148146e-10)
5(-1.678316385e-07 3.316127638e-07 6.489713785e-08 1.421566425e-07 8.461896891e-08)
5(6.688873703e-12 2.706648296e-07 2.115556166e-08 -5.168979748e-08 -1.917588685e-14)
)


60
(
5(-1.973462795e-06 -1.733697847e-06 -1.196294921e-06 -1.146371476e-06 -7.397586033e-07)
5(-2.059231357e-06 -1.639333717e-06 -1.281880334e-06 -1.018203837e-06 -7.810391333e-07)
5(-1.993643063e-06 -1.442311661e-06 -1.222802083e-06 -8.835970903e-07 -7.18136847e-07)
5(-1.916721789e-06 -1.320433026e-06 -1.155422713e-06 -8.093710383e-07 -6.859526573e-07)
5(-1.799816082e-06 -1.256166787e-06 -1.078845009e-06 -7.719547337e-07 -6.518215755e-07)
5(-1.685269638e-06 -1.222489889e-06 -1.002168223e-06 -7.519418609e-07 -6.20548425e-07)
5(-1.596880718e-06 -1.197361068e-06 -9.498731829e-07 -7.285391293e-07 -6.165532917e-07)
5(-1.5655751e-06 -1.16885157e-06 -9.462611068e-07 -7.368238045e-07 -6.418204916e-07)
5(-1.54027464e-06 -1.149505254e-06 -9.749641642e-07 -7.460795494e-07 -7.018690631e-07)
5(-1.55860659e-06 -1.13624283e-06 -1.031958322e-06 -7.756941573e-07 -7.736784442e-07)
5(-1.578739774e-06 -1.150632144e-06 -1.05379581e-06 -7.943273558e-07 -8.714930192e-07)
5(-1.566595094e-06 -1.165053128e-06 -1.061898066e-06 -8.633651931e-07 -9.773703e-07)
5(-1.571973802e-06 -1.13986515e-06 -1.093667073e-06 -9.142753832e-07 -1.029448392e-06)
5(-1.514844747e-06 -1.101099944e-06 -1.133720196e-06 -9.190195201e-07 -1.096287511e-06)
5(-1.419228286e-06 -1.086067459e-06 -1.140945897e-06 -8.920690901e-07 -1.164539813e-06)
5(-1.357410212e-06 -1.024645391e-06 -1.042810469e-06 -7.957372031e-07 -1.101727674e-06)
5(-1.282398154e-06 -8.517769155e-07 -8.294207242e-07 -5.409713367e-07 -9.49508286e-07)
5(-8.442502514e-07 -5.425959155e-07 -5.700168936e-07 -8.953734771e-08 -6.258061786e-07)
5(-6.216596066e-07 -1.837068141e-07 3.486114116e-08 5.179039577e-07 -5.663841569e-08)
5(8.79112916e-08 6.534759965e-07 7.914872421e-07 1.435991532e-06 7.430199997e-07)
5(1.291918278e-06 1.621095042e-06 1.901454311e-06 2.896589558e-06 2.359491218e-06)
5(2.465110375e-06 2.966521692e-06 3.763417093e-06 5.085762892e-06 4.591418946e-06)
5(3.789707583e-06 5.312418005e-06 6.564687275e-06 8.220199108e-06 7.685105587e-06)
5(7.24071802e-06 8.876917462e-06 1.026785075e-05 1.291148629e-05 1.258331003e-05)
5(1.155823655e-05 1.329070922e-05 1.57878343e-05 1.986701855e-05 1.975368062e-05)
5(1.747883388e-05 2.015513965e-05 2.442222519e-05 3.048457634e-05 3.141369616e-05)
5(2.588430914e-05 2.971653082e-05 3.702506478e-05 4.630570718e-05 4.861564955e-05)
5(3.801924916e-05 4.464238338e-05 5.582869334e-05 6.986467042e-05 7.388192155e-05)
5(5.633607812e-05 6.585222877e-05 8.313533894e-05 0.0001038983997 0.0001112469419)
5(8.205439059e-05 9.638940519e-05 0.0001226866254 0.0001527047269 0.0001643502518)
5(0.0001188271169 0.0001400433037 0.0001786974766 0.0002211866703 0.0002387202495)
5(0.0001693782298 0.0001996682055 0.0002543991234 0.0003129085204 0.0003362717181)
5(0.0002380180622 0.0002794844621 0.0003551475916 0.0004319137516 0.0004590186253)
5(0.0003286520532 0.0003846465276 0.000483381997 0.0005779215583 0.0006070855378)
5(0.0004443516704 0.0005147685974 0.0006377062956 0.0007498914616 0.000772839259)
5(0.0005856282873 0.0006692257826 0.0008154050765 0.0009308641786 0.0009321059679)
5(0.0007497314556 0.0008437167575 0.001002154414 0.001105677645 0.001074048384)
5(0.0009273398361 0.0010229374 0.001177501441 0.00124431091 0.001151798237)
5(0.001101983376 0.001189451232 0.001313207317 0.001303555778 0.001122051599)
5(0.001258663315 0.001316272761 0.001368102686 0.001242113554 0.0009460577492)
5(0.001363952572 0.001368698815 0.001308062615 0.001024006096 0.0006063471058)
5(0.001391269141 0.001317488767 0.001101237263 0.0006441449287 0.0001159893864)
5(0.001311707132 0.001137529784 0.0007433823039 0.000114038446 -0.0004886050226)
5(0.001123882608 0.0008285892155 0.0002605813028 -0.0004832540277 -0.001070821591)
5(0.0008292064667 0.000412909401 -0.0002806483558 -0.001040272527 -0.001528170984)
5(0.0004747663832 -3.251654372e-05 -0.0007743534566 -0.001437857952 -0.001749629114)
5(0.0001530325435 -0.0004297915567 -0.001117392252 -0.001578179595 -0.001689534047)
5(-9.615088149e-05 -0.0006970342081 -0.001250139019 -0.001461750376 -0.001386830156)
5(-0.0002028542683 -0.0007905834309 -0.001156957833 -0.001138617371 -0.000961412568)
5(-0.0001464688948 -0.0007125516682 -0.0008891716814 -0.0007305465956 -0.0005603715025)
5(-6.155969505e-06 -0.0005300749778 -0.0005565697789 -0.0003922280679 -0.0002730789889)
5(0.0001358848057 -0.0003196625534 -0.0002836770741 -0.000171825758 -0.0001037198527)
5(0.0002267943476 -0.0001380560478 -0.0001150240865 -5.813720269e-05 -3.15637794e-05)
5(0.0002047693465 -4.150010239e-05 -3.517936845e-05 -1.488246441e-05 -7.243364276e-06)
5(0.0001080113183 -1.019013946e-05 -7.38185159e-06 -2.839560971e-06 -1.246822629e-06)
5(4.924977512e-05 -6.765001235e-07 -1.004433145e-06 -3.846605858e-07 -1.621609547e-07)
5(1.161234118e-05 1.546210882e-07 -1.142381586e-07 -3.31707788e-08 -1.576332648e-08)
5(1.264397033e-06 1.878671744e-07 -6.718700094e-09 1.546331925e-07 -3.657207013e-09)
5(1.268644563e-06 5.478030148e-07 -6.289812228e-08 1.538411006e-07 -7.535828396e-07)
5(2.003516366e-07 -8.172119618e-07 5.739851867e-07 -2.405196973e-07 -5.472315833e-11)
)


60
(
5(-1.650940093e-06 -1.558312477e-06 -1.053726849e-06 -1.13737879e-06 -8.117505569e-07)
5(-1.593482944e-06 -1.349735511e-06 -1.070050119e-06 -9.337770333e-07 -8.005934264e-07)
5(-1.312956218e-06 -9.104715091e-07 -8.918779014e-07 -6.690082522e-07 -6.66493297e-07)
5(-9.798512279e-07 -5.477231793e-07 -6.382070107e-07 -4.506591528e-07 -5.417903919e-07)
5(-5.299159218e-07 -2.035219668e-07 -3.304002483e-07 -2.413438655e-07 -3.775702242e-07)
5(2.676407488e-08 1.659199372e-07 2.383728476e-08 -3.969530001e-09 -1.784713081e-07)
5(6.021514653e-07 5.985638135e-07 4.172082235e-07 2.739288805e-07 1.747724892e-08)
5(1.194863351e-06 1.069352589e-06 7.800492042e-07 5.645846137e-07 1.929251679e-07)
5(1.811276734e-06 1.612681827e-06 1.185768646e-06 9.031885974e-07 3.574350352e-07)
5(2.554015768e-06 2.259178064e-06 1.631401003e-06 1.262498871e-06 5.377867404e-07)
5(3.487610795e-06 2.998041345e-06 2.192618014e-06 1.677829404e-06 7.68664441e-07)
5(4.453079608e-06 3.825750984e-06 2.811049982e-06 2.128384059e-06 1.020686249e-06)
5(5.724350931e-06 4.762196193e-06 3.55991411e-06 2.701254749e-06 1.34861585e-06)
5(6.906529618e-06 5.778772237e-06 4.405479435e-06 3.345255086e-06 1.713819103e-06)
5(8.454972482e-06 7.004855582e-06 5.42138624e-06 4.178844888e-06 2.332573899e-06)
5(1.036702806e-05 8.515028003e-06 6.647321024e-06 5.184687834e-06 3.03166836e-06)
5(1.227085467e-05 1.015763963e-05 8.0711395e-06 6.567519231e-06 3.97155782e-06)
5(1.472780981e-05 1.210817314e-05 9.878241597e-06 8.081736409e-06 5.180009675e-06)
5(1.733678447e-05 1.452284374e-05 1.210034952e-05 1.013198023e-05 6.965549497e-06)
5(2.074841342e-05 1.731553437e-05 1.469373338e-05 1.273552823e-05 9.219758306e-06)
5(2.44613672e-05 2.053162516e-05 1.811767913e-05 1.606111802e-05 1.21858976e-05)
5(2.867533543e-05 2.478870687e-05 2.212680388e-05 2.021081234e-05 1.597227773e-05)
5(3.422935054e-05 2.975991695e-05 2.72044093e-05 2.5488507e-05 2.079307845e-05)
5(4.106644313e-05 3.575923355e-05 3.326499039e-05 3.250497866e-05 2.760148805e-05)
5(4.852611593e-05 4.302143578e-05 4.162278056e-05 4.154909311e-05 3.678160021e-05)
5(5.835438743e-05 5.225863993e-05 5.253953847e-05 5.410856617e-05 5.015026409e-05)
5(7.048487103e-05 6.449684015e-05 6.727821362e-05 7.151326623e-05 6.846478007e-05)
5(8.568125614e-05 8.106283619e-05 8.719530487e-05 9.624388226e-05 9.563628611e-05)
5(0.0001051256201 0.0001029050922 0.000115169774 0.000131179407 0.0001345057489)
5(0.0001319483003 0.0001328023674 0.0001546152799 0.000180469968 0.0001898186953)
5(0.0001679411791 0.0001741268136 0.0002087028672 0.0002491061513 0.0002673011002)
5(0.0002158018148 0.0002304277496 0.0002822420902 0.0003427744199 0.0003701285911)
5(0.0002804199904 0.0003064082112 0.0003816885859 0.0004632399572 0.0004996130064)
5(0.00036567558 0.0004049997165 0.0005078854688 0.0006165538331 0.0006656598783)
5(0.0004752703963 0.0005287089502 0.0006647916228 0.0008008289386 0.0008548618603)
5(0.0006087267123 0.0006804742366 0.0008515558654 0.001009979411 0.001063557807)
5(0.0007674265403 0.000858783097 0.001058848702 0.001230228329 0.001270402383)
5(0.0009499631729 0.001054502034 0.001272728852 0.001435677101 0.001439732342)
5(0.001143047734 0.00125170054 0.001466191203 0.001587308439 0.001526733788)
5(0.001331952431 0.001428545852 0.001606778988 0.001643599679 0.001485945793)
5(0.001489197753 0.001555984068 0.001655920668 0.001555425727 0.001276700031)
5(0.001594041809 0.001603086313 0.00157239473 0.001293666397 0.0008884690531)
5(0.001613886612 0.001536552541 0.00133119307 0.0008487979768 0.0003200377965)
5(0.001532093175 0.001341950843 0.0009299922047 0.0002598936535 -0.0003370549266)
5(0.001349288322 0.001025068797 0.0004127965804 -0.000389492275 -0.0009802640722)
5(0.001093370412 0.0006281463065 -0.0001478604682 -0.0009783907694 -0.001463390934)
5(0.0007771778918 0.0002032626958 -0.0006472055014 -0.001387552496 -0.001705089844)
5(0.0005176689191 -0.0001634298177 -0.0009973559125 -0.001519722308 -0.001646302408)
5(0.0003307401928 -0.0003966626269 -0.001112569727 -0.001374613075 -0.001352686074)
5(0.0002869586821 -0.0004727823713 -0.0009981299416 -0.001051283181 -0.0009472862918)
5(0.0003652654291 -0.0004283227927 -0.0007470852058 -0.0006693111027 -0.0005433494859)
5(0.0004684262093 -0.0002673089612 -0.0004485216133 -0.0003440944231 -0.0002545779107)
5(0.0005667331537 -0.0001356359865 -0.000217695463 -0.0001456141849 -9.631719685e-05)
5(0.000611073009 -4.056342089e-05 -8.567950522e-05 -4.327306492e-05 -2.516204085e-05)
5(0.0004669037399 6.398416911e-06 -2.374582617e-05 -9.946768977e-06 -5.305954727e-06)
5(0.0003158801254 5.749690111e-06 -5.531785496e-06 -1.548023743e-06 -7.890297675e-07)
5(0.0001385983033 6.230895703e-06 -4.071673596e-07 -1.515944873e-07 -7.077964092e-08)
5(4.953703873e-05 1.05937626e-06 -2.579727859e-08 5.864282631e-08 -5.868279868e-09)
5(1.635183889e-05 -7.539231883e-07 9.92920716e-08 -4.31857393e-07 -3.454096447e-07)
5(2.543400724e-05 5.929122193e-07 3.337548785e-06 -7.122771716e-07 1.616723998e-11)
)


60
(
5(-1.173665864e-06 -1.270779486e-06 -8.622578129e-07 -1.129615696e-06 -9.151768023e-07)
5(-9.851044303e-07 -9.311247636e-07 -7.889534875e-07 -8.424457378e-07 -8.462726154e-07)
5(-3.932935176e-07 -1.853776344e-07 -4.386655566e-07 -4.054617717e-07 -5.820725154e-07)
5(3.098817533e-07 4.723586237e-07 4.329370991e-08 2.304834569e-08 -2.86394138e-07)
5(1.153466872e-06 1.139070964e-06 6.528926153e-07 4.858944503e-07 3.822131899e-08)
5(2.216776143e-06 1.942358033e-06 1.386148576e-06 1.004670679e-06 4.601547048e-07)
5(3.381179646e-06 2.869282092e-06 2.205213561e-06 1.627008824e-06 9.189713492e-07)
5(4.678163153e-06 3.940924637e-06 3.055109102e-06 2.31404378e-06 1.350096718e-06)
5(6.098152807e-06 5.176077637e-06 4.028797839e-06 3.101441874e-06 1.846560184e-06)
5(7.840991606e-06 6.571868852e-06 5.124207607e-06 3.9772701e-06 2.392523273e-06)
5(9.730723364e-06 8.212259797e-06 6.43175139e-06 4.981081991e-06 3.025411132e-06)
5(1.206687766e-05 1.00418732e-05 7.896024719e-06 6.117411608e-06 3.750657441e-06)
5(1.46069839e-05 1.208286918e-05 9.637585691e-06 7.430925612e-06 4.607764667e-06)
5(1.749318687e-05 1.445161274e-05 1.153331772e-05 8.938513704e-06 5.648879217e-06)
5(2.082020076e-05 1.711596119e-05 1.379367428e-05 1.07492348e-05 6.958494575e-06)
5(2.448817071e-05 2.014852793e-05 1.625505462e-05 1.287761995e-05 8.562517141e-06)
5(2.87493572e-05 2.365248764e-05 1.939859776e-05 1.558906665e-05 1.066536811e-05)
5(3.33291606e-05 2.761255615e-05 2.30062229e-05 1.86050814e-05 1.318676856e-05)
5(3.915169378e-05 3.224942904e-05 2.722200094e-05 2.267986452e-05 1.643179426e-05)
5(4.519116817e-05 3.747862332e-05 3.222713097e-05 2.715007004e-05 2.015065685e-05)
5(5.1878674e-05 4.336875382e-05 3.792293181e-05 3.268713263e-05 2.501701594e-05)
5(6.051026686e-05 5.067308388e-05 4.487910204e-05 3.939637732e-05 3.093683379e-05)
5(6.93234996e-05 5.861907022e-05 5.281696499e-05 4.708615553e-05 3.790794983e-05)
5(7.955385415e-05 6.766487495e-05 6.21557385e-05 5.671240911e-05 4.703779194e-05)
5(9.158504154e-05 7.8366553e-05 7.363914766e-05 6.851238746e-05 5.855449653e-05)
5(0.0001050590655 9.046726532e-05 8.712884238e-05 8.313406149e-05 7.27900392e-05)
5(0.0001213217608 0.0001060485161 0.0001038554095 0.0001024050636 9.347463257e-05)
5(0.0001392457799 0.0001243102516 0.0001254571894 0.000128139434 0.000121373384)
5(0.0001613520806 0.000147034563 0.0001541549933 0.0001630688125 0.0001593332884)
5(0.0001899498639 0.0001768823669 0.0001925446299 0.0002109504713 0.0002139420443)
5(0.0002256603328 0.0002168243556 0.0002438559603 0.0002767048023 0.00028956027)
5(0.0002706337217 0.0002688629413 0.0003126088502 0.0003648395108 0.0003890771004)
5(0.0003291014178 0.0003376286811 0.0004041151128 0.0004820263052 0.0005235232728)
5(0.0004080855855 0.00042729753 0.0005236250955 0.00063492303 0.000694661081)
5(0.0005059531828 0.0005420719279 0.0006747187842 0.0008197366375 0.0008912644911)
5(0.0006283821075 0.0006856798509 0.0008578613386 0.001038855719 0.001120701545)
5(0.0007809279849 0.0008569325548 0.001068809465 0.001279742417 0.001363430013)
5(0.0009577695487 0.001050998534 0.001296797529 0.001522533041 0.001592669109)
5(0.001152235199 0.001258349581 0.001523672613 0.001740009317 0.001769490629)
5(0.001351308766 0.001462214503 0.001722061852 0.001886483729 0.001836195957)
5(0.001541342326 0.001639198782 0.001852788221 0.001904732607 0.001750023551)
5(0.001697282208 0.001757529881 0.001876105588 0.00177380105 0.001492363052)
5(0.001790227141 0.001787462528 0.001755262494 0.001442599158 0.001012290845)
5(0.001804348216 0.001708938324 0.001472425678 0.000928428421 0.0003699856918)