/*--------------------------------*- C++ -*----------------------------------*\
| =========                 |                                                 |
| \\      /  F ield         | OpenFOAM: The Open Source CFD Toolbox           |
|  \\    /   O peration     | Version:  2.3.1                                 |
|   \\  /    A nd           | Web:      www.OpenFOAM.org                      |
|    \\/     M anipulation  |                                                 |
\*---------------------------------------------------------------------------*/
FoamFile
{
    version     2.0;
    format      ascii;
    class       dictionary;
    location    "constant";
    object      PM4;
}
// * * * * * * * * * * * * * * * * * * * * * * * * * * * * * * * * * * * * * //

PM4_table
60
(

60
(
5{0}
5(0 0 -7.474021952e-08 0 0)
5(0 -1.680239872e-08 -5.089927201e-08 4.172481795e-08 -4.834785796e-06)
5(0 0 5.680369566e-08 -1.170154187e-06 -2.957793725e-06)
5(0 0 0 -1.684408084e-07 3.83969979e-06)
5(0 0 0 0 6.337730113e-07)
5{0}
5{0}
5{0}
5{0}
5{0}
5{0}
5{0}
5{0}
5{0}
5{0}
5{0}
5{0}
5{0}
5{0}
5{0}
5{0}
5{0}
5{0}
5{0}
5{0}
5{0}
5{0}
5{0}
5{0}
5{0}
5{0}
5{0}
5{0}
5{0}
5{0}
5{0}
5{0}
5{0}
5{0}
5{0}
5{0}
5{0}
5{0}
5{0}
5{0}
5{0}
5{0}
5{0}
5{0}
5{0}
5{0}
5{0}
5{0}
5{0}
5{0}
5{0}
5{0}
5{0}
5{0}
)


60
(
5{0}
5{0}
5(0 0 -3.052467658e-08 0 0)
5(0 0 0 0 -1.228460637e-06)
5(0 0 0 0 -2.508001381e-07)
5{0}
5{0}
5{0}
5{0}
5{0}
5{0}
5{0}
5{0}
5{0}
5{0}
5{0}
5{0}
5{0}
5{0}
5{0}
5{0}
5{0}
5{0}
5{0}
5{0}
5{0}
5{0}
5{0}
5{0}
5{0}
5{0}
5{0}
5{0}
5{0}
5{0}
5{0}
5{0}
5{0}
5{0}
5{0}
5{0}
5{0}
5{0}
5{0}
5{0}
5{0}
5{0}
5{0}
5{0}
5{0}
5{0}
5{0}
5{0}
5{0}
5{0}
5{0}
5{0}
5{0}
5{0}
5{0}
)


60
(
5{0}
5{0}
5{0}
5{0}
5{0}
5{0}
5{0}
5{0}
5{0}
5{0}
5{0}
5{0}
5{0}
5{0}
5{0}
5{0}
5{0}
5{0}
5{0}
5{0}
5{0}
5{0}
5{0}
5{0}
5{0}
5{0}
5{0}
5{0}
5{0}
5{0}
5{0}
5{0}
5{0}
5{0}
5{0}
5{0}
5{0}
5{0}
5{0}
5{0}
5{0}
5{0}
5{0}
5{0}
5{0}
5{0}
5{0}
5{0}
5{0}
5{0}
5{0}
5{0}
5{0}
5{0}
5{0}
5{0}
5{0}
5{0}
5{0}
5{0}
)


60
(
5{0}
5{0}
5{0}
5{0}
5{0}
5{0}
5{0}
5{0}
5{0}
5{0}
5{0}
5{0}
5{0}
5{0}
5{0}
5{0}
5{0}
5{0}
5{0}
5{0}
5{0}
5{0}
5{0}
5{0}
5{0}
5{0}
5{0}
5{0}
5{0}
5{0}
5{0}
5{0}
5{0}
5{0}
5{0}
5{0}
5{0}
5{0}
5{0}
5{0}
5{0}
5{0}
5{0}
5{0}
5{0}
5{0}
5{0}
5{0}
5{0}
5{0}
5{0}
5{0}
5{0}
5{0}
5{0}
5{0}
5{0}
5{0}
5{0}
5{0}
)


60
(
5{0}
5{0}
5{0}
5{0}
5{0}
5{0}
5{0}
5{0}
5{0}
5{0}
5{0}
5{0}
5{0}
5{0}
5{0}
5{0}
5{0}
5{0}
5{0}
5{0}
5{0}
5{0}
5{0}
5{0}
5{0}
5{0}
5{0}
5{0}
5{0}
5{0}
5{0}
5{0}
5{0}
5{0}
5{0}
5{0}
5{0}
5{0}
5{0}
5{0}
5{0}
5{0}
5{0}
5{0}
5{0}
5{0}
5{0}
5{0}
5{0}
5{0}
5{0}
5{0}
5{0}
5{0}
5{0}
5{0}
5{0}
5{0}
5{0}
5{0}
)


60
(
5{0}
5{0}
5{0}
5{0}
5{0}
5{0}
5{0}
5{0}
5{0}
5{0}
5{0}
5{0}
5{0}
5{0}
5{0}
5{0}
5{0}
5{0}
5{0}
5{0}
5{0}
5{0}
5{0}
5{0}
5{0}
5{0}
5{0}
5{0}
5{0}
5{0}
5{0}
5{0}
5{0}
5{0}
5{0}
5{0}
5{0}
5{0}
5{0}
5{0}
5{0}
5{0}
5{0}
5{0}
5{0}
5{0}
5{0}
5{0}
5{0}
5{0}
5{0}
5{0}
5{0}
5{0}
5{0}
5{0}
5{0}
5{0}
5{0}
5{0}
)


60
(
5{0}
5{0}
5{0}
5{0}
5{0}
5{0}
5{0}
5{0}
5{0}
5{0}
5{0}
5{0}
5{0}
5{0}
5{0}
5{0}
5{0}
5{0}
5{0}
5{0}
5{0}
5{0}
5{0}
5{0}
5{0}
5{0}
5{0}
5{0}
5{0}
5{0}
5{0}
5{0}
5{0}
5{0}
5{0}
5{0}
5{0}
5{0}
5{0}
5{0}
5{0}
5{0}
5{0}
5{0}
5{0}
5{0}
5{0}
5{0}
5{0}
5{0}
5{0}
5{0}
5{0}
5{0}
5{0}
5{0}
5{0}
5{0}
5{0}
5{0}
)


60
(
5{0}
5{0}
5{0}
5{0}
5{0}
5{0}
5{0}
5{0}
5{0}
5{0}
5{0}
5{0}
5{0}
5{0}
5{0}
5{0}
5{0}
5{0}
5{0}
5{0}
5{0}
5{0}
5{0}
5{0}
5{0}
5{0}
5{0}
5{0}
5{0}
5{0}
5{0}
5{0}
5{0}
5{0}
5{0}
5{0}
5{0}
5{0}
5{0}
5{0}
5{0}
5{0}
5{0}
5{0}
5{0}
5{0}
5{0}
5{0}
5{0}
5{0}
5{0}
5{0}
5{0}
5{0}
5{0}
5{0}
5{0}
5{0}
5{0}
5{0}
)


60
(
5{0}
5{0}
5{0}
5{0}
5{0}
5{0}
5{0}
5{0}
5{0}
5{0}
5{0}
5{0}
5{0}
5{0}
5{0}
5{0}
5{0}
5{0}
5{0}
5{0}
5{0}
5{0}
5{0}
5{0}
5{0}
5{0}
5{0}
5{0}
5{0}
5{0}
5{0}
5{0}
5{0}
5{0}
5{0}
5{0}
5{0}
5{0}
5{0}
5{0}
5{0}
5{0}
5{0}
5{0}
5{0}
5{0}
5{0}
5{0}
5{0}
5{0}
5{0}
5{0}
5{0}
5{0}
5{0}
5{0}
5{0}
5{0}
5{0}
5{0}
)


60
(
5{0}
5{0}
5{0}
5{0}
5{0}
5{0}
5{0}
5{0}
5{0}
5{0}
5{0}
5{0}
5{0}
5{0}
5{0}
5{0}
5{0}
5{0}
5{0}
5{0}
5{0}
5{0}
5{0}
5{0}
5{0}
5{0}
5{0}
5{0}
5{0}
5{0}
5{0}
5{0}
5{0}
5{0}
5{0}
5{0}
5{0}
5{0}
5{0}
5{0}
5{0}
5{0}
5{0}
5{0}
5{0}
5{0}
5{0}
5{0}
5{0}
5{0}
5{0}
5{0}
5{0}
5{0}
5{0}
5{0}
5{0}
5{0}
5{0}
5{0}
)


60
(
5{0}
5{0}
5{0}
5{0}
5{0}
5{0}
5{0}
5{0}
5{0}
5{0}
5{0}
5{0}
5{0}
5{0}
5{0}
5{0}
5{0}
5{0}
5{0}
5{0}
5{0}
5{0}
5{0}
5{0}
5{0}
5{0}
5{0}
5{0}
5{0}
5{0}
5{0}
5{0}
5{0}
5{0}
5{0}
5{0}
5{0}
5{0}
5{0}
5{0}
5{0}
5{0}
5{0}
5{0}
5{0}
5{0}
5{0}
5{0}
5{0}
5{0}
5{0}
5{0}
5{0}
5{0}
5{0}
5{0}
5{0}
5{0}
5{0}
5{0}
)


60
(
5{0}
5{0}
5{0}
5{0}
5{0}
5{0}
5{0}
5{0}
5{0}
5{0}
5{0}
5{0}
5{0}
5{0}
5{0}
5{0}
5{0}
5{0}
5{0}
5{0}
5{0}
5{0}
5{0}
5{0}
5{0}
5{0}
5{0}
5{0}
5{0}
5{0}
5{0}
5{0}
5{0}
5{0}
5{0}
5{0}
5{0}
5{0}
5{0}
5{0}
5{0}
5{0}
5{0}
5{0}
5{0}
5{0}
5{0}
5{0}
5{0}
5{0}
5{0}
5{0}
5{0}
5{0}
5{0}
5{0}
5{0}
5{0}
5{0}
5{0}
)


60
(
5{0}
5{0}
5{0}
5{0}
5{0}
5{0}
5{0}
5{0}
5{0}
5{0}
5{0}
5{0}
5{0}
5{0}
5{0}
5{0}
5{0}
5{0}
5{0}
5{0}
5{0}
5{0}
5{0}
5{0}
5{0}
5{0}
5{0}
5{0}
5{0}
5{0}
5{0}
5{0}
5{0}
5{0}
5{0}
5{0}
5{0}
5{0}
5{0}
5{0}
5{0}
5{0}
5{0}
5{0}
5{0}
5{0}
5{0}
5{0}
5{0}
5{0}
5{0}
5{0}
5{0}
5{0}
5{0}
5{0}
5{0}
5{0}
5{0}
5{0}
)


60
(
5{0}
5{0}
5{0}
5{0}
5{0}
5{0}
5{0}
5{0}
5{0}
5{0}
5{0}
5{0}
5{0}
5{0}
5{0}
5{0}
5{0}
5{0}
5{0}
5{0}
5{0}
5{0}
5{0}
5{0}
5{0}
5{0}
5{0}
5{0}
5{0}
5{0}
5{0}
5{0}
5{0}
5{0}
5{0}
5{0}
5{0}
5{0}
5{0}
5{0}
5{0}
5{0}
5{0}
5{0}
5{0}
5{0}
5{0}
5{0}
5{0}
5{0}
5{0}
5{0}
5{0}
5{0}
5{0}
5{0}
5{0}
5{0}
5{0}
5{0}
)


60
(
5{0}
5{0}
5{0}
5{0}
5{0}
5{0}
5{0}
5{0}
5{0}
5{0}
5{0}
5{0}
5{0}
5{0}
5{0}
5{0}
5{0}
5{0}
5{0}
5{0}
5{0}
5{0}
5{0}
5{0}
5{0}
5{0}
5{0}
5{0}
5{0}
5{0}
5{0}
5{0}
5{0}
5{0}
5{0}
5{0}
5{0}
5{0}
5{0}
5{0}
5{0}
5{0}
5{0}
5{0}
5{0}
5{0}
5{0}
5{0}
5{0}
5{0}
5{0}
5{0}
5{0}
5{0}
5{0}
5{0}
5{0}
5{0}
5{0}
5{0}
)


60
(
5{0}
5{0}
5{0}
5{0}
5{0}
5{0}
5{0}
5{0}
5{0}
5{0}
5{0}
5{0}
5{0}
5{0}
5{0}
5{0}
5{0}
5{0}
5{0}
5{0}
5{0}
5{0}
5{0}
5{0}
5{0}
5{0}
5{0}
5{0}
5{0}
5{0}
5{0}
5{0}
5{0}
5{0}
5{0}
5{0}
5{0}
5{0}
5{0}
5{0}
5{0}
5{0}
5{0}
5{0}
5{0}
5{0}
5{0}
5{0}
5{0}
5{0}
5{0}
5{0}
5{0}
5{0}
5{0}
5{0}
5{0}
5{0}
5{0}
5{0}
)


60
(
5{0}
5{0}
5{0}
5{0}
5{0}
5{0}
5{0}
5{0}
5{0}
5{0}
5{0}
5{0}
5{0}
5{0}
5{0}
5{0}
5{0}
5{0}
5{0}
5{0}
5{0}
5{0}
5{0}
5{0}
5{0}
5{0}
5{0}
5{0}
5{0}
5{0}
5{0}
5{0}
5{0}
5{0}
5{0}
5{0}
5{0}
5{0}
5{0}
5{0}
5{0}
5{0}
5{0}
5{0}
5{0}
5{0}
5{0}
5{0}
5{0}
5{0}
5{0}
5{0}
5{0}
5{0}
5{0}
5{0}
5{0}
5{0}
5{0}
5{0}
)


60
(
5{0}
5{0}
5{0}
5{0}
5{0}
5{0}
5{0}
5{0}
5{0}
5{0}
5{0}
5{0}
5{0}
5{0}
5{0}
5{0}
5{0}
5{0}
5{0}
5{0}
5{0}
5{0}
5{0}
5{0}
5{0}
5{0}
5{0}
5{0}
5{0}
5{0}
5{0}
5{0}
5{0}
5{0}
5{0}
5{0}
5{0}
5{0}
5{0}
5{0}
5{0}
5{0}
5{0}
5{0}
5{0}
5{0}
5{0}
5{0}
5{0}
5{0}
5{0}
5{0}
5{0}
5{0}
5{0}
5{0}
5{0}
5{0}
5{0}
5{0}
)


60
(
5{0}
5{0}
5{0}
5{0}
5{0}
5{0}
5{0}
5{0}
5{0}
5{0}
5{0}
5{0}
5{0}
5{0}
5{0}
5{0}
5{0}
5{0}
5{0}
5{0}
5{0}
5{0}
5{0}
5{0}
5{0}
5{0}
5{0}
5{0}
5{0}
5{0}
5{0}
5{0}
5{0}
5{0}
5{0}
5{0}
5{0}
5{0}
5{0}
5{0}
5{0}
5{0}
5{0}
5{0}
5{0}
5{0}
5{0}
5{0}
5{0}
5{0}
5{0}
5{0}
5{0}
5{0}
5{0}
5{0}
5{0}
5{0}
5{0}
5{0}
)


60
(
5{0}
5{0}
5{0}
5{0}
5{0}
5{0}
5{0}
5{0}
5{0}
5{0}
5{0}
5{0}
5{0}
5{0}
5{0}
5{0}
5{0}
5{0}
5{0}
5{0}
5{0}
5{0}
5{0}
5{0}
5{0}
5{0}
5{0}
5{0}
5{0}
5{0}
5{0}
5{0}
5{0}
5{0}
5{0}
5{0}
5{0}
5{0}
5{0}
5{0}
5{0}
5{0}
5{0}
5{0}
5{0}
5{0}
5{0}
5{0}
5{0}
5{0}
5{0}
5{0}
5{0}
5{0}
5{0}
5{0}
5{0}
5{0}
5{0}
5{0}
)


60
(
5{0}
5{0}
5{0}
5{0}
5{0}
5{0}
5{0}
5{0}
5{0}
5{0}
5{0}
5{0}
5{0}
5{0}
5{0}
5{0}
5{0}
5{0}
5{0}
5{0}
5{0}
5{0}
5{0}
5{0}
5{0}
5{0}
5{0}
5{0}
5{0}
5{0}
5{0}
5{0}
5{0}
5{0}
5{0}
5{0}
5{0}
5{0}
5{0}
5{0}
5{0}
5{0}
5{0}
5{0}
5{0}
5{0}
5{0}
5{0}
5{0}
5{0}
5{0}
5{0}
5{0}
5{0}
5{0}
5{0}
5{0}
5{0}
5{0}
5{0}
)


60
(
5{0}
5{0}
5{0}
5{0}
5{0}
5{0}
5{0}
5{0}
5{0}
5{0}
5{0}
5{0}
5{0}
5{0}
5{0}
5{0}
5{0}
5{0}
5{0}
5{0}
5{0}
5{0}
5{0}
5{0}
5{0}
5{0}
5{0}
5{0}
5{0}
5{0}
5{0}
5{0}
5{0}
5{0}
5{0}
5{0}
5{0}
5{0}
5{0}
5{0}
5{0}
5{0}
5{0}
5{0}
5{0}
5{0}
5{0}
5{0}
5{0}
5{0}
5{0}
5{0}
5{0}
5{0}
5{0}
5{0}
5{0}
5{0}
5{0}
5{0}
)


60
(
5{0}
5{0}
5{0}
5{0}
5{0}
5{0}
5{0}
5{0}
5{0}
5{0}
5{0}
5{0}
5{0}
5{0}
5{0}
5{0}
5{0}
5{0}
5{0}
5{0}
5{0}
5{0}
5{0}
5{0}
5{0}
5{0}
5{0}
5{0}
5{0}
5{0}
5{0}
5{0}
5{0}
5{0}
5{0}
5{0}
5{0}
5{0}
5{0}
5{0}
5{0}
5{0}
5{0}
5{0}
5{0}
5{0}
5{0}
5{0}
5{0}
5{0}
5{0}
5{0}
5{0}
5{0}
5{0}
5{0}
5{0}
5{0}
5{0}
5{0}
)


60
(
5{0}
5{0}
5{0}
5{0}
5{0}
5{0}
5{0}
5{0}
5{0}
5{0}
5{0}
5{0}
5{0}
5{0}
5{0}
5{0}
5{0}
5{0}
5{0}
5{0}
5{0}
5{0}
5{0}
5{0}
5{0}
5{0}
5{0}
5{0}
5{0}
5{0}
5{0}
5{0}
5{0}
5{0}
5{0}
5{0}
5{0}
5{0}
5{0}
5{0}
5{0}
5{0}
5{0}
5{0}
5{0}
5{0}
5{0}
5{0}
5{0}
5{0}
5{0}
5{0}
5{0}
5{0}
5{0}
5{0}
5{0}
5{0}
5{0}
5{0}
)


60
(
5{0}
5{0}
5{0}
5{0}
5{0}
5{0}
5{0}
5{0}
5{0}
5{0}
5{0}
5{0}
5{0}
5{0}
5{0}
5{0}
5{0}
5{0}
5{0}
5{0}
5{0}
5{0}
5{0}
5{0}
5{0}
5{0}
5{0}
5{0}
5{0}
5{0}
5{0}
5{0}
5{0}
5{0}
5{0}
5{0}
5{0}
5{0}
5{0}
5{0}
5{0}
5{0}
5{0}
5{0}
5{0}
5{0}
5{0}
5{0}
5{0}
5{0}
5{0}
5{0}
5{0}
5{0}
5{0}
5{0}
5{0}
5{0}
5{0}
5{0}
)


60
(
5{0}
5{0}
5{0}
5{0}
5{0}
5{0}
5{0}
5{0}
5{0}
5{0}
5{0}
5{0}
5{0}
5{0}
5{0}
5{0}
5{0}
5{0}
5{0}
5{0}
5{0}
5{0}
5{0}
5{0}
5{0}
5{0}
5{0}
5{0}
5{0}
5{0}
5{0}
5{0}
5{0}
5{0}
5{0}
5{0}
5{0}
5{0}
5{0}
5{0}
5{0}
5{0}
5{0}
5{0}
5{0}
5{0}
5{0}
5{0}
5{0}
5{0}
5{0}
5{0}
5{0}
5{0}
5{0}
5{0}
5{0}
5{0}
5{0}
5{0}
)


60
(
5{0}
5{0}
5{0}
5{0}
5{0}
5{0}
5{0}
5{0}
5{0}
5{0}
5{0}
5{0}
5{0}
5{0}
5{0}
5{0}
5{0}
5{0}
5{0}
5{0}
5{0}
5{0}
5{0}
5{0}
5{0}
5{0}
5{0}
5{0}
5{0}
5{0}
5{0}
5{0}
5{0}
5{0}
5{0}
5{0}
5{0}
5{0}
5{0}
5{0}
5{0}
5{0}
5{0}
5{0}
5{0}
5{0}
5{0}
5{0}
5{0}
5{0}
5{0}
5{0}
5{0}
5{0}
5{0}
5{0}
5{0}
5{0}
5{0}
5{0}
)


60
(
5{0}
5{0}
5{0}
5{0}
5{0}
5{0}
5{0}
5{0}
5{0}
5{0}
5{0}
5{0}
5{0}
5{0}
5{0}
5{0}
5{0}
5{0}
5{0}
5{0}
5{0}
5{0}
5{0}
5{0}
5{0}
5{0}
5{0}
5{0}
5{0}
5{0}
5{0}
5{0}
5{0}
5{0}
5{0}
5{0}
5{0}
5{0}
5{0}
5{0}
5{0}
5{0}
5{0}
5{0}
5{0}
5{0}
5{0}
5{0}
5{0}
5{0}
5{0}
5{0}
5{0}
5{0}
5{0}
5{0}
5{0}
5{0}
5{0}
5{0}
)


60
(
5{0}
5{0}
5{0}
5{0}
5{0}
5{0}
5{0}
5{0}
5{0}
5{0}
5{0}
5{0}
5{0}
5{0}
5{0}
5{0}
5{0}
5{0}
5{0}
5{0}
5{0}
5{0}
5{0}
5{0}
5{0}
5{0}
5{0}
5{0}
5{0}
5{0}
5{0}
5{0}
5{0}
5{0}
5{0}
5{0}
5{0}
5{0}
5{0}
5{0}
5{0}
5{0}
5{0}
5{0}
5{0}
5{0}
5{0}
5{0}
5{0}
5{0}
5{0}
5{0}
5{0}
5{0}
5{0}
5{0}
5{0}
5{0}
5{0}
5{0}
)


60
(
5{0}
5{0}
5{0}
5{0}
5{0}
5{0}
5{0}
5{0}
5{0}
5{0}
5{0}
5{0}
5{0}
5{0}
5{0}
5{0}
5{0}
5{0}
5{0}
5{0}
5{0}
5{0}
5{0}
5{0}
5{0}
5{0}
5{0}
5{0}
5{0}
5{0}
5{0}
5{0}
5{0}
5{0}
5{0}
5{0}
5{0}
5{0}
5{0}
5{0}
5{0}
5{0}
5{0}
5{0}
5{0}
5{0}
5{0}
5{0}
5{0}
5{0}
5{0}
5{0}
5{0}
5{0}
5{0}
5{0}
5{0}
5{0}
5{0}
5{0}
)


60
(
5{0}
5{0}
5{0}
5{0}
5{0}
5{0}
5{0}
5{0}
5{0}
5{0}
5{0}
5{0}
5{0}
5{0}
5{0}
5{0}
5{0}
5{0}
5{0}
5{0}
5{0}
5{0}
5{0}
5{0}
5{0}
5{0}
5{0}
5{0}
5{0}
5{0}
5{0}
5{0}
5{0}
5{0}
5{0}
5{0}
5{0}
5{0}
5{0}
5{0}
5{0}
5{0}
5{0}
5{0}
5{0}
5{0}
5{0}
5{0}
5{0}
5{0}
5{0}
5{0}
5{0}
5{0}
5{0}
5{0}
5{0}
5{0}
5{0}
5{0}
)


60
(
5{0}
5{0}
5{0}
5{0}
5{0}
5{0}
5{0}
5{0}
5{0}
5{0}
5{0}
5{0}
5{0}
5{0}
5{0}
5{0}
5{0}
5{0}
5{0}
5{0}
5{0}
5{0}
5{0}
5{0}
5{0}
5{0}
5{0}
5{0}
5{0}
5{0}
5{0}
5{0}
5{0}
5{0}
5{0}
5{0}
5{0}
5{0}
5{0}
5{0}
5{0}
5{0}
5{0}
5{0}
5{0}
5{0}
5{0}
5{0}
5{0}
5{0}
5{0}
5{0}
5{0}
5{0}
5{0}
5{0}
5{0}
5{0}
5{0}
5{0}
)


60
(
5{0}
5{0}
5{0}
5{0}
5{0}
5{0}
5{0}
5{0}
5{0}
5{0}
5{0}
5{0}
5{0}
5{0}
5{0}
5{0}
5{0}
5{0}
5{0}
5{0}
5{0}
5{0}
5{0}
5{0}
5{0}
5{0}
5{0}
5{0}
5{0}
5{0}
5{0}
5{0}
5{0}
5{0}
5{0}
5{0}
5{0}
5{0}
5{0}
5{0}
5{0}
5{0}
5{0}
5{0}
5{0}
5{0}
5{0}
5{0}
5{0}
5{0}
5{0}
5{0}
5{0}
5{0}
5{0}
5{0}
5{0}
5{0}
5{0}
5{0}
)


60
(
5{0}
5{0}
5{0}
5{0}
5{0}
5{0}
5{0}
5{0}
5{0}
5{0}
5{0}
5{0}
5{0}
5{0}
5{0}
5{0}
5{0}
5{0}
5{0}
5{0}
5{0}
5{0}
5{0}
5{0}
5{0}
5{0}
5{0}
5{0}
5{0}
5{0}
5{0}
5{0}
5{0}
5{0}
5{0}
5{0}
5{0}
5{0}
5{0}
5{0}
5{0}
5{0}
5{0}
5{0}
5{0}
5{0}
5{0}
5{0}
5{0}
5{0}
5{0}
5{0}
5{0}
5{0}
5{0}
5{0}
5{0}
5{0}
5{0}
5{0}
)


60
(
5{0}
5{0}
5{0}
5{0}
5{0}
5{0}
5{0}
5{0}
5{0}
5{0}
5{0}
5{0}
5{0}
5{0}
5{0}
5{0}
5{0}
5{0}
5{0}
5{0}
5{0}
5{0}
5{0}
5{0}
5{0}
5{0}
5{0}
5{0}
5{0}
5{0}
5{0}
5{0}
5{0}
5{0}
5{0}
5{0}
5{0}
5{0}
5{0}
5{0}
5{0}
5{0}
5{0}
5{0}
5{0}
5{0}
5{0}
5{0}
5{0}
5{0}
5{0}
5{0}
5{0}
5{0}
5{0}
5{0}
5{0}
5{0}
5{0}
5{0}
)


60
(
5{0}
5{0}
5{0}
5{0}
5{0}
5{0}
5{0}
5{0}
5{0}
5{0}
5{0}
5{0}
5{0}
5{0}
5{0}
5{0}
5{0}
5{0}
5{0}
5{0}
5{0}
5{0}
5{0}
5{0}
5{0}
5{0}
5{0}
5{0}
5{0}
5{0}
5{0}
5{0}
5{0}
5{0}
5{0}
5{0}
5{0}
5{0}
5{0}
5{0}
5{0}
5{0}
5{0}
5{0}
5{0}
5{0}
5{0}
5{0}
5{0}
5{0}
5{0}
5{0}
5{0}
5{0}
5{0}
5{0}
5{0}
5{0}
5{0}
5{0}
)


60
(
5{0}
5{0}
5{0}
5{0}
5{0}
5{0}
5{0}
5{0}
5{0}
5{0}
5{0}
5{0}
5{0}
5{0}
5{0}
5{0}
5{0}
5{0}
5{0}
5{0}
5{0}
5{0}
5{0}
5{0}
5{0}
5{0}
5{0}
5{0}
5{0}
5{0}
5{0}
5{0}
5{0}
5{0}
5{0}
5{0}
5{0}
5{0}
5{0}
5{0}
5{0}
5{0}
5{0}
5{0}
5{0}
5{0}
5{0}
5{0}
5{0}
5{0}
5{0}
5{0}
5{0}
5{0}
5{0}
5{0}
5{0}
5{0}
5{0}
5{0}
)


60
(
5{0}
5{0}
5{0}
5{0}
5{0}
5{0}
5{0}
5{0}
5{0}
5{0}
5{0}
5{0}
5{0}
5{0}
5{0}
5{0}
5{0}
5{0}
5{0}
5{0}
5{0}
5{0}
5{0}
5{0}
5{0}
5{0}
5{0}
5{0}
5{0}
5{0}
5{0}
5{0}
5{0}
5{0}
5{0}
5{0}
5{0}
5{0}
5{0}
5{0}
5{0}
5{0}
5{0}
5{0}
5{0}
5{0}
5{0}
5{0}
5{0}
5{0}
5{0}
5{0}
5{0}
5{0}
5{0}
5{0}
5{0}
5{0}
5{0}
5{0}
)


60
(
5{0}
5{0}
5{0}
5{0}
5{0}
5{0}
5{0}
5{0}
5{0}
5{0}
5{0}
5{0}
5{0}
5{0}
5{0}
5{0}
5{0}
5{0}
5{0}
5{0}
5{0}
5{0}
5{0}
5{0}
5{0}
5{0}
5{0}
5{0}
5{0}
5{0}
5{0}
5{0}
5{0}
5{0}
5{0}
5{0}
5{0}
5{0}
5{0}
5{0}
5{0}
5{0}
5{0}
5{0}
5{0}
5{0}
5{0}
5{0}
5{0}
5{0}
5{0}
5{0}
5{0}
5{0}
5{0}
5{0}
5{0}
5{0}
5{0}
5{0}
)


60
(
5{0}
5{0}
5{0}
5{0}
5{0}
5{0}
5{0}
5{0}
5{0}
5{0}
5{0}
5{0}
5{0}
5{0}
5{0}
5{0}
5{0}
5{0}
5{0}
5{0}
5{0}
5{0}
5{0}
5{0}
5{0}
5{0}
5{0}
5{0}
5{0}
5{0}
5{0}
5{0}
5{0}
5{0}
5{0}
5{0}
5{0}
5{0}
5{0}
5{0}
5{0}
5{0}
5{0}
5{0}
5{0}
5{0}
5{0}
5{0}
5{0}
5{0}
5{0}
5{0}
5{0}
5{0}
5{0}
5{0}
5{0}
5{0}
5{0}
5{0}
)


60
(
5{0}
5{0}
5{0}
5{0}
5{0}
5{0}
5{0}
5{0}
5{0}
5{0}
5{0}
5{0}
5{0}
5{0}
5{0}
5{0}
5{0}
5{0}
5{0}
5{0}
5{0}
5{0}
5{0}
5{0}
5{0}
5{0}
5{0}
5{0}
5{0}
5{0}
5{0}
5{0}
5{0}
5{0}
5{0}
5{0}
5{0}
5{0}
5{0}
5{0}
5{0}
5{0}
5{0}
5{0}
5{0}
5{0}
5{0}
5{0}
5{0}
5{0}
5{0}
5{0}
5{0}
5{0}
5{0}
5{0}
5{0}
5{0}
5{0}
5{0}
)


60
(
5{0}
5{0}
5{0}
5{0}
5{0}
5{0}
5{0}
5{0}
5{0}
5{0}
5{0}
5{0}
5{0}
5{0}
5{0}
5{0}
5{0}
5{0}
5{0}
5{0}
5{0}
5{0}
5{0}
5{0}
5{0}
5{0}
5{0}
5{0}
5{0}
5{0}
5{0}
5{0}
5{0}
5{0}
5{0}
5{0}
5{0}
5{0}
5{0}
5{0}
5{0}
5{0}
5{0}
5{0}
5{0}
5{0}
5{0}
5{0}
5{0}
5{0}
5{0}
5{0}
5{0}
5{0}
5{0}
5{0}
5{0}
5{0}
5{0}
5{0}
)


60
(
5{0}
5{0}
5{0}
5{0}
5{0}
5{0}
5{0}
5{0}
5{0}
5{0}
5{0}
5{0}
5{0}
5{0}
5{0}
5{0}
5{0}
5{0}
5{0}
5{0}
5{0}
5{0}
5{0}
5{0}
5{0}
5{0}
5{0}
5{0}
5{0}
5{0}
5{0}
5{0}
5{0}
5{0}
5{0}
5{0}
5{0}
5{0}
5{0}
5{0}
5{0}
5{0}
5{0}
5{0}
5{0}
5{0}
5{0}
5{0}
5{0}
5{0}
5{0}
5{0}
5{0}
5{0}
5{0}
5{0}
5{0}
5{0}
5{0}
5{0}
)


60
(
5{0}
5{0}
5{0}
5{0}
5{0}
5{0}
5{0}
5{0}
5{0}
5{0}
5{0}
5{0}
5{0}
5{0}
5{0}
5{0}
5{0}
5{0}
5{0}
5{0}
5{0}
5{0}
5{0}
5{0}
5{0}
5{0}
5{0}
5{0}
5{0}
5{0}
5{0}
5{0}
5{0}
5{0}
5{0}
5{0}
5{0}
5{0}
5{0}
5{0}
5{0}
5{0}
5{0}
5{0}
5{0}
5{0}
5{0}
5{0}
5{0}
5{0}
5{0}
5{0}
5{0}
5{0}
5{0}
5{0}
5{0}
5{0}
5{0}
5{0}
)


60
(
5{0}
5{0}
5{0}
5{0}
5{0}
5{0}
5{0}
5{0}
5{0}
5{0}
5{0}
5{0}
5{0}
5{0}
5{0}
5{0}
5{0}
5{0}
5{0}
5{0}
5{0}
5{0}
5{0}
5{0}
5{0}
5{0}
5{0}
5{0}
5{0}
5{0}
5{0}
5{0}
5{0}
5{0}
5{0}
5{0}
5{0}
5{0}
5{0}
5{0}
5{0}
5{0}
5{0}
5{0}
5{0}
5{0}
5{0}
5{0}
5{0}
5{0}
5{0}
5{0}
5{0}
5{0}
5{0}
5{0}
5{0}
5{0}
5{0}
5{0}
)


60
(
5{0}
5{0}
5{0}
5{0}
5{0}
5{0}
5{0}
5{0}
5{0}
5{0}
5{0}
5{0}
5{0}
5{0}
5{0}
5{0}
5{0}
5{0}
5{0}
5{0}
5{0}
5{0}
5{0}
5{0}
5{0}
5{0}
5{0}
5{0}
5{0}
5{0}
5{0}
5{0}
5{0}
5{0}
5{0}
5{0}
5{0}
5{0}
5{0}
5{0}
5{0}
5{0}
5{0}
5{0}
5{0}
5{0}
5{0}
5{0}
5{0}
5{0}
5{0}
5{0}
5{0}
5{0}
5{0}
5{0}
5{0}
5{0}
5{0}
5{0}
)


60
(
5{0}
5{0}
5{0}
5{0}
5{0}
5{0}
5{0}
5{0}
5{0}
5{0}
5{0}
5{0}
5{0}
5{0}
5{0}
5{0}
5{0}
5{0}
5{0}
5{0}
5{0}
5{0}
5{0}
5{0}
5{0}
5{0}
5{0}
5{0}
5{0}
5{0}
5{0}
5{0}
5{0}
5{0}
5{0}
5{0}
5{0}
5{0}
5{0}
5{0}
5{0}
5{0}
5{0}
5{0}
5{0}
5{0}
5{0}
5{0}
5{0}
5{0}
5{0}
5{0}
5{0}
5{0}
5{0}
5{0}
5{0}
5{0}
5{0}
5{0}
)


60
(
5{0}
5{0}
5{0}
5{0}
5{0}
5{0}
5{0}
5{0}
5{0}
5{0}
5{0}
5{0}
5{0}
5{0}
5{0}
5{0}
5{0}
5{0}
5{0}
5{0}
5{0}
5{0}
5{0}
5{0}
5{0}
5{0}
5{0}
5{0}
5{0}
5{0}
5{0}
5{0}
5{0}
5{0}
5{0}
5{0}
5{0}
5{0}
5{0}
5{0}
5{0}
5{0}
5{0}
5{0}
5{0}
5{0}
5{0}
5{0}
5{0}
5{0}
5{0}
5{0}
5{0}
5{0}
5{0}
5{0}
5{0}
5{0}
5{0}
5{0}
)


60
(
5{0}
5{0}
5{0}
5{0}
5{0}
5{0}
5{0}
5{0}
5{0}
5{0}
5{0}
5{0}
5{0}
5{0}
5{0}
5{0}
5{0}
5{0}
5{0}
5{0}
5{0}
5{0}
5{0}
5{0}
5{0}
5{0}
5{0}
5{0}
5{0}
5{0}
5{0}
5{0}
5{0}
5{0}
5{0}
5{0}
5{0}
5{0}
5{0}
5{0}
5{0}
5{0}
5{0}
5{0}
5{0}
5{0}
5{0}
5{0}
5{0}
5{0}
5{0}
5{0}
5{0}
5{0}
5{0}
5{0}
5{0}
5{0}
5{0}
5{0}
)


60
(
5{0}
5{0}
5{0}
5{0}
5{0}
5{0}
5{0}
5{0}
5{0}
5{0}
5{0}
5{0}
5{0}
5{0}
5{0}
5{0}
5{0}
5{0}
5{0}
5{0}
5{0}
5{0}
5{0}
5{0}
5{0}
5{0}
5{0}
5{0}
5{0}
5{0}
5{0}
5{0}
5{0}
5{0}
5{0}
5{0}
5{0}
5{0}
5{0}
5{0}
5{0}
5{0}
5{0}
5{0}
5{0}
5{0}
5{0}
5{0}
5{0}
5{0}
5{0}
5{0}
5{0}
5{0}
5{0}
5{0}
5{0}
5{0}
5{0}
5{0}
)


60
(
5{0}
5{0}
5{0}
5{0}
5{0}
5{0}
5{0}
5{0}
5{0}
5{0}
5{0}
5{0}
5{0}
5{0}
5{0}
5{0}
5{0}
5{0}
5{0}
5{0}
5{0}
5{0}
5{0}
5{0}
5{0}
5{0}
5{0}
5{0}
5{0}
5{0}
5{0}
5{0}
5{0}
5{0}
5{0}
5{0}
5{0}
5{0}
5{0}
5{0}
5{0}
5{0}
5{0}
5{0}
5{0}
5{0}
5{0}
5{0}
5{0}
5{0}
5{0}
5{0}
5{0}
5{0}
5{0}
5{0}
5{0}
5{0}
5{0}
5{0}
)


60
(
5{0}
5{0}
5{0}
5{0}
5{0}
5{0}
5{0}
5{0}
5{0}
5{0}
5{0}
5{0}
5{0}
5{0}
5{0}
5{0}
5{0}
5{0}
5{0}
5{0}
5{0}
5{0}
5{0}
5{0}
5{0}
5{0}
5{0}
5{0}
5{0}
5{0}
5{0}
5{0}
5{0}
5{0}
5{0}
5{0}
5{0}
5{0}
5{0}
5{0}
5{0}
5{0}
5{0}
5{0}
5{0}
5{0}
5{0}
5{0}
5{0}
5{0}
5{0}
5{0}
5{0}
5{0}
5{0}
5{0}
5{0}
5{0}
5{0}
5{0}
)


60
(
5{0}
5{0}
5{0}
5{0}
5{0}
5{0}
5{0}
5{0}
5{0}
5{0}
5{0}
5{0}
5{0}
5{0}
5{0}
5{0}
5{0}
5{0}
5{0}
5{0}
5{0}
5{0}
5{0}
5{0}
5{0}
5{0}
5{0}
5{0}
5{0}
5{0}
5{0}
5{0}
5{0}
5{0}
5{0}
5{0}
5{0}
5{0}
5{0}
5{0}
5{0}
5{0}
5{0}
5{0}
5{0}
5{0}
5{0}
5{0}
5{0}
5{0}
5{0}
5{0}
5{0}
5{0}
5{0}
5{0}
5{0}
5{0}
5{0}
5{0}
)


60
(
5{0}
5{0}
5{0}
5{0}
5{0}
5{0}
5{0}
5{0}
5{0}
5{0}
5{0}
5{0}
5{0}
5{0}
5{0}
5{0}
5{0}
5{0}
5{0}
5{0}
5{0}
5{0}
5{0}
5{0}
5{0}
5{0}
5{0}
5{0}
5{0}
5{0}
5{0}
5{0}
5{0}
5{0}
5{0}
5{0}
5{0}
5{0}
5{0}
5{0}
5{0}
5{0}
5{0}
5{0}
5{0}
5{0}
5{0}
5{0}
5{0}
5{0}
5{0}
5{0}
5{0}
5{0}
5{0}
5{0}
5{0}
5{0}
5{0}
5{0}
)


60
(
5{0}
5{0}
5{0}
5{0}
5{0}
5{0}
5{0}
5{0}
5{0}
5{0}
5{0}
5{0}
5{0}
5{0}
5{0}
5{0}
5{0}
5{0}
5{0}
5{0}
5{0}
5{0}
5{0}
5{0}
5{0}
5{0}
5{0}
5{0}
5{0}
5{0}
5{0}
5{0}
5{0}
5{0}
5{0}
5{0}
5{0}
5{0}
5{0}
5{0}
5{0}
5{0}
5{0}
5{0}
5{0}
5{0}
5{0}
5{0}
5{0}
5{0}
5{0}
5{0}
5{0}
5{0}
5{0}
5{0}
5{0}
5{0}
5{0}
5{0}
)


60
(
5{0}
5{0}
5{0}
5{0}
5{0}
5{0}
5{0}
5{0}
5{0}
5{0}
5{0}
5{0}
5{0}
5{0}
5{0}
5{0}
5{0}
5{0}
5{0}
5{0}
5{0}
5{0}
5{0}
5{0}
5{0}
5{0}
5{0}
5{0}
5{0}
5{0}
5{0}
5{0}
5{0}
5{0}
5{0}
5{0}
5{0}
5{0}
5{0}
5{0}
5{0}
5{0}
5{0}
5{0}
5{0}
5{0}
5{0}
5{0}
5{0}
5{0}
5{0}
5{0}
5{0}
5{0}
5{0}
5{0}
5{0}
5{0}
5{0}
5{0}
)


60
(
5{0}
5{0}
5{0}
5{0}
5{0}
5{0}
5{0}
5{0}
5{0}
5{0}
5{0}
5{0}
5{0}
5{0}
5{0}
5{0}
5{0}
5{0}
5{0}
5{0}
5{0}
5{0}
5{0}
5{0}
5{0}
5{0}
5{0}
5{0}
5{0}
5{0}
5{0}
5{0}
5{0}
5{0}
5{0}
5{0}
5{0}
5{0}
5{0}
5{0}
5{0}
5{0}
5{0}
5{0}
5{0}
5{0}
5{0}
5{0}
5{0}
5{0}
5{0}
5{0}
5{0}
5{0}
5{0}
5{0}
5{0}
5{0}
5{0}
5{0}
)


60
(
5{0}
5{0}
5{0}
5{0}
5{0}
5{0}
5{0}
5{0}
5{0}
5{0}
5{0}
5{0}
5{0}
5{0}
5{0}
5{0}
5{0}
5{0}
5{0}
5{0}
5{0}
5{0}
5{0}
5{0}
5{0}
5{0}
5{0}
5{0}
5{0}
5{0}
5{0}
5{0}
5{0}
5{0}
5{0}
5{0}
5{0}
5{0}
5{0}
5{0}
5{0}
5{0}
5{0}
5{0}
5{0}
5{0}
5{0}
5{0}
5{0}
5{0}
5{0}
5{0}
5{0}
5{0}
5{0}
5{0}
5{0}
5{0}
5{0}
5{0}
)


60
(
5{0}
5{0}
5{0}
5{0}
5{0}
5{0}
5{0}
5{0}
5{0}
5{0}
5{0}
5{0}
5{0}
5{0}
5{0}
5{0}
5{0}
5{0}
5{0}
5{0}
5{0}
5{0}
5{0}
5{0}
5{0}
5{0}
5{0}
5{0}
5{0}
5{0}
5{0}
5{0}
5{0}
5{0}
5{0}
5{0}
5{0}
5{0}
5{0}
5{0}
5{0}
5{0}
5{0}
5{0}
5{0}
5{0}
5{0}
5{0}
5{0}
5{0}
5{0}
5{0}
5{0}
5{0}
5{0}
5{0}
5{0}
5{0}
5{0}
5{0}
)


60
(
5{0}
5{0}
5{0}
5{0}
5{0}
5{0}
5{0}
5{0}
5{0}
5{0}
5{0}
5{0}
5{0}
5{0}
5{0}
5{0}
5{0}
5{0}
5{0}
5{0}
5{0}
5{0}
5{0}
5{0}
5{0}
5{0}
5{0}
5{0}
5{0}
5{0}
5{0}
5{0}
5{0}
5{0}
5{0}
5{0}
5{0}
5{0}
5{0}
5{0}
5{0}
5{0}
5{0}
5{0}
5{0}
5{0}
5{0}
5{0}
5{0}
5{0}
5{0}
5{0}
5{0}
5{0}
5{0}
5{0}
5{0}
5{0}
5{0}
5{0}
)

)
;