/*--------------------------------*- C++ -*----------------------------------*\
| =========                 |                                                 |
| \\      /  F ield         | OpenFOAM: The Open Source CFD Toolbox           |
|  \\    /   O peration     | Version:  2.3.1                                 |
|   \\  /    A nd           | Web:      www.OpenFOAM.org                      |
|    \\/     M anipulation  |                                                 |
\*---------------------------------------------------------------------------*/
FoamFile
{
    version     2.0;
    format      ascii;
    class       dictionary;
    location    "constant";
    object      PM50;
}
// * * * * * * * * * * * * * * * * * * * * * * * * * * * * * * * * * * * * * //

PM50_table
60
(

60
(
5(5.760414683e-06 2.200804236e-06 4.009737127e-06 1.686758448e-06 9.376229084e-07)
5(3.567512155e-06 7.165754748e-07 1.323010716e-06 8.55030407e-07 2.001947247e-06)
5(2.514803769e-07 1.927933648e-06 1.262597438e-06 4.597722403e-07 2.452858479e-07)
5(7.802857302e-07 2.075966241e-06 1.550077976e-06 7.470180547e-07 2.247907767e-06)
5(1.639967496e-06 1.541431362e-06 9.683948049e-07 1.006523555e-06 5.157757005e-07)
5(2.007133748e-06 9.938143654e-07 5.788338831e-07 7.323631011e-07 5.136901001e-07)
5(1.281394037e-06 9.036995958e-07 9.409397316e-07 6.631395748e-07 6.883184682e-07)
5(1.009464768e-06 9.846572896e-07 9.869902063e-07 6.134105334e-07 3.013312685e-07)
5(1.156096229e-06 8.720380969e-07 7.982277268e-07 5.539186249e-07 4.898349341e-07)
5(9.183275664e-07 7.753137825e-07 7.693751278e-07 4.387683134e-07 3.952263719e-07)
5(7.924373288e-07 6.143497278e-07 5.541063401e-07 3.619100065e-07 2.935630935e-07)
5(6.115543779e-07 4.809606599e-07 3.944601016e-07 2.817572014e-07 2.093470908e-07)
5(4.881799567e-07 3.606833565e-07 3.057403493e-07 2.075452624e-07 1.582382515e-07)
5(3.7162801e-07 2.57533386e-07 2.180265066e-07 1.379096886e-07 1.067612144e-07)
5(2.562341657e-07 1.788794749e-07 1.533187592e-07 1.020762192e-07 7.440355347e-08)
5(1.907635537e-07 1.248656036e-07 1.133985448e-07 7.190357592e-08 5.463817366e-08)
5(1.43889541e-07 9.924659523e-08 8.434977195e-08 5.602539678e-08 4.187924211e-08)
5(1.133038299e-07 8.007214594e-08 6.664834596e-08 4.384405532e-08 3.169164435e-08)
5(9.264455944e-08 6.77938893e-08 5.236433595e-08 3.520706821e-08 2.520914989e-08)
5(7.840758773e-08 5.730703208e-08 4.302659695e-08 2.999107414e-08 2.079536368e-08)
5(6.464987197e-08 4.654295718e-08 3.581397018e-08 2.473843774e-08 1.794919091e-08)
5(5.636174416e-08 4.126285457e-08 3.143133427e-08 2.137721857e-08 1.629991106e-08)
5(5.024796284e-08 3.7772626e-08 2.865997144e-08 2.151023947e-08 1.622480122e-08)
5(4.533241275e-08 3.584639623e-08 2.726180073e-08 2.0865266e-08 1.586824301e-08)
5(4.259908792e-08 3.424478841e-08 2.754317359e-08 2.199098037e-08 1.684551698e-08)
5(4.084541661e-08 3.443372239e-08 2.88072989e-08 2.392637977e-08 1.820571155e-08)
5(4.082062987e-08 3.635613367e-08 3.07546063e-08 2.715517866e-08 2.105480639e-08)
5(4.302502083e-08 4.099221296e-08 3.56145519e-08 3.188908469e-08 2.530821358e-08)
5(4.794655345e-08 4.763267036e-08 4.153958752e-08 3.866523778e-08 3.179713411e-08)
5(5.511421735e-08 5.802211794e-08 5.143737983e-08 4.866688147e-08 4.074838639e-08)
5(6.657214632e-08 7.257726925e-08 6.642726059e-08 6.389501768e-08 5.156748e-08)
5(8.194048387e-08 9.203897049e-08 8.444127594e-08 7.987993068e-08 6.473050693e-08)
5(1.044925879e-07 1.212331618e-07 1.133443589e-07 1.08050227e-07 9.259116175e-08)
5(1.36705198e-07 1.604568115e-07 1.501561184e-07 1.375249768e-07 1.060938668e-07)
5(1.793823201e-07 2.106306699e-07 1.9805038e-07 1.801634469e-07 1.422334292e-07)
5(2.374398898e-07 2.803846229e-07 2.605031218e-07 2.256500233e-07 1.775322547e-07)
5(3.085529033e-07 3.483193596e-07 3.074674517e-07 2.798220086e-07 2.011941524e-07)
5(4.03136079e-07 4.545850259e-07 4.00196942e-07 3.307845402e-07 1.99746789e-07)
5(5.183135385e-07 5.607773208e-07 4.976172394e-07 3.945088349e-07 2.171962733e-07)
5(6.516213052e-07 6.77674283e-07 5.834720988e-07 3.719297994e-07 8.690442469e-08)
5(7.725615781e-07 7.644062975e-07 6.12872729e-07 3.450073071e-07 1.361295614e-07)
5(8.948579842e-07 8.415904084e-07 6.093759491e-07 2.156203916e-07 1.498755431e-07)
5(9.92840685e-07 8.701407352e-07 5.674510416e-07 1.59257972e-07 1.812232588e-07)
5(1.064800452e-06 9.050745739e-07 5.930146761e-07 1.891702358e-07 1.465053045e-07)
5(1.042046528e-06 8.111049282e-07 4.337036826e-07 1.544210022e-07 9.935298297e-08)
5(9.52469884e-07 6.753261054e-07 2.383667389e-07 1.148364934e-07 6.120613937e-08)
5(7.826982141e-07 4.029692237e-07 9.758611406e-08 8.53050053e-08 3.252505515e-08)
5(5.577470348e-07 2.410827436e-07 8.017001146e-08 4.862229904e-08 1.479929975e-08)
5(4.000543636e-07 1.194681303e-07 4.77780412e-08 2.253783534e-08 5.75754392e-09)
5(1.80845772e-07 3.553206583e-08 2.673175975e-08 8.650880498e-09 1.977070227e-09)
5(6.958841329e-08 2.391229257e-08 9.999469847e-09 2.906151273e-09 6.01983583e-10)
5(2.2415249e-08 1.022869626e-08 3.09867499e-09 8.450483498e-10 1.653151282e-10)
5(9.760660438e-09 3.090679493e-09 8.152761312e-10 2.15966919e-10 4.041764895e-11)
5(2.513544866e-09 6.647371666e-10 1.697076003e-10 4.719733806e-11 8.87491147e-12)
5(4.452924897e-10 1.177994368e-10 2.913518115e-11 8.484150601e-12 1.553898578e-12)
5(5.03536296e-11 1.291538907e-11 3.891479292e-12 1.117447723e-12 2.180034454e-13)
5(4.184409326e-12 1.193774698e-12 2.78771934e-13 1.010604019e-13 1.78767345e-14)
5(1.874753768e-13 8.519011021e-14 1.198776925e-14 6.997631774e-13 1.219826542e-15)
5(1.475951535e-15 -1.905207396e-12 9.958530681e-15 -8.110128035e-13 8.680014585e-16)
5(1.117974311e-16 2.589535019e-16 7.567265031e-11 7.198447143e-16 1.342584929e-15)
)


60
(
5(1.038047174e-05 4.841477122e-06 6.300364304e-06 3.237933305e-06 1.720500477e-06)
5(5.595382807e-06 2.520019969e-06 3.23922976e-06 2.158759162e-06 1.203064827e-06)
5(2.279399228e-06 3.178059891e-06 2.634138283e-06 1.725790883e-06 6.725936434e-07)
5(1.489208092e-06 3.413095324e-06 3.037919564e-06 1.455330991e-06 1.657366041e-06)
5(2.140293072e-06 3.210530465e-06 2.923972277e-06 1.735162799e-06 1.299862847e-06)
5(3.673768371e-06 2.966625407e-06 2.060919971e-06 1.657997618e-06 1.068356903e-06)
5(4.058816571e-06 2.743634775e-06 2.028896504e-06 1.435113564e-06 1.129513738e-06)
5(3.127951373e-06 2.566747946e-06 2.142383863e-06 1.387180916e-06 8.494669385e-07)
5(3.261941223e-06 2.390456037e-06 1.895319126e-06 1.281621138e-06 8.534486953e-07)
5(2.861575544e-06 2.159129979e-06 1.810302904e-06 1.115006172e-06 7.808108029e-07)
5(2.540129674e-06 1.831204007e-06 1.537573817e-06 9.487821752e-07 6.718797905e-07)
5(2.102275267e-06 1.4902573e-06 1.20448926e-06 7.649095797e-07 5.346761599e-07)
5(1.62355013e-06 1.160036544e-06 9.243150267e-07 5.961111087e-07 4.165868019e-07)
5(1.293866086e-06 8.686471163e-07 6.911441186e-07 4.271125214e-07 3.031581104e-07)
5(9.263876033e-07 6.266580618e-07 4.924665152e-07 3.098398753e-07 2.165265996e-07)
5(6.890467762e-07 4.512157485e-07 3.556650772e-07 2.214274739e-07 1.55200544e-07)
5(5.117271525e-07 3.352013695e-07 2.586620342e-07 1.624561203e-07 1.144821925e-07)
5(3.908292424e-07 2.568375985e-07 1.952172964e-07 1.241363747e-07 8.696011736e-08)
5(3.058949123e-07 2.040756054e-07 1.513800057e-07 9.719106436e-08 6.832580403e-08)
5(2.487186832e-07 1.687021406e-07 1.22347614e-07 8.0056272e-08 5.550410304e-08)
5(2.047634364e-07 1.383052051e-07 9.970759247e-08 6.668738792e-08 4.667783524e-08)
5(1.709466263e-07 1.169037761e-07 8.479688551e-08 5.578517893e-08 4.001404083e-08)
5(1.484199172e-07 1.017769522e-07 7.345940003e-08 5.042921514e-08 3.671772357e-08)
5(1.27948117e-07 9.126622876e-08 6.565103423e-08 4.630927981e-08 3.418105995e-08)
5(1.144236753e-07 8.294240593e-08 6.081736971e-08 4.454936097e-08 3.341166402e-08)
5(1.035413495e-07 7.718133998e-08 5.869035568e-08 4.467893472e-08 3.378134108e-08)
5(9.634531827e-08 7.410578404e-08 5.720946688e-08 4.629565432e-08 3.576227437e-08)
5(9.178827591e-08 7.412808066e-08 5.915757769e-08 5.005976124e-08 3.965899756e-08)
5(9.108780491e-08 7.735333265e-08 6.305902877e-08 5.628384233e-08 4.623942496e-08)
5(9.297902222e-08 8.436673501e-08 7.063165936e-08 6.551205053e-08 5.593994888e-08)
5(9.912017725e-08 9.589673771e-08 8.399195488e-08 8.178494e-08 7.057679114e-08)
5(1.096394276e-07 1.128188376e-07 1.018465144e-07 1.01808845e-07 8.731275071e-08)
5(1.262548903e-07 1.388282672e-07 1.299632696e-07 1.32465329e-07 1.196862773e-07)
5(1.523081847e-07 1.762484188e-07 1.709238381e-07 1.733704725e-07 1.522049763e-07)
5(1.902366099e-07 2.269029299e-07 2.24147323e-07 2.293706328e-07 2.019257759e-07)
5(2.442856248e-07 3.011436117e-07 3.058434655e-07 3.037127886e-07 2.654096234e-07)
5(3.2020193e-07 3.868917225e-07 3.84894082e-07 3.873902176e-07 3.442444646e-07)
5(4.186272309e-07 5.125439184e-07 5.021313207e-07 5.003769778e-07 3.972427579e-07)
5(5.536164111e-07 6.602350502e-07 6.489711278e-07 6.156877667e-07 5.209333536e-07)
5(7.289367893e-07 8.398602717e-07 8.218934905e-07 7.444778223e-07 4.699230607e-07)
5(9.293765065e-07 1.022726695e-06 9.629295715e-07 8.398734469e-07 5.268559964e-07)
5(1.147753031e-06 1.214620985e-06 1.096067669e-06 8.292961524e-07 5.490539918e-07)
5(1.375211442e-06 1.364075734e-06 1.17467551e-06 7.078466484e-07 5.356205618e-07)
5(1.58000284e-06 1.490068354e-06 1.26768582e-06 6.804558483e-07 4.856881602e-07)
5(1.721933059e-06 1.504137997e-06 1.164233109e-06 5.99158165e-07 3.938321746e-07)
5(1.737245207e-06 1.425688912e-06 9.677737923e-07 4.833526159e-07 2.859886193e-07)
5(1.634164697e-06 1.208028325e-06 6.3072388e-07 3.482995891e-07 1.831377278e-07)
5(1.38988349e-06 8.871649905e-07 4.193157765e-07 2.204139045e-07 1.015214269e-07)
5(1.086537037e-06 6.180590363e-07 2.581440162e-07 1.214643097e-07 4.826693125e-08)
5(7.354165794e-07 3.075301999e-07 1.371934359e-07 5.635804633e-08 1.937444641e-08)
5(4.184344166e-07 1.56625485e-07 6.104005047e-08 2.220925875e-08 6.58183606e-09)
5(1.694025892e-07 6.553918861e-08 2.185310418e-08 7.141628958e-09 1.96510978e-09)
5(6.107881513e-08 2.181980928e-08 6.257558131e-09 1.907716948e-09 4.981356106e-10)
5(1.768865006e-08 5.402748476e-09 1.352986522e-09 3.976559779e-10 1.058780683e-10)
5(3.629306342e-09 9.515674273e-10 2.253951697e-10 6.986535956e-11 1.936853542e-11)
5(4.684513327e-10 1.151450613e-10 2.550566241e-11 8.977576162e-12 2.484487019e-12)
5(3.48858534e-11 6.950705637e-12 1.965648254e-12 6.127729116e-13 1.989033111e-13)
5(6.465356503e-13 -2.191042574e-11 9.965894203e-14 -1.828225603e-11 6.999939811e-14)
5(-4.349304313e-13 -1.269843606e-08 9.521935329e-12 -5.882437618e-09 -5.332118845e-14)
5(2.750129022e-16 2.634304261e-11 9.028753953e-11 -2.48803359e-11 2.920401025e-15)
)


60
(
5(2.318746017e-05 1.274937226e-05 1.175020938e-05 5.705673618e-06 2.291613966e-06)
5(1.747907042e-05 1.217708262e-05 8.507013628e-06 4.835434226e-06 1.95497809e-06)
5(1.565553669e-05 1.188631636e-05 7.633301844e-06 4.540777433e-06 1.992220015e-06)
5(1.546873371e-05 1.179205672e-05 7.631541411e-06 4.467505341e-06 2.080412236e-06)
5(1.591545326e-05 1.17423979e-05 7.844921503e-06 4.447919292e-06 2.151146752e-06)
5(1.633309995e-05 1.154180434e-05 7.846891512e-06 4.341427057e-06 2.142710525e-06)
5(1.597781553e-05 1.108286462e-05 7.466965328e-06 4.149909713e-06 2.056172642e-06)
5(1.504569471e-05 1.039582055e-05 6.952528351e-06 3.886146963e-06 1.942980582e-06)
5(1.388153431e-05 9.500782934e-06 6.337778391e-06 3.561554366e-06 1.82586104e-06)
5(1.256838362e-05 8.453023244e-06 5.68289953e-06 3.203498608e-06 1.68915408e-06)
5(1.093967114e-05 7.294571278e-06 4.951060196e-06 2.793790104e-06 1.518188121e-06)
5(9.285884768e-06 6.032680526e-06 4.1551067e-06 2.342074679e-06 1.311189494e-06)
5(7.516918323e-06 4.794568643e-06 3.331532796e-06 1.879799738e-06 1.07838474e-06)
5(5.844452102e-06 3.665520683e-06 2.564450652e-06 1.451708061e-06 8.537033736e-07)
5(4.37710002e-06 2.731001892e-06 1.910119841e-06 1.089979056e-06 6.509684527e-07)
5(3.253747556e-06 2.019317483e-06 1.404599926e-06 8.092825934e-07 4.913891472e-07)
5(2.421489607e-06 1.499951444e-06 1.038847934e-06 6.04823976e-07 3.719057233e-07)
5(1.826840397e-06 1.138691937e-06 7.84483118e-07 4.628922403e-07 2.882759806e-07)
5(1.42025716e-06 8.872141529e-07 6.088751458e-07 3.649037181e-07 2.302884536e-07)
5(1.130702934e-06 7.119877788e-07 4.871931433e-07 2.968754349e-07 1.895775247e-07)
5(9.234953302e-07 5.861130578e-07 4.001610989e-07 2.47928274e-07 1.607864263e-07)
5(7.668556775e-07 4.921379893e-07 3.373930156e-07 2.13322187e-07 1.405642611e-07)
5(6.505723208e-07 4.225770598e-07 2.917376798e-07 1.876195794e-07 1.262957443e-07)
5(5.619342814e-07 3.707356133e-07 2.584436943e-07 1.689883713e-07 1.16444551e-07)
5(4.933718542e-07 3.31738677e-07 2.330074637e-07 1.566014503e-07 1.096501323e-07)
5(4.424358366e-07 3.021475895e-07 2.156666738e-07 1.489982818e-07 1.069092506e-07)
5(4.028472165e-07 2.807840385e-07 2.044310625e-07 1.458592375e-07 1.077347577e-07)
5(3.749032973e-07 2.672410895e-07 1.986360243e-07 1.471276195e-07 1.11809039e-07)
5(3.541093761e-07 2.605327761e-07 1.987593761e-07 1.537620422e-07 1.214232284e-07)
5(3.421692482e-07 2.608087059e-07 2.056191771e-07 1.667848225e-07 1.362438862e-07)
5(3.386246872e-07 2.689536303e-07 2.207005068e-07 1.88420745e-07 1.606762543e-07)
5(3.442349097e-07 2.870430983e-07 2.46340394e-07 2.214864646e-07 1.95172087e-07)
5(3.604178272e-07 3.177600609e-07 2.854519734e-07 2.695748896e-07 2.441741241e-07)
5(3.907467655e-07 3.6487788e-07 3.426428055e-07 3.361244794e-07 3.109745876e-07)
5(4.377800133e-07 4.332998177e-07 4.23281045e-07 4.273334829e-07 4.029830562e-07)
5(5.073447384e-07 5.289049002e-07 5.331279459e-07 5.484062536e-07 5.170598294e-07)
5(6.061294482e-07 6.576695727e-07 6.798737548e-07 7.022876918e-07 6.632881593e-07)
5(7.465381241e-07 8.294140278e-07 8.669632429e-07 8.93141669e-07 8.38235248e-07)
5(9.307207551e-07 1.048010387e-06 1.098899312e-06 1.118313773e-06 1.02812642e-06)
5(1.168589131e-06 1.319027942e-06 1.371724161e-06 1.365338618e-06 1.218943408e-06)
5(1.468992419e-06 1.63623371e-06 1.670380619e-06 1.612909436e-06 1.375055121e-06)
5(1.8248227e-06 1.987912899e-06 1.973320937e-06 1.823162272e-06 1.476236353e-06)
5(2.232254911e-06 2.337975046e-06 2.237506245e-06 1.950880225e-06 1.491771553e-06)
5(2.647753853e-06 2.639138541e-06 2.41180156e-06 1.957956792e-06 1.413477234e-06)
5(3.029008528e-06 2.840014617e-06 2.43920255e-06 1.829665079e-06 1.239480658e-06)
5(3.296345347e-06 2.878458827e-06 2.284896614e-06 1.57808746e-06 9.880592754e-07)
5(3.375680677e-06 2.71694653e-06 1.953417995e-06 1.243208891e-06 7.098877973e-07)
5(3.223550752e-06 2.34204786e-06 1.513588009e-06 8.77209974e-07 4.500587398e-07)
5(2.823695377e-06 1.813674337e-06 1.039839784e-06 5.467314369e-07 2.500209478e-07)
5(2.224563746e-06 1.238178193e-06 6.160964601e-07 2.930281208e-07 1.186781715e-07)
5(1.545582711e-06 7.253017869e-07 3.137361302e-07 1.343090623e-07 4.734948708e-08)
5(9.186950384e-07 3.494400578e-07 1.318159221e-07 4.97564974e-08 1.538570464e-08)
5(4.361316094e-07 1.362093643e-07 4.350542512e-08 1.491577725e-08 4.23450828e-09)
5(1.599831987e-07 4.019944226e-08 1.058505941e-08 3.478058129e-09 9.373150454e-10)
5(4.345919867e-08 8.241225225e-09 1.781146866e-09 5.899614345e-10 1.630096565e-10)
5(6.830224184e-09 1.041675485e-09 2.093174691e-10 7.164538677e-11 2.279425499e-11)
5(4.346796684e-10 8.939704244e-11 1.32230813e-11 7.629565139e-12 1.747901476e-12)
5(2.014532677e-11 5.577928175e-11 -5.617080444e-13 4.28371722e-10 1.678139811e-12)
5(-4.870056924e-09 5.809126043e-08 -1.377378087e-10 5.609548102e-08 7.218121102e-10)
5(1.031738167e-14 4.791345231e-09 -3.724744528e-11 8.795010608e-10 7.194951826e-15)
)


60
(
5(3.893232675e-05 2.21658489e-05 1.691352162e-05 7.695418165e-06 2.662545298e-06)
5(3.281270154e-05 2.195516366e-05 1.378381942e-05 6.941670706e-06 2.419738937e-06)
5(3.086778307e-05 2.159693693e-05 1.293641192e-05 6.690034794e-06 2.547866505e-06)
5(3.05473059e-05 2.140336713e-05 1.285825325e-05 6.616712836e-06 2.697520247e-06)
5(3.111548259e-05 2.117524562e-05 1.294141085e-05 6.570917781e-06 2.819638786e-06)
5(3.124467525e-05 2.065862945e-05 1.273550573e-05 6.434610004e-06 2.857312418e-06)
5(3.038639205e-05 1.97649069e-05 1.215217305e-05 6.193777149e-06 2.808035533e-06)
5(2.868092946e-05 1.858132896e-05 1.138193571e-05 5.873837211e-06 2.723202434e-06)
5(2.662108637e-05 1.715125062e-05 1.051992572e-05 5.501101739e-06 2.62155019e-06)
5(2.422217739e-05 1.54797189e-05 9.55277873e-06 5.05736815e-06 2.495812039e-06)
5(2.132400119e-05 1.352233012e-05 8.475693235e-06 4.531530544e-06 2.307446894e-06)
5(1.822319902e-05 1.1438662e-05 7.270752147e-06 3.923177069e-06 2.059630189e-06)
5(1.503986255e-05 9.321052515e-06 6.008299976e-06 3.272483424e-06 1.765011034e-06)
5(1.198062974e-05 7.319318172e-06 4.775954765e-06 2.629548381e-06 1.453636271e-06)
5(9.176144978e-06 5.582283319e-06 3.687745469e-06 2.050048613e-06 1.16370079e-06)
5(6.882002011e-06 4.191798857e-06 2.790406345e-06 1.570541799e-06 9.117419562e-07)
5(5.156399746e-06 3.142980505e-06 2.096936998e-06 1.202061206e-06 7.093925573e-07)
5(3.882114554e-06 2.385308489e-06 1.593295372e-06 9.334928135e-07 5.603801235e-07)
5(2.993170721e-06 1.853235434e-06 1.24227917e-06 7.394846419e-07 4.522243327e-07)
5(2.364347176e-06 1.47793351e-06 9.935168023e-07 6.031521185e-07 3.757250917e-07)
5(1.907698979e-06 1.209645383e-06 8.168425181e-07 5.051189131e-07 3.195499887e-07)
5(1.583140967e-06 1.013462716e-06 6.88682833e-07 4.334745373e-07 2.800487746e-07)
5(1.337026671e-06 8.680832323e-07 5.949913541e-07 3.815090482e-07 2.505123228e-07)
5(1.155234556e-06 7.587413615e-07 5.247089224e-07 3.424652595e-07 2.289525154e-07)
5(1.007244255e-06 6.757928288e-07 4.719059751e-07 3.136484719e-07 2.132845668e-07)
5(9.011806002e-07 6.128404263e-07 4.325066014e-07 2.9288536e-07 2.031113168e-07)
5(8.134077001e-07 5.616200876e-07 4.031783048e-07 2.789776986e-07 1.971650484e-07)
5(7.473790353e-07 5.253024459e-07 3.826182798e-07 2.710931848e-07 1.957301739e-07)
5(6.99073783e-07 4.987249454e-07 3.690616146e-07 2.689749936e-07 1.998610383e-07)
5(6.625127068e-07 4.813097201e-07 3.635587846e-07 2.737220178e-07 2.095229423e-07)
5(6.366944273e-07 4.732006083e-07 3.666980798e-07 2.862230161e-07 2.283093843e-07)
5(6.201223479e-07 4.731485112e-07 3.786724758e-07 3.097336521e-07 2.586343796e-07)
5(6.145653561e-07 4.846965134e-07 4.035370722e-07 3.467809828e-07 3.001046297e-07)
5(6.210033224e-07 5.125555659e-07 4.448052874e-07 4.026193419e-07 3.61148668e-07)
5(6.440514179e-07 5.566605367e-07 5.058394572e-07 4.815990569e-07 4.477208976e-07)
5(6.845461184e-07 6.248863979e-07 5.963932943e-07 5.901459483e-07 5.623643981e-07)
5(7.480966515e-07 7.24842159e-07 7.239064104e-07 7.362748285e-07 7.128743755e-07)
5(8.51813e-07 8.655052232e-07 8.967862557e-07 9.276306426e-07 9.065732486e-07)
5(9.947726413e-07 1.058071322e-06 1.123706549e-06 1.167219363e-06 1.135076927e-06)
5(1.199582177e-06 1.312433012e-06 1.40625001e-06 1.452359093e-06 1.385608338e-06)
5(1.475290928e-06 1.636875133e-06 1.746335821e-06 1.770195866e-06 1.63739831e-06)
5(1.83268763e-06 2.028592814e-06 2.126512347e-06 2.088826238e-06 1.854628141e-06)
5(2.27938511e-06 2.471523817e-06 2.515276439e-06 2.357361225e-06 1.990473033e-06)
5(2.799770463e-06 2.927182235e-06 2.857594365e-06 2.523168835e-06 2.021294721e-06)
5(3.352041533e-06 3.33436821e-06 3.076325932e-06 2.53773234e-06 1.918489803e-06)
5(3.867054614e-06 3.624365206e-06 3.109502609e-06 2.378622858e-06 1.683526228e-06)
5(4.279476875e-06 3.707249741e-06 2.905625609e-06 2.063737878e-06 1.344115525e-06)
5(4.466965154e-06 3.527371246e-06 2.477330642e-06 1.624448283e-06 9.65007641e-07)
5(4.344677479e-06 3.06158299e-06 1.9072283e-06 1.14202441e-06 6.124721548e-07)
5(3.903147964e-06 2.388784672e-06 1.297162426e-06 7.10515286e-07 3.364074644e-07)
5(3.173509044e-06 1.634251135e-06 7.613458609e-07 3.765105387e-07 1.575588026e-07)
5(2.296929336e-06 9.456484127e-07 3.742501228e-07 1.675860308e-07 6.232008597e-08)
5(1.434119383e-06 4.650398025e-07 1.484641072e-07 5.868124848e-08 1.87620889e-08)
5(7.357289222e-07 1.828966853e-07 4.448543716e-08 1.588597254e-08 4.895540919e-09)
5(2.813023126e-07 5.066914982e-08 9.547175561e-09 3.004627213e-09 8.96922895e-10)
5(9.057466746e-08 9.852750487e-09 1.285723463e-09 3.901736936e-10 1.008528475e-10)
5(1.685978153e-08 1.127286877e-09 8.051662114e-11 3.197812074e-11 9.418759862e-12)
5(1.599048453e-09 7.073972306e-09 -2.282206807e-11 9.712965208e-10 -1.968530373e-11)
5(3.968805252e-08 4.814850685e-08 6.440271256e-10 2.830623353e-08 -1.008673394e-08)
5(1.727087302e-10 -2.630327794e-08 6.779932269e-10 -1.228531514e-08 -1.397763331e-14)
)


60
(
5(5.646152657e-05 3.247610318e-05 2.135438549e-05 9.174635628e-06 2.929600381e-06)
5(5.049527014e-05 3.229086155e-05 1.847307464e-05 8.517245248e-06 2.744429072e-06)
5(4.814932769e-05 3.163736103e-05 1.768092238e-05 8.331059852e-06 2.966647662e-06)
5(4.770566994e-05 3.112830301e-05 1.751836055e-05 8.289911107e-06 3.207902155e-06)
5(4.799726967e-05 3.05955266e-05 1.740790953e-05 8.260326344e-06 3.404182025e-06)
5(4.766920769e-05 2.973318105e-05 1.700592317e-05 8.145452241e-06 3.501195057e-06)
5(4.597099482e-05 2.847656525e-05 1.628834192e-05 7.92811707e-06 3.50518752e-06)
5(4.356833147e-05 2.683879259e-05 1.53846512e-05 7.634729239e-06 3.468317918e-06)
5(4.042880924e-05 2.489089495e-05 1.439197848e-05 7.278416967e-06 3.411086342e-06)
5(3.699617466e-05 2.267811819e-05 1.326113805e-05 6.83464119e-06 3.308706621e-06)
5(3.299830814e-05 2.015971095e-05 1.196759169e-05 6.268173142e-06 3.132651972e-06)
5(2.861530376e-05 1.739217496e-05 1.049423893e-05 5.581684977e-06 2.867968601e-06)
5(2.393310722e-05 1.451156158e-05 8.907968664e-06 4.806327743e-06 2.539244522e-06)
5(1.940629554e-05 1.172305921e-05 7.301303132e-06 3.99805116e-06 2.160790534e-06)
5(1.523569618e-05 9.189523211e-06 5.80574617e-06 3.224089645e-06 1.78828448e-06)
5(1.164102147e-05 7.039194752e-06 4.517662286e-06 2.547114788e-06 1.446236887e-06)
5(8.796717533e-06 5.344555168e-06 3.476998188e-06 1.994562785e-06 1.15801163e-06)
5(6.713981001e-06 4.083871014e-06 2.680138919e-06 1.568594172e-06 9.329127964e-07)
5(5.149129096e-06 3.176366944e-06 2.09922214e-06 1.256781338e-06 7.615767448e-07)
5(4.025366605e-06 2.528578432e-06 1.684030701e-06 1.029775305e-06 6.398552518e-07)
5(3.244560794e-06 2.063136963e-06 1.387365032e-06 8.659817237e-07 5.471959592e-07)
5(2.670834116e-06 1.72577802e-06 1.170737685e-06 7.455752503e-07 4.788892886e-07)
5(2.257524923e-06 1.475543979e-06 1.012441571e-06 6.564567516e-07 4.288733092e-07)
5(1.938154669e-06 1.287412927e-06 8.925835098e-07 5.89843368e-07 3.917377305e-07)
5(1.696100215e-06 1.143158231e-06 8.030715347e-07 5.395597381e-07 3.651461765e-07)
5(1.510399803e-06 1.033011198e-06 7.351925931e-07 5.012813065e-07 3.443666087e-07)
5(1.370657076e-06 9.483001094e-07 6.825930657e-07 4.727316796e-07 3.295217935e-07)
5(1.25428528e-06 8.824622186e-07 6.421512325e-07 4.523022006e-07 3.215101208e-07)
5(1.162112625e-06 8.302054385e-07 6.116889697e-07 4.383202526e-07 3.16539471e-07)
5(1.093835337e-06 7.897587983e-07 5.906427114e-07 4.315318318e-07 3.189040748e-07)
5(1.039477063e-06 7.609104738e-07 5.776261526e-07 4.321046789e-07 3.282098035e-07)
5(9.978446549e-07 7.41333899e-07 5.724447477e-07 4.408151078e-07 3.468779945e-07)
5(9.663498349e-07 7.310133349e-07 5.792098822e-07 4.608244034e-07 3.760981009e-07)
5(9.421813746e-07 7.30677586e-07 5.971014512e-07 4.966846899e-07 4.266962543e-07)
5(9.351753452e-07 7.433423389e-07 6.323824726e-07 5.522833941e-07 4.928442151e-07)
5(9.406305637e-07 7.763317277e-07 6.916695827e-07 6.356867578e-07 5.939383547e-07)
5(9.641719271e-07 8.368149536e-07 7.82361134e-07 7.561855909e-07 7.288638448e-07)
5(1.013196852e-06 9.317514689e-07 9.184115559e-07 9.206664917e-07 9.091493398e-07)
5(1.101287632e-06 1.073431535e-06 1.106611486e-06 1.140459981e-06 1.145903083e-06)
5(1.24654496e-06 1.277728328e-06 1.361651905e-06 1.422998561e-06 1.425253296e-06)
5(1.455934616e-06 1.560841948e-06 1.692476109e-06 1.764545969e-06 1.729183786e-06)
5(1.765953311e-06 1.934135344e-06 2.097222677e-06 2.14595491e-06 2.044606253e-06)
5(2.177189855e-06 2.398532761e-06 2.559683939e-06 2.528920113e-06 2.304529283e-06)
5(2.703676689e-06 2.93645803e-06 3.036856663e-06 2.85449414e-06 2.476269803e-06)
5(3.33253359e-06 3.510944703e-06 3.457905366e-06 3.054668056e-06 2.506049997e-06)
5(4.020638032e-06 4.049964993e-06 3.734315042e-06 3.072110044e-06 2.373532122e-06)
5(4.655618964e-06 4.44786518e-06 3.77886042e-06 2.875432136e-06 2.065396359e-06)
5(5.23867463e-06 4.604197341e-06 3.52555802e-06 2.486245232e-06 1.639297031e-06)
5(5.558244363e-06 4.434775679e-06 3.013355375e-06 1.944942664e-06 1.160856353e-06)
5(5.527475582e-06 3.914898817e-06 2.31884164e-06 1.34910533e-06 7.204984659e-07)
5(5.117751628e-06 3.098730592e-06 1.563012698e-06 8.15913169e-07 3.854189128e-07)
5(4.30914484e-06 2.204781269e-06 9.030539898e-07 4.197482921e-07 1.763397544e-07)
5(3.23501431e-06 1.307276946e-06 4.394405692e-07 1.729129394e-07 6.37456004e-08)
5(2.182467585e-06 6.552763688e-07 1.642612156e-07 5.787502327e-08 1.85725531e-08)
5(1.189189041e-06 2.657187155e-07 4.503104034e-08 1.355459676e-08 3.745264309e-09)
5(5.881698956e-07 7.853345602e-08 7.10276864e-09 2.043861806e-09 5.220419921e-10)
5(2.060466541e-07 1.977905905e-08 1.063716325e-09 1.823616282e-10 3.620334746e-11)
5(5.889081631e-08 8.996927151e-09 6.137660013e-11 1.530660534e-09 -1.34866186e-11)
5(3.977451653e-08 -6.470224007e-08 -1.858142411e-09 -5.646301361e-08 -5.500002211e-09)
5(1.477483033e-08 -1.739239797e-08 2.093375405e-09 -7.030678975e-09 2.128227862e-12)
)


60
(
5(7.480953054e-05 4.28785276e-05 2.504127216e-05 1.025212482e-05 3.157692087e-06)
5(6.886201176e-05 4.236008701e-05 2.233564576e-05 9.631690484e-06 2.987341009e-06)
5(6.591719247e-05 4.107587594e-05 2.155000445e-05 9.512031426e-06 3.290669632e-06)
5(6.516628704e-05 4.007869148e-05 2.12932524e-05 9.535317466e-06 3.62121899e-06)
5(6.49634146e-05 3.918853171e-05 2.104047127e-05 9.572770716e-06 3.917159691e-06)
5(6.399748719e-05 3.802153973e-05 2.053412225e-05 9.528743966e-06 4.09159825e-06)
5(6.138400735e-05 3.63974903e-05 1.976296447e-05 9.388072257e-06 4.14435444e-06)
5(5.814516324e-05 3.445754805e-05 1.882909021e-05 9.175711736e-06 4.174144024e-06)
5(5.421560562e-05 3.217420417e-05 1.781311915e-05 8.891139062e-06 4.173159818e-06)
5(4.988668917e-05 2.956706386e-05 1.665245094e-05 8.496032181e-06 4.118653504e-06)
5(4.498949308e-05 2.668550254e-05 1.529644371e-05 7.960540757e-06 3.974789711e-06)
5(3.957835145e-05 2.345675208e-05 1.370165927e-05 7.26407475e-06 3.725337423e-06)
5(3.361786478e-05 2.003835038e-05 1.191628707e-05 6.427433874e-06 3.38001411e-06)
5(2.767476477e-05 1.657795587e-05 1.004732669e-05 5.50853441e-06 2.964837818e-06)
5(2.219049697e-05 1.331714998e-05 8.216185135e-06 4.580226191e-06 2.526066088e-06)
5(1.733168311e-05 1.044667663e-05 6.553583313e-06 3.720146901e-06 2.094629033e-06)
5(1.334000106e-05 8.083084639e-06 5.155254017e-06 2.983622785e-06 1.721133978e-06)
5(1.018651711e-05 6.248363423e-06 4.042616337e-06 2.386365018e-06 1.410309798e-06)
5(7.839449105e-06 4.877340547e-06 3.194812204e-06 1.932625194e-06 1.172866566e-06)
5(6.159701599e-06 3.886620199e-06 2.576574482e-06 1.593643422e-06 9.858073336e-07)
5(4.960838988e-06 3.169147599e-06 2.126227891e-06 1.345117296e-06 8.514994258e-07)
5(4.061784049e-06 2.646687397e-06 1.79893572e-06 1.161162866e-06 7.502793396e-07)
5(3.409858177e-06 2.259237204e-06 1.556386644e-06 1.023383954e-06 6.721912427e-07)
5(2.934293872e-06 1.969478509e-06 1.375153439e-06 9.202204746e-07 6.160010222e-07)
5(2.570321457e-06 1.749100688e-06 1.238146822e-06 8.417886576e-07 5.734371833e-07)
5(2.278626273e-06 1.577103359e-06 1.131358212e-06 7.819917657e-07 5.384547709e-07)
5(2.066673347e-06 1.447713716e-06 1.049306717e-06 7.355757054e-07 5.145467941e-07)
5(1.889699372e-06 1.345088619e-06 9.858365301e-07 6.992660216e-07 4.966967528e-07)
5(1.758322875e-06 1.261610463e-06 9.350756028e-07 6.718508485e-07 4.822861544e-07)
5(1.643561543e-06 1.194859513e-06 8.949583793e-07 6.518230294e-07 4.762187642e-07)
5(1.562243546e-06 1.142925926e-06 8.637686973e-07 6.378887848e-07 4.745766819e-07)
5(1.480477621e-06 1.100502792e-06 8.402077361e-07 6.301119584e-07 4.787491993e-07)
5(1.418956786e-06 1.065751022e-06 8.24339848e-07 6.321517072e-07 4.936823365e-07)
5(1.369927721e-06 1.037333542e-06 8.184718666e-07 6.454778936e-07 5.240603773e-07)
5(1.325834012e-06 1.019620279e-06 8.263009522e-07 6.748750036e-07 5.72069167e-07)
5(1.291550996e-06 1.015709636e-06 8.507812307e-07 7.271922567e-07 6.439863608e-07)
5(1.273242221e-06 1.029542462e-06 8.981669291e-07 8.105908875e-07 7.558041869e-07)
5(1.272976363e-06 1.070602128e-06 9.830846665e-07 9.330438971e-07 9.072608764e-07)
5(1.300111764e-06 1.151085201e-06 1.117853678e-06 1.111119883e-06 1.115495328e-06)
5(1.368227173e-06 1.288492487e-06 1.32020432e-06 1.358942412e-06 1.395206467e-06)
5(1.501442367e-06 1.503948245e-06 1.603806811e-06 1.68178363e-06 1.723433722e-06)
5(1.718956266e-06 1.815502764e-06 1.982857823e-06 2.081434363e-06 2.085625686e-06)
5(2.039159589e-06 2.240299077e-06 2.459723487e-06 2.532450856e-06 2.462621325e-06)
5(2.504282445e-06 2.789334042e-06 3.015389029e-06 2.984781653e-06 2.772339807e-06)
5(3.105900892e-06 3.441971542e-06 3.606340049e-06 3.375303073e-06 2.983279442e-06)
5(3.840817835e-06 4.155600255e-06 4.1336509e-06 3.619000102e-06 3.00255431e-06)
5(4.655295748e-06 4.84923003e-06 4.489597295e-06 3.644058838e-06 2.823706031e-06)
5(5.44792424e-06 5.38768091e-06 4.568725111e-06 3.422461741e-06 2.435966239e-06)
5(6.163930524e-06 5.651195257e-06 4.309736647e-06 2.943195208e-06 1.918527853e-06)
5(6.626538371e-06 5.518022752e-06 3.719301603e-06 2.288213065e-06 1.337488386e-06)
5(6.726556381e-06 4.949867652e-06 2.892151364e-06 1.579726945e-06 8.118498056e-07)
5(6.383549402e-06 4.04890581e-06 1.975081069e-06 9.481685215e-07 4.142472242e-07)
5(5.651420193e-06 2.933028797e-06 1.172709921e-06 4.695358825e-07 1.826124439e-07)