/*--------------------------------*- C++ -*----------------------------------*\
| =========                 |                                                 |
| \\      /  F ield         | OpenFOAM: The Open Source CFD Toolbox           |
|  \\    /   O peration     | Version:  2.3.1                                 |
|   \\  /    A nd           | Web:      www.OpenFOAM.org                      |
|    \\/     M anipulation  |                                                 |
\*---------------------------------------------------------------------------*/
FoamFile
{
    version     2.0;
    format      ascii;
    class       dictionary;
    location    "constant";
    object      PM55;
}
// * * * * * * * * * * * * * * * * * * * * * * * * * * * * * * * * * * * * * //

PM55_table
60
(

60
(
5(1.217543861e-09 2.224512573e-08 2.106759328e-08 1.298586258e-08 4.259641511e-07)
5(5.545163966e-07 -1.151300029e-08 -2.145955012e-08 -1.839993082e-08 5.160456964e-07)
5(5.606558357e-07 -7.347425428e-08 -2.012181039e-08 -4.785184207e-09 -3.330958651e-08)
5(5.155119002e-07 -1.809175927e-07 -2.304246422e-08 -4.019853764e-08 -6.512604607e-08)
5(3.617119187e-07 -2.815181387e-07 -2.449337266e-08 -6.22206698e-08 -8.214542532e-08)
5(-8.586034206e-08 -2.965850094e-07 -3.702639223e-08 -7.970375671e-08 -1.985870559e-07)
5(-4.291876524e-07 -3.545547371e-08 -6.903996903e-08 -1.14898214e-07 -3.10501739e-07)
5(4.552251049e-07 -5.045409398e-08 -8.949096393e-08 -1.477465186e-07 -2.634375455e-07)
5(7.752003323e-07 -3.311613894e-07 -1.103854647e-07 -1.940696188e-07 -5.02627563e-07)
5(4.427340064e-07 -5.047296034e-07 -1.473840973e-07 -2.44531449e-07 -6.264061924e-07)
5(-3.270917076e-07 -5.787528543e-07 -1.816708394e-07 -3.18669619e-07 -7.605062768e-07)
5(-7.833618145e-07 -2.97964527e-07 -2.297654896e-07 -4.07270231e-07 -9.231446087e-07)
5(-3.232903242e-07 -1.747583429e-07 -3.014715213e-07 -5.025208729e-07 -1.138867228e-06)
5(-1.098332973e-07 -2.173762143e-07 -3.732930317e-07 -6.027179359e-07 -1.335088233e-06)
5(-1.164964759e-07 -2.66532676e-07 -4.606516417e-07 -7.406883135e-07 -1.555402053e-06)
5(-1.486893777e-07 -3.421196635e-07 -5.657284347e-07 -8.69149023e-07 -1.802217107e-06)
5(-2.297583505e-07 -4.285152407e-07 -6.871550827e-07 -1.027773365e-06 -2.050954346e-06)
5(-2.964581398e-07 -5.229720091e-07 -8.316565634e-07 -1.188745911e-06 -2.251200255e-06)
5(-3.619202415e-07 -6.415522724e-07 -9.88594909e-07 -1.369795882e-06 -2.46495966e-06)
5(-4.478910431e-07 -7.792770389e-07 -1.166917142e-06 -1.562831114e-06 -2.648131008e-06)
5(-5.593526271e-07 -9.44880589e-07 -1.379603956e-06 -1.750776647e-06 -2.867350586e-06)
5(-7.070425428e-07 -1.164362522e-06 -1.635371388e-06 -2.017607156e-06 -3.178882093e-06)
5(-8.85064814e-07 -1.433356134e-06 -1.960622078e-06 -2.384738103e-06 -3.530534204e-06)
5(-1.115637269e-06 -1.765762889e-06 -2.367514488e-06 -2.776441571e-06 -3.909175012e-06)
5(-1.416486913e-06 -2.170353885e-06 -2.907024048e-06 -3.320978018e-06 -4.462330053e-06)
5(-1.794629198e-06 -2.756805139e-06 -3.607585052e-06 -4.015538043e-06 -5.171229676e-06)
5(-2.335655708e-06 -3.606004112e-06 -4.551457261e-06 -4.992073622e-06 -6.2204484e-06)
5(-3.102512113e-06 -4.74939588e-06 -5.860545698e-06 -6.328746721e-06 -7.67895098e-06)
5(-4.141644022e-06 -6.247138438e-06 -7.66521257e-06 -8.23155685e-06 -9.741290385e-06)
5(-5.583448143e-06 -8.365836569e-06 -1.022166209e-05 -1.092985981e-05 -1.261116162e-05)
5(-7.665318711e-06 -1.134059843e-05 -1.379709683e-05 -1.457889686e-05 -1.626832391e-05)
5(-1.062734498e-05 -1.553494384e-05 -1.865729658e-05 -1.940106468e-05 -2.124912778e-05)
5(-1.48651968e-05 -2.129705216e-05 -2.533037709e-05 -2.616111987e-05 -2.813493665e-05)
5(-2.082895828e-05 -2.910862609e-05 -3.396485148e-05 -3.422904146e-05 -3.508491386e-05)
5(-2.916198082e-05 -3.955642648e-05 -4.525760285e-05 -4.452843536e-05 -4.472731937e-05)
5(-4.055855094e-05 -5.29975964e-05 -5.896515924e-05 -5.605859156e-05 -5.438238531e-05)
5(-5.574805964e-05 -7.006642986e-05 -7.584950306e-05 -6.963178885e-05 -6.195222063e-05)
5(-7.524596689e-05 -9.009014589e-05 -9.505114156e-05 -8.045967836e-05 -6.720241319e-05)
5(-9.906188184e-05 -0.0001126304522 -0.0001136186689 -9.389565197e-05 -6.537639524e-05)
5(-0.0001265306596 -0.0001363533266 -0.0001299716284 -8.668802689e-05 -1.204305637e-05)
5(-0.0001560787541 -0.0001578995151 -0.0001413120312 -7.945333553e-05 -4.685432443e-05)
5(-0.0001847071755 -0.0001737820555 -0.0001402666192 -4.931170118e-05 -4.713049591e-05)
5(-0.0002070378592 -0.000180464566 -0.0001259345023 -5.309391168e-05 -4.4372501e-05)
5(-0.0002200570742 -0.000175623872 -0.0001110725673 -5.41083172e-05 -3.068114338e-05)
5(-0.0002160905686 -0.000156858338 -8.522751071e-05 -3.859979326e-05 -1.877158962e-05)
5(-0.0001974206886 -0.0001262921392 -4.624407184e-05 -2.470118098e-05 -9.970658147e-06)
5(-0.0001606203974 -8.037992888e-05 -2.603327671e-05 -1.502108822e-05 -4.581549553e-06)
5(-0.0001145564484 -5.101087146e-05 -2.062944882e-05 -7.251522696e-06 -1.837572886e-06)
5(-7.681781973e-05 -2.280465124e-05 -1.051141138e-05 -2.929339184e-06 -6.839017701e-07)
5(-2.765973453e-05 -9.390685999e-06 -4.819761812e-06 -1.035278873e-06 -2.784496397e-07)
5(-1.050668097e-05 -5.151342854e-06 -1.67502285e-06 -3.758049738e-07 -1.449317572e-07)
5(-5.571878784e-06 -1.916460964e-06 -5.673833114e-07 -1.673446358e-07 -9.516697173e-08)
5(-2.192177247e-06 -6.182894274e-07 -2.400408262e-07 -9.685738196e-08 -6.732379011e-08)
5(-6.568335755e-07 -2.384940844e-07 -1.38070095e-07 -6.029555255e-08 -4.402672733e-08)
5(-2.575077007e-07 -1.335913957e-07 -9.059317153e-08 -2.990250172e-08 -1.971327318e-08)
5(-1.413556195e-07 -7.961903524e-08 -5.138727311e-08 2.148882732e-09 7.44587937e-09)
5(-6.471255847e-08 -3.292294642e-08 -9.305323477e-09 4.065921806e-08 3.555254141e-08)
5(2.042117025e-08 3.046699251e-08 4.400564343e-08 1.044383249e-07 6.82731799e-08)
5(1.237095461e-07 1.345333763e-07 1.48906323e-07 3.644449395e-08 9.876568263e-08)
5(1.219235248e-07 2.275695062e-07 2.868971844e-07 3.873615877e-07 5.025131822e-07)
)


60
(
5(-1.074139733e-08 -7.548022508e-09 -3.05866975e-08 -8.344123775e-09 -1.551393966e-07)
5(-1.35794693e-08 -1.500298542e-08 -3.822592354e-08 -4.41790356e-08 -2.320478706e-07)
5(9.390980794e-08 -1.812612457e-08 -2.987376694e-08 -4.922136178e-08 -1.420398397e-07)
5(3.03742508e-07 -2.130018188e-08 -3.156363075e-08 -5.499161329e-08 -1.428062727e-07)
5(3.905583595e-07 -2.621938017e-08 -4.211614448e-08 -7.247241529e-08 -2.104295677e-07)
5(2.914972377e-07 -3.285614289e-08 -5.064523079e-08 -9.137917032e-08 -2.861978682e-07)
5(-2.393143831e-08 -4.176932948e-08 -6.998351244e-08 -1.12250068e-07 -4.014521051e-07)
5(-2.818142498e-08 -5.380881954e-08 -9.706058584e-08 -1.487922912e-07 -4.597240343e-07)
5(2.850322822e-07 -6.999686123e-08 -1.20990143e-07 -1.932247657e-07 -5.906869661e-07)
5(4.738289026e-07 -8.928189164e-08 -1.577659826e-07 -2.405831354e-07 -7.223749783e-07)
5(4.951457037e-07 -1.136456641e-07 -2.005640192e-07 -3.024221496e-07 -9.013098306e-07)
5(1.045726742e-07 -1.459213452e-07 -2.51048658e-07 -3.766184887e-07 -1.0786032e-06)
5(-9.669629933e-08 -1.836982827e-07 -3.13799181e-07 -4.662902723e-07 -1.284646542e-06)
5(-1.254396491e-07 -2.299661504e-07 -3.926084092e-07 -5.672412489e-07 -1.508838662e-06)
5(-1.59260954e-07 -2.872676875e-07 -4.84942791e-07 -6.904642382e-07 -1.745868953e-06)
5(-1.886879749e-07 -3.53836746e-07 -5.957716586e-07 -8.285105084e-07 -1.991906248e-06)
5(-2.431854455e-07 -4.381833984e-07 -7.224524362e-07 -9.818481203e-07 -2.248375873e-06)
5(-3.204145959e-07 -5.380170843e-07 -8.698150806e-07 -1.155268473e-06 -2.512996447e-06)
5(-4.093772893e-07 -6.559491603e-07 -1.037223848e-06 -1.345274047e-06 -2.770460789e-06)
5(-5.119523018e-07 -7.9332739e-07 -1.226324029e-06 -1.553766062e-06 -3.011045047e-06)
5(-6.379645513e-07 -9.524397015e-07 -1.432139087e-06 -1.7721334e-06 -3.22533412e-06)
5(-7.871588695e-07 -1.134652722e-06 -1.663180044e-06 -2.012090774e-06 -3.475630613e-06)
5(-9.652221275e-07 -1.338406972e-06 -1.913456272e-06 -2.256412754e-06 -3.708314081e-06)
5(-1.160950519e-06 -1.56398442e-06 -2.183616337e-06 -2.522375404e-06 -3.946737726e-06)
5(-1.398066904e-06 -1.814727955e-06 -2.483226909e-06 -2.813994625e-06 -4.208237598e-06)
5(-1.650615581e-06 -2.082864082e-06 -2.809107237e-06 -3.139349239e-06 -4.531695138e-06)
5(-1.934581602e-06 -2.398350737e-06 -3.167532238e-06 -3.525454675e-06 -4.951127298e-06)
5(-2.253444918e-06 -2.759160857e-06 -3.585614635e-06 -4.030500524e-06 -5.555708834e-06)
5(-2.600934769e-06 -3.171452835e-06 -4.120470302e-06 -4.73912504e-06 -6.442168141e-06)
5(-3.006357557e-06 -3.681058641e-06 -4.865118607e-06 -5.771960152e-06 -7.813216936e-06)
5(-3.502361601e-06 -4.407415599e-06 -5.99753442e-06 -7.365145813e-06 -9.91732744e-06)
5(-4.224922711e-06 -5.568549124e-06 -7.787743815e-06 -9.89038611e-06 -1.311619632e-05)
5(-5.378150009e-06 -7.400041409e-06 -1.06511276e-05 -1.37274981e-05 -1.792140686e-05)
5(-7.234805804e-06 -1.029780138e-05 -1.512786431e-05 -1.959316385e-05 -2.534587515e-05)
5(-1.032249257e-05 -1.502007657e-05 -2.207023817e-05 -2.822906982e-05 -3.541577872e-05)
5(-1.542289721e-05 -2.225582144e-05 -3.220808542e-05 -4.034766867e-05 -4.900414203e-05)
5(-2.378960242e-05 -3.336936877e-05 -4.730607304e-05 -5.701487504e-05 -6.623642394e-05)
5(-3.58722872e-05 -4.897794217e-05 -6.73544271e-05 -7.756855484e-05 -8.859095589e-05)
5(-5.400426806e-05 -7.053967055e-05 -9.238996091e-05 -0.0001024760327 -0.0001094884164)
5(-7.852164829e-05 -9.790303394e-05 -0.0001218088208 -0.0001286382753 -0.000141509159)
5(-0.0001107072784 -0.0001313888546 -0.0001555648336 -0.000154572743 -0.0001595762628)
5(-0.0001496928822 -0.0001673248291 -0.0001868087359 -0.0001802913199 -0.0001658442251)
5(-0.0001919845489 -0.0002033672703 -0.0002120464295 -0.0001999467873 -0.0001557021477)
5(-0.0002326567047 -0.0002280001514 -0.0002149084701 -0.0001911458369 -0.0001306631412)
5(-0.0002635158819 -0.0002394583828 -0.0002108245866 -0.0001628573481 -9.856439491e-05)
5(-0.0002778421871 -0.0002297180978 -0.0001891313141 -0.0001235321152 -6.491464124e-05)
5(-0.0002672780221 -0.0002041792606 -0.0001606981189 -8.158337336e-05 -3.70754936e-05)
5(-0.0002314918912 -0.000166702361 -0.0001115497041 -4.651201539e-05 -1.810354198e-05)
5(-0.0001778933354 -0.0001129166816 -6.462199939e-05 -2.259089976e-05 -7.545641816e-06)
5(-0.0001183328602 -7.281903389e-05 -3.123633738e-05 -9.230258269e-06 -2.747398645e-06)
5(-6.735291747e-05 -3.480403547e-05 -1.249522408e-05 -3.263165837e-06 -9.809193927e-07)
5(-3.330170119e-05 -1.326822308e-05 -4.172279196e-06 -1.096131324e-06 -4.168510114e-07)
5(-1.22670618e-05 -4.181820109e-06 -1.329438329e-06 -4.373368902e-07 -2.3034307e-07)
5(-3.575410005e-06 -1.215050597e-06 -5.229025739e-07 -2.303945788e-07 -1.494240551e-07)
5(-1.012827839e-06 -4.626028235e-07 -2.905023735e-07 -1.358153258e-07 -9.223784504e-08)
5(-4.120475223e-07 -2.454939152e-07 -1.746356219e-07 -6.371000282e-08 -4.142886612e-08)
5(-1.742977439e-07 -1.157751835e-07 -7.656068026e-08 5.92003788e-09 4.265192368e-09)
5(2.501663692e-08 2.555211939e-08 2.814842229e-08 7.896921408e-08 5.070761089e-08)
5(2.442930611e-07 2.244896133e-07 2.335995704e-07 6.948770355e-08 1.090534949e-07)
5(3.326802374e-07 3.950729728e-07 3.936974567e-07 5.289808876e-07 5.641736005e-07)
)


60
(
5(-1.06384886e-08 7.162964243e-10 -2.835607725e-08 4.497693942e-08 -2.020788009e-07)
5(-1.5812459e-08 -9.52770948e-09 -3.879831519e-08 -1.863150426e-08 -3.074815391e-07)
5(-1.551675963e-08 -1.304136251e-08 -3.287742514e-08 -2.994373311e-08 -2.15121909e-07)
5(-1.578063832e-08 -1.451002478e-08 -3.419680635e-08 -2.932195416e-08 -2.10819799e-07)
5(-1.782788494e-08 -1.502512452e-08 -4.05775308e-08 -2.435192897e-08 -2.567035618e-07)
5(-2.141838564e-08 -1.539599528e-08 -4.937606114e-08 -1.569252867e-08 -3.204723066e-07)
5(-2.54676659e-08 -1.636869162e-08 -6.226792453e-08 -1.22075832e-08 -3.896344879e-07)
5(-3.096148381e-08 -1.958004044e-08 -7.795271167e-08 -1.512169909e-08 -4.603080194e-07)
5(-3.733594153e-08 -2.445602515e-08 -9.823559841e-08 -2.576891623e-08 -5.620911468e-07)
5(-4.566916945e-08 -2.988309913e-08 -1.242091931e-07 -4.266644126e-08 -6.889948114e-07)
5(-5.644513154e-08 -3.581912416e-08 -1.574392468e-07 -5.970927567e-08 -8.130816533e-07)
5(-7.191338024e-08 -4.534205558e-08 -1.977701842e-07 -8.429567474e-08 -9.581465973e-07)
5(-9.07120722e-08 -5.628497605e-08 -2.496188395e-07 -1.250108424e-07 -1.133631009e-06)
5(-1.116473004e-07 -7.145108503e-08 -3.140105298e-07 -1.803822536e-07 -1.325035246e-06)
5(-1.38404006e-07 -9.22245407e-08 -3.948263818e-07 -2.558260026e-07 -1.524156256e-06)
5(-1.785904602e-07 -1.191437624e-07 -4.916374718e-07 -3.561922683e-07 -1.753602369e-06)
5(-2.26915853e-07 -1.527637643e-07 -6.080584959e-07 -4.785199997e-07 -1.981132103e-06)
5(-2.787393903e-07 -1.959790459e-07 -7.443795313e-07 -6.158436713e-07 -2.20118264e-06)
5(-3.532614166e-07 -2.523592354e-07 -8.983052833e-07 -7.757939721e-07 -2.443742189e-06)
5(-4.299446005e-07 -3.161459964e-07 -1.069376841e-06 -9.474519664e-07 -2.667803501e-06)
5(-5.379153214e-07 -3.925618111e-07 -1.253851411e-06 -1.133655584e-06 -2.867532445e-06)
5(-6.715939817e-07 -4.674892846e-07 -1.44824062e-06 -1.300959296e-06 -3.045886188e-06)
5(-8.066896495e-07 -5.472989379e-07 -1.649525962e-06 -1.467102685e-06 -3.199303991e-06)
5(-9.281620554e-07 -6.155806813e-07 -1.823114332e-06 -1.607423589e-06 -3.319639099e-06)
5(-1.084645574e-06 -6.637944199e-07 -1.971814297e-06 -1.689217049e-06 -3.358535654e-06)
5(-1.207678369e-06 -6.539325517e-07 -2.039721895e-06 -1.697023905e-06 -3.350888103e-06)
5(-1.282088056e-06 -5.779218143e-07 -2.054842613e-06 -1.627616165e-06 -3.301922736e-06)
5(-1.332829872e-06 -3.795086235e-07 -1.931707266e-06 -1.423676445e-06 -3.153591389e-06)
5(-1.227254166e-06 1.253973104e-08 -1.626441656e-06 -1.091435793e-06 -2.905054125e-06)
5(-9.882344324e-07 5.875322059e-07 -1.162843421e-06 -6.147758681e-07 -2.708893982e-06)
5(-5.107619844e-07 1.463478655e-06 -4.954180789e-07 -1.041986718e-07 -2.750674866e-06)
5(2.535504066e-07 2.631318989e-06 2.707277837e-07 3.567252128e-07 -3.092909703e-06)
5(1.2956085e-06 4.01972498e-06 9.948260652e-07 3.341487106e-07 -4.284820715e-06)
5(2.573562327e-06 5.508384789e-06 1.332389679e-06 -4.346196567e-07 -6.790314634e-06)
5(4.043134307e-06 6.896437761e-06 7.271847785e-07 -2.824932706e-06 -1.174334866e-05)
5(5.373238958e-06 7.425787327e-06 -1.565836754e-06 -7.72875776e-06 -1.95686552e-05)
5(5.795759544e-06 6.575455222e-06 -6.679337415e-06 -1.635061449e-05 -3.170277915e-05)
5(5.317933115e-06 3.372930538e-06 -1.589918546e-05 -2.983305853e-05 -4.899908727e-05)
5(2.519195514e-06 -4.043801332e-06 -3.055262675e-05 -4.89231019e-05 -7.144587137e-05)
5(-3.733907338e-06 -1.621176826e-05 -5.160944429e-05 -7.396347894e-05 -9.854354232e-05)
5(-1.463352076e-05 -3.532399779e-05 -7.949643931e-05 -0.0001039425564 -0.0001280269691)
5(-3.079620572e-05 -6.015351378e-05 -0.0001118645516 -0.0001360819653 -0.0001545663183)
5(-5.213469468e-05 -9.076988114e-05 -0.0001457041123 -0.0001655658641 -0.0001712479358)
5(-7.700724579e-05 -0.0001240425664 -0.000175587157 -0.0001855761364 -0.0001727846669)
5(-0.0001032822555 -0.000152753665 -0.0001954442337 -0.000189423601 -0.0001574960232)
5(-0.0001258978462 -0.0001708695154 -0.0001987490429 -0.0001735448056 -0.000128268092)
5(-0.000137828961 -0.0001727797801 -0.0001831847846 -0.000140740771 -9.213643436e-05)
5(-0.0001361076149 -0.0001579335953 -0.0001492315457 -9.985519241e-05 -5.762728009e-05)
5(-0.0001172617521 -0.000127153742 -0.0001053687164 -6.112043577e-05 -3.09750895e-05)
5(-8.898084821e-05 -8.863106395e-05 -6.305654954e-05 -3.172755518e-05 -1.410607792e-05)
5(-5.647770963e-05 -5.2124547e-05 -3.149969008e-05 -1.387869714e-05 -5.617645847e-06)
5(-2.914536248e-05 -2.472743789e-05 -1.295770949e-05 -5.175157786e-06 -2.067988514e-06)
5(-1.152823513e-05 -9.295325446e-06 -4.459765987e-06 -1.83679947e-06 -8.960003496e-07)
5(-3.338828745e-06 -2.821428825e-06 -1.488411135e-06 -7.865061215e-07 -5.134825454e-07)
5(-6.625811185e-07 -8.199046838e-07 -6.520156896e-07 -4.620977951e-07 -3.614555227e-07)
5(-4.208420801e-08 -3.149317247e-07 -3.912377564e-07 -3.121633416e-07 -2.611361207e-07)
5(1.049251121e-07 -1.309435878e-07 -2.372353233e-07 -2.006674357e-07 -1.751247089e-07)
5(2.04413651e-07 7.140473409e-09 -1.053299731e-07 -9.813368578e-08 -9.503385683e-08)
5(3.563006886e-07 1.653646018e-07 4.057826319e-08 1.800838607e-08 -7.305351327e-09)
5(6.078347697e-07 5.795001359e-07 3.134367697e-07 2.299987123e-07 2.056620075e-07)
)


60
(
5(-1.013111291e-08 1.414057038e-08 -1.583487672e-08 1.464502219e-07 -1.919154996e-07)
5(-1.667541886e-08 1.229916565e-09 -2.416816654e-08 6.321078795e-08 -2.950326317e-07)
5(-1.537223317e-08 2.595996674e-09 -9.736365805e-09 6.747893858e-08 -1.64059806e-07)
5(-1.264866836e-08 1.041256335e-08 2.349067365e-09 1.031151936e-07 -9.748401671e-08)
5(-9.954066916e-09 2.31467835e-08 1.601396657e-08 1.653394517e-07 -5.633468064e-08)
5(-7.464339171e-09 4.006809391e-08 3.531633471e-08 2.482019929e-07 -1.696645528e-08)
5(-3.657514384e-09 6.064583695e-08 5.759207731e-08 3.334533065e-07 1.980406101e-08)
5(1.633101632e-09 8.435268366e-08 7.949038407e-08 4.098686498e-07 5.798373951e-08)
5(8.486970227e-09 1.121790855e-07 1.027622102e-07 4.921106036e-07 8.251575003e-08)
5(1.582644356e-08 1.468551548e-07 1.269981933e-07 5.808204768e-07 1.010422432e-07)
5(2.557415461e-08 1.885096886e-07 1.55708679e-07 6.831110199e-07 1.049479327e-07)
5(3.75784614e-08 2.383038478e-07 1.855592403e-07 7.763407828e-07 9.156142145e-08)
5(5.097225657e-08 2.97674299e-07 2.111052649e-07 8.622915104e-07 7.234567193e-08)
5(6.671168463e-08 3.640779181e-07 2.290538929e-07 9.339466378e-07 8.422918213e-09)
5(9.04923633e-08 4.35953528e-07 2.383466114e-07 9.724169995e-07 -1.157790267e-07)
5(1.157723267e-07 5.149509342e-07 2.383516795e-07 9.829251302e-07 -2.511459751e-07)
5(1.321432842e-07 6.024113386e-07 2.262633894e-07 9.679473826e-07 -4.314594065e-07)
5(1.687171911e-07 6.999265764e-07 1.911460578e-07 9.271540524e-07 -6.271801336e-07)
5(1.885125181e-07 7.982928936e-07 1.546041214e-07 8.48365197e-07 -8.30518785e-07)
5(2.252461345e-07 9.208298391e-07 9.339084712e-08 7.49710818e-07 -1.065630362e-06)
5(2.837422469e-07 1.044513861e-06 2.181231904e-08 6.490189909e-07 -1.226011506e-06)
5(3.198926402e-07 1.178646105e-06 -3.403398889e-08 5.666555878e-07 -1.377311925e-06)
5(3.366673178e-07 1.361733565e-06 -5.904315891e-08 5.106636318e-07 -1.502989261e-06)
5(4.596864528e-07 1.604918478e-06 -6.728278271e-08 5.153957898e-07 -1.56394916e-06)
5(5.97577677e-07 1.868668291e-06 -8.164630801e-09 5.936454313e-07 -1.52541943e-06)
5(7.981245604e-07 2.24570417e-06 1.858986215e-07 8.469254346e-07 -1.272556057e-06)
5(1.082224749e-06 2.750603805e-06 5.392041007e-07 1.27466868e-06 -8.722935624e-07)
5(1.510267578e-06 3.497992897e-06 1.15111277e-06 1.990330044e-06 -2.442646885e-07)
5(2.180923266e-06 4.510903352e-06 2.082858789e-06 3.019148991e-06 7.265807427e-07)
5(3.158342184e-06 5.900756695e-06 3.466897731e-06 4.481488698e-06 1.998312327e-06)
5(4.552870137e-06 7.824896002e-06 5.379100694e-06 6.455280738e-06 3.6682926e-06)
5(6.472665637e-06 1.036094857e-05 7.852658065e-06 8.845023525e-06 5.404661926e-06)
5(9.067316022e-06 1.355886222e-05 1.093479162e-05 1.162969898e-05 7.117561718e-06)
5(1.246746138e-05 1.765593954e-05 1.448971234e-05 1.441082438e-05 8.344753526e-06)
5(1.670122681e-05 2.238228296e-05 1.819673734e-05 1.688558534e-05 8.274718889e-06)
5(2.163683967e-05 2.754182719e-05 2.156973729e-05 1.78211638e-05 5.415625118e-06)
5(2.741790121e-05 3.280335418e-05 2.358215418e-05 1.634610536e-05 -6.002817777e-07)
5(3.333915688e-05 3.721631397e-05 2.307672445e-05 1.091704935e-05 -1.202849157e-05)
5(3.893438192e-05 3.977098661e-05 1.843652762e-05 -2.716919584e-07 -3.040605131e-05)
5(4.353774543e-05 3.91993192e-05 8.197086897e-06 -1.828625534e-05 -5.597961099e-05)
5(4.572340117e-05 3.380557285e-05 -9.072242324e-06 -4.42261361e-05 -8.867721626e-05)
5(4.565498618e-05 2.309153804e-05 -3.399028643e-05 -7.700715112e-05 -0.0001247908941)
5(4.192556942e-05 5.614234448e-06 -6.498498571e-05 -0.0001147995494 -0.0001589849984)
5(3.510237066e-05 -1.769759414e-05 -9.930218961e-05 -0.0001513048582 -0.0001828928467)
5(2.575584058e-05 -4.449338712e-05 -0.0001322783756 -0.000178221545 -0.0001905800406)
5(1.46410568e-05 -6.909047183e-05 -0.0001569663736 -0.0001879492675 -0.0001787062148)
5(5.240541522e-06 -8.663354217e-05 -0.0001663103769 -0.0001753684034 -0.0001489475899)
5(-1.106796841e-06 -9.355215228e-05 -0.000155923526 -0.0001443369904 -0.0001093043433)
5(-1.279848399e-06 -8.873539523e-05 -0.00012731665 -0.0001032125426 -6.908524791e-05)
5(4.716421857e-06 -7.151429255e-05 -8.877928275e-05 -6.270280084e-05 -3.714259435e-05)
5(1.264986091e-05 -4.88218693e-05 -5.143019463e-05 -3.191734503e-05 -1.696479507e-05)
5(1.878728205e-05 -2.673316079e-05 -2.422242698e-05 -1.351250459e-05 -6.574260506e-06)
5(2.018838142e-05 -1.087640183e-05 -9.140362624e-06 -4.699356226e-06 -2.312005968e-06)
5(1.562348587e-05 -2.879701115e-06 -2.712984959e-06 -1.510223297e-06 -9.347401727e-07)
5(8.474648243e-06 -1.946824542e-07 -6.651686591e-07 -5.625554245e-07 -4.935995906e-07)
5(4.279942743e-06 4.776901234e-07 -1.165154606e-07 -2.560576827e-07 -3.006481239e-07)
5(2.056441292e-06 6.295471784e-07 9.783880292e-08 -7.56573455e-08 -1.543982871e-07)
5(1.49016369e-06 7.431060767e-07 2.738396741e-07 8.787437767e-08 -1.986079334e-08)
5(1.620633873e-06 1.036050098e-06 5.486294017e-07 2.987635047e-07 1.344684837e-07)
5(1.696313841e-06 1.294759612e-06 9.938907176e-07 6.603952364e-07 6.072656316e-07)
)


60
(
5(-9.160175879e-09 3.182651164e-08 5.252120901e-09 2.872584981e-07 -1.433954866e-07)
5(-1.628596658e-08 1.67526381e-08 8.009922238e-09 2.01355542e-07 -2.065199547e-07)
5(-1.050108224e-08 2.869343374e-08 4.196840921e-08 2.434731851e-07 5.074651459e-10)
5(-1.682434576e-09 5.256112677e-08 8.094502057e-08 3.400830399e-07 1.616271624e-07)
5(9.456883817e-09 8.666114283e-08 1.307416847e-07 4.848589933e-07 3.264635527e-07)
5(2.465879341e-08 1.310208397e-07 1.968859071e-07 6.677609084e-07 5.148579569e-07)
5(4.428008713e-08 1.862670846e-07 2.756940478e-07 8.65098802e-07 7.082905336e-07)
5(6.881051522e-08 2.498364628e-07 3.60490695e-07 1.06005724e-06 9.075892832e-07)
5(9.815614264e-08 3.263269933e-07 4.55908359e-07 1.270599027e-06 1.096670608e-06)
5(1.358271262e-07 4.203822926e-07 5.614290375e-07 1.496942607e-06 1.279920928e-06)
5(1.832488251e-07 5.347938985e-07 6.855803777e-07 1.748643209e-06 1.465416328e-06)
5(2.409804863e-07 6.715188583e-07 8.203477504e-07 2.001394457e-06 1.624636909e-06)
5(3.152935156e-07 8.302018724e-07 9.685431059e-07 2.25657989e-06 1.755202326e-06)
5(3.936354711e-07 1.010710753e-06 1.120684096e-06 2.482009161e-06 1.821242009e-06)
5(4.916000971e-07 1.219150353e-06 1.275634473e-06 2.6845296e-06 1.854600055e-06)
5(6.211359731e-07 1.460665514e-06 1.430124764e-06 2.846349178e-06 1.802993903e-06)
5(7.586671571e-07 1.726907894e-06 1.575968632e-06 2.988141688e-06 1.687874904e-06)
5(9.234157942e-07 2.027573785e-06 1.727261113e-06 3.060597015e-06 1.529706623e-06)
5(1.11844063e-06 2.371257505e-06 1.872667793e-06 3.120125451e-06 1.358762613e-06)
5(1.343700526e-06 2.751496448e-06 2.01027726e-06 3.162168678e-06 1.174314978e-06)
5(1.596408131e-06 3.170547877e-06 2.176244881e-06 3.204090383e-06 1.000275031e-06)
5(1.905159497e-06 3.670487331e-06 2.350161798e-06 3.264939174e-06 8.568479965e-07)
5(2.275741485e-06 4.226809056e-06 2.567034265e-06 3.368657787e-06 7.354758941e-07)
5(2.709697463e-06 4.855836231e-06 2.827487873e-06 3.553403159e-06 7.396983198e-07)
5(3.205049148e-06 5.592266997e-06 3.227278234e-06 3.832742677e-06 8.62242163e-07)
5(3.852072092e-06 6.459449815e-06 3.759842144e-06 4.312516997e-06 1.222575343e-06)
5(4.647576542e-06 7.510489025e-06 4.527531805e-06 5.029068228e-06 1.754705959e-06)
5(5.623180535e-06 8.836338918e-06 5.553839308e-06 6.096422583e-06 2.712929338e-06)
5(6.851609328e-06 1.047714623e-05 7.018819927e-06 7.615601691e-06 4.101442811e-06)
5(8.510205371e-06 1.255064482e-05 9.052631379e-06 9.730291676e-06 6.068335445e-06)
5(1.06613557e-05 1.523291746e-05 1.175140612e-05 1.256046202e-05 8.72457597e-06)
5(1.346803766e-05 1.869199623e-05 1.523461099e-05 1.627544729e-05 1.19606968e-05)
5(1.713455622e-05 2.302875557e-05 1.980924591e-05 2.065918435e-05 1.538631827e-05)
5(2.183969757e-05 2.848513918e-05 2.52355339e-05 2.580474459e-05 1.941791309e-05)
5(2.771519415e-05 3.494453564e-05 3.160295094e-05 3.138395598e-05 2.283078572e-05)
5(3.472529581e-05 4.25897375e-05 3.854525311e-05 3.681148244e-05 2.500703124e-05)
5(4.302640184e-05 5.117335444e-05 4.539126929e-05 4.101955281e-05 2.467057007e-05)
5(5.256340291e-05 6.02350679e-05 5.136897203e-05 4.270066784e-05 1.995670061e-05)
5(6.286058854e-05 6.904625299e-05 5.504254987e-05 4.006861893e-05 9.050756303e-06)
5(7.358296415e-05 7.679547805e-05 5.487812674e-05 3.148557329e-05 -1.002819076e-05)
5(8.409464459e-05 8.233290495e-05 4.935845387e-05 1.514282465e-05 -3.753245392e-05)
5(9.418510867e-05 8.465320041e-05 3.66698832e-05 -1.005353543e-05 -7.43361833e-05)
5(0.0001033579165 8.265370837e-05 1.709899642e-05 -4.440627767e-05 -0.0001165649232)
5(0.000111527751 7.547176595e-05 -9.535539735e-06 -8.535380401e-05 -0.000156621663)
5(0.0001187032155 6.443283892e-05 -3.999695993e-05 -0.0001258181315 -0.0001863089437)
5(0.0001254234112 5.091793179e-05 -7.14607649e-05 -0.0001571005148 -0.0001983451954)
5(0.0001295630945 3.623616408e-05 -9.6578976e-05 -0.0001703778797 -0.0001884513113)
5(0.000134602675 2.411171417e-05 -0.0001095242388 -0.0001606848129 -0.0001584994829)
5(0.0001359567711 1.52101492e-05 -0.0001055987545 -0.0001318016046 -0.0001161679292)
5(0.0001384763779 1.019629684e-05 -8.524433058e-05 -9.283384297e-05 -7.326622539e-05)
5(0.0001348668306 7.682026934e-06 -5.737985601e-05 -5.4717922e-05 -3.846933426e-05)
5(0.0001245039571 9.738934587e-06 -3.09055213e-05 -2.62189332e-05 -1.689246651e-05)
5(0.0001061814731 9.747816898e-06 -1.280096729e-05 -1.002529525e-05 -6.132618473e-06)
5(8.39744942e-05 8.668893578e-06 -3.636161411e-06 -2.81529713e-06 -1.910748545e-06)
5(5.385097705e-05 6.41923729e-06 -1.105835297e-07 -4.970657152e-07 -6.269349132e-07)
5(3.186641579e-05 3.845983982e-06 8.024040869e-07 1.547065868e-07 -2.071516724e-07)
5(1.434144069e-05 2.832736267e-06 1.111721759e-06 4.26971695e-07 2.33157663e-08)
5(6.750925452e-06 2.359784766e-06 1.28673362e-06 6.412508813e-07 2.29987536e-07)
5(4.40556244e-06 2.59221094e-06 1.804349767e-06 1.016568731e-06 5.313756391e-07)
5(4.527358186e-06 2.767992408e-06 2.502474056e-06 1.525136231e-06 1.168840821e-06)
)


60
(
5(-7.564006759e-09 5.227188473e-08 3.313430709e-08 4.498063371e-07 -8.497984522e-08)
5(-1.58951982e-08 3.448038436e-08 5.622503419e-08 3.795579255e-07 -8.021413613e-08)
5(-2.425915527e-09 6.191226682e-08 1.208706081e-07 4.805690369e-07 2.451309115e-07)
5(1.692970729e-08 1.069148414e-07 1.972763641e-07 6.675398378e-07 5.697059272e-07)
5(3.902287704e-08 1.667973023e-07 2.949384985e-07 9.164915966e-07 8.594479413e-07)
5(7.026235843e-08 2.440708873e-07 4.224236286e-07 1.212891208e-06 1.208250388e-06)
5(1.094993068e-07 3.38219218e-07 5.706882211e-07 1.538617965e-06 1.588882322e-06)
5(1.575141628e-07 4.476165312e-07 7.327546975e-07 1.865343496e-06 1.952412489e-06)
5(2.160108696e-07 5.776160467e-07 9.150574933e-07 2.217689681e-06 2.331850425e-06)
5(2.875058343e-07 7.336929652e-07 1.117633564e-06 2.596727903e-06 2.683614131e-06)
5(3.731306362e-07 9.235731308e-07 1.351482788e-06 3.010905218e-06 3.049123776e-06)
5(4.841794656e-07 1.14663548e-06 1.609676043e-06 3.436465908e-06 3.378660746e-06)
5(6.097463623e-07 1.405343584e-06 1.896408251e-06 3.862292323e-06 3.676465785e-06)
5(7.649085754e-07 1.704295614e-06 2.193296134e-06 4.259997023e-06 3.891471781e-06)
5(9.408667081e-07 2.04273368e-06 2.509270278e-06 4.632829779e-06 4.037187505e-06)
5(1.146900038e-06 2.427649197e-06 2.820751716e-06 4.957897613e-06 4.07816102e-06)
5(1.397386504e-06 2.865185151e-06 3.159530988e-06 5.260958536e-06 4.076859314e-06)
5(1.67392672e-06 3.354047818e-06 3.503499662e-06 5.484685343e-06 3.974184557e-06)
5(2.005641697e-06 3.902720587e-06 3.849790376e-06 5.733542608e-06 3.867340773e-06)
5(2.385113218e-06 4.513659953e-06 4.225197835e-06 5.921337873e-06 3.68602513e-06)
5(2.772410617e-06 5.180893609e-06 4.607427841e-06 6.126739219e-06 3.565351839e-06)
5(3.281538503e-06 5.962139086e-06 5.048278817e-06 6.379184906e-06 3.457335064e-06)
5(3.832754578e-06 6.800128104e-06 5.52765628e-06 6.645609977e-06 3.382424259e-06)
5(4.403054884e-06 7.737215406e-06 6.087839495e-06 7.031969155e-06 3.461489136e-06)
5(5.138930649e-06 8.798064896e-06 6.792277708e-06 7.555802311e-06 3.660902984e-06)
5(5.970526466e-06 1.001528e-05 7.645507034e-06 8.234883113e-06 4.024096355e-06)
5(6.939858974e-06 1.143070636e-05 8.714650825e-06 9.219766685e-06 4.777790412e-06)
5(8.060397673e-06 1.307905361e-05 1.005055496e-05 1.058153393e-05 5.901745736e-06)
5(9.570574633e-06 1.502968855e-05 1.192787702e-05 1.24492694e-05 7.45547972e-06)
5(1.14440069e-05 1.747698929e-05 1.43411693e-05 1.48737745e-05 9.776384415e-06)
5(1.383402593e-05 2.054939569e-05 1.746153568e-05 1.823427489e-05 1.292971484e-05)
5(1.682403685e-05 2.426608463e-05 2.142279493e-05 2.247248567e-05 1.684805062e-05)
5(2.069433881e-05 2.899706764e-05 2.654196906e-05 2.78278332e-05 2.183175073e-05)
5(2.588782466e-05 3.479673386e-05 3.292635854e-05 3.434169918e-05 2.768436042e-05)
5(3.223922724e-05 4.187206832e-05 4.039679681e-05 4.180259124e-05 3.361357208e-05)
5(3.998226157e-05 5.042341843e-05 4.91302879e-05 4.989250408e-05 3.920650759e-05)
5(4.947603133e-05 5.997186923e-05 5.848141153e-05 5.767934376e-05 4.331578853e-05)
5(6.03452186e-05 7.066949785e-05 6.792198058e-05 6.428985438e-05 4.474185902e-05)
5(7.250597665e-05 8.204402928e-05 7.654953337e-05 6.853644354e-05 4.161296421e-05)
5(8.552239108e-05 9.324298829e-05 8.295316368e-05 6.844740654e-05 3.094147782e-05)
5(9.906111514e-05 0.0001038985375 8.593568715e-05 6.153662334e-05 1.116266758e-05)