/*--------------------------------*- C++ -*----------------------------------*\
| =========                 |                                                 |
| \\      /  F ield         | OpenFOAM: The Open Source CFD Toolbox           |
|  \\    /   O peration     | Version:  2.3.1                                 |
|   \\  /    A nd           | Web:      www.OpenFOAM.org                      |
|    \\/     M anipulation  |                                                 |
\*---------------------------------------------------------------------------*/
FoamFile
{
    version     2.0;
    format      ascii;
    class       dictionary;
    location    "constant";
    object      PM59;
}
// * * * * * * * * * * * * * * * * * * * * * * * * * * * * * * * * * * * * * //

PM59_table
60
(

60
(
5(1.010368233 0.3947010045 0.6993860056 0.5570636546 0.4205238292)
5(0.1455414361 0.401739855 0.4846160725 0.3486576699 0.4339256908)
5(0.1622270644 0.8164315805 0.5551002202 0.1953332321 0.1200360248)
5(0.4160854028 0.8924166451 0.6617068003 0.3609649996 0.8731925724)
5(0.820545278 0.6902489287 0.4410529753 0.4541806208 0.2529745065)
5(0.8738810769 0.4963709648 0.2982312877 0.3556349924 0.2709611207)
5(0.6146888157 0.4811200849 0.4445867621 0.3464548182 0.365987027)
5(0.5517763226 0.5395438477 0.4887649534 0.3467332179 0.1862928788)
5(0.6572932947 0.5281565752 0.4478111745 0.353344645 0.3242568989)
5(0.6098569114 0.5401343036 0.4859722531 0.3339635339 0.3080893749)
5(0.6067943021 0.5197651902 0.4349557034 0.3385739293 0.2868865656)
5(0.5673323819 0.5084115477 0.4023843046 0.3389368415 0.2689859398)
5(0.5646046528 0.5116609509 0.410753687 0.3393714047 0.274777583)
5(0.5773558399 0.4982281995 0.4035501131 0.3188584859 0.2630357185)
5(0.545398577 0.486746872 0.3972032571 0.3311185781 0.2614022347)
5(0.5553197274 0.4880157193 0.4009800303 0.3238090291 0.2631077897)
5(0.5421173643 0.476494561 0.3926648463 0.3231119783 0.2662345753)
5(0.5316188187 0.4702887641 0.3885640126 0.3222058437 0.2605071234)
5(0.5268197892 0.4697204201 0.3858374691 0.3185178472 0.2557235506)
5(0.5278281284 0.4674078886 0.3824156852 0.3189596559 0.2466167766)
5(0.5120705401 0.4484990313 0.3703448512 0.3005326323 0.2383405271)
5(0.5083326318 0.4456741252 0.3644706377 0.285527851 0.2340368778)
5(0.5035507458 0.4432984267 0.3587102403 0.2986089365 0.2393042582)
5(0.4962272963 0.4422512248 0.3537038144 0.2901682144 0.2302996892)
5(0.4916903172 0.4318958416 0.3537366186 0.2911312966 0.2275482417)
5(0.4821225401 0.4234051854 0.349609618 0.2868892519 0.2177314743)
5(0.4713266474 0.4108389409 0.3370433337 0.2802993395 0.2110676291)
5(0.4633176513 0.405963166 0.333364361 0.2700692732 0.2032593671)
5(0.45967981 0.3985905327 0.3177405402 0.2571610609 0.1958066806)
5(0.4512734618 0.3913068639 0.3075130963 0.2454686838 0.1861155161)
5(0.4435339593 0.3802474814 0.2988252027 0.2361383425 0.1704009662)
5(0.4282414713 0.3636105811 0.2801163481 0.2136850468 0.153051223)
5(0.4154531612 0.3530332134 0.2709311772 0.2047575415 0.1512568025)
5(0.4032378841 0.3383636959 0.2553569236 0.1835929545 0.1217046832)
5(0.384927254 0.3185407258 0.2385046473 0.1681635486 0.1116877899)
5(0.3671677173 0.3011776055 0.2191217139 0.1471567925 0.09714346463)
5(0.3394456445 0.266357486 0.182600151 0.1276013035 0.07654034431)
5(0.3162297712 0.2455257619 0.1661830371 0.1050754146 0.05277148906)
5(0.2890963159 0.2155727765 0.1454119762 0.08801316811 0.03936557328)
5(0.2586815024 0.1850787371 0.1200960188 0.05811656262 0.01089900926)
5(0.2188915916 0.1490107932 0.08943425619 0.03787397395 0.01198433952)
5(0.1822450752 0.1172350832 0.0628177164 0.01661590097 0.009258821617)
5(0.145690321 0.08719725029 0.04175009998 0.00869974267 0.007647691526)
5(0.1133284852 0.06562435349 0.03120546694 0.00722172854 0.003941265316)
5(0.08094274656 0.04253779424 0.01623947301 0.004143751343 0.001994952507)
5(0.05422239227 0.02570132571 0.006346024225 0.002118720634 0.0007903190412)
5(0.03283931166 0.01105100292 0.001817631687 0.001040011477 0.0002651893903)
5(0.01720403115 0.004755909119 0.001038760147 0.0003984251155 6.269725409e-05)
5(0.009184309304 0.001693485026 0.0004135116667 0.0001064949835 1.177413328e-05)
5(0.00303551714 0.0003470035598 0.0001478060835 2.108542301e-05 1.643547017e-06)
5(0.0008485679952 0.0001567575963 3.127670249e-05 3.154066149e-06 1.475372583e-07)
5(0.0001854945281 4.180952794e-05 4.845071367e-06 3.198598933e-07 8.595874521e-09)
5(5.564159226e-05 7.076447014e-06 5.359137433e-07 2.149255966e-08 2.937894069e-10)
5(8.594900283e-06 6.737539725e-07 3.112118718e-08 8.776213944e-10 5.498028586e-12)
5(7.760785061e-07 4.093668474e-08 1.000914382e-09 3.605491376e-11 4.809696428e-14)
5(2.95896216e-08 8.083265948e-10 1.836034922e-11 1.683652009e-12 3.224800871e-16)
5(5.299695053e-10 5.908755865e-12 3.420165158e-13 4.844806017e-14 5.985156964e-19)
5(2.975653201e-12 7.737285303e-14 8.338898944e-15 7.081867501e-16 2.599421342e-22)
5(1.376239166e-15 -2.156822484e-15 -4.966553192e-15 -3.982801941e-17 5.218967224e-26)
5(1.102437537e-22 4.296961321e-24 -3.351643528e-33 2.576745961e-29 7.367159522e-32)
)


60
(
5(1.712024737 1.380005839 1.199079424 0.9344114704 0.7810096442)
5(1.239225983 0.8209142279 0.8333432244 0.709661761 0.5325472883)
5(0.7342383892 0.9244431943 0.7932484388 0.6185010771 0.3176022279)
5(0.4925379201 0.9511467982 0.8987779275 0.5501987811 0.7132795432)
5(0.669429174 0.8958326129 0.8554427437 0.6279503472 0.5829867825)
5(0.9539676355 0.8385761365 0.6481732899 0.6060443969 0.4935270033)
5(0.990379012 0.7988642225 0.639094836 0.5478653763 0.5391741004)
5(0.8432276913 0.7833327798 0.6855559551 0.5573850531 0.427429136)
5(0.9191954414 0.7817402316 0.6603418099 0.5591079574 0.4622579593)
5(0.8980395702 0.7833182229 0.6909104906 0.5462416998 0.4701073124)
5(0.8979217489 0.7719757323 0.6794321219 0.5429489914 0.4678153274)
5(0.8716307417 0.7597848747 0.6475250897 0.5364078331 0.4515398663)
5(0.8287686754 0.7520675612 0.6317419061 0.5384225385 0.4505048633)
5(0.8423154215 0.7451046689 0.6265130719 0.5202404422 0.4393858012)
5(0.810904183 0.7281846 0.6124460869 0.5201993893 0.4336290402)
5(0.8087897629 0.7232898677 0.6100922885 0.5153339249 0.4298646365)
5(0.7982167283 0.7125113354 0.6025213502 0.5093082987 0.4285575516)
5(0.7864740893 0.7022086412 0.5943326258 0.506333258 0.4245931268)
5(0.7728601021 0.6931378163 0.5864996396 0.4985844359 0.419115054)
5(0.7688165927 0.6909668323 0.5829572 0.4984150859 0.4122531112)
5(0.7560003211 0.6759498529 0.5696953616 0.4891497053 0.4052074066)
5(0.7458403701 0.6653093078 0.5635769676 0.4693429837 0.3925821432)
5(0.741540586 0.6578951028 0.5538691196 0.4690677582 0.391591578)
5(0.727409406 0.6537129609 0.5453555627 0.461060483 0.3833821539)
5(0.7193788018 0.6439586491 0.5385498038 0.4564271508 0.37796634)
5(0.7083830888 0.6326839175 0.5342017893 0.4518033001 0.369272007)
5(0.6981475629 0.6193374286 0.5193514115 0.4434606754 0.3602125714)
5(0.6846139097 0.6077133894 0.5113416614 0.4330674202 0.3500434274)
5(0.6776984173 0.5976397384 0.4970528203 0.4195481322 0.3396386029)
5(0.6652773424 0.5874514939 0.4830243334 0.4025453515 0.3258532897)
5(0.6545732404 0.57510429 0.4718209591 0.3912344938 0.3129236966)
5(0.639749012 0.557401631 0.4528070333 0.3701899105 0.2899263931)
5(0.6221645258 0.5407007842 0.4365824286 0.3521962571 0.2796632299)
5(0.6048778788 0.5223962036 0.4194582345 0.3308045749 0.2533829812)
5(0.5854651126 0.4984236807 0.3954263568 0.3081823737 0.2327581796)
5(0.562036874 0.4761252624 0.3762878067 0.2839248482 0.2103608341)
5(0.5348879298 0.4411592962 0.3378033483 0.2532774633 0.1871725882)
5(0.5040695858 0.410975319 0.3064941373 0.2256949753 0.1526194895)
5(0.469765271 0.3730237612 0.274350251 0.1930942794 0.1335308309)
5(0.4338846161 0.3331658874 0.2400758574 0.1616300681 0.08873439835)
5(0.3891219714 0.2872632283 0.198072621 0.1274618335 0.06751667113)
5(0.3393731049 0.2414999207 0.1587069326 0.08995566829 0.04808456711)
5(0.2885063108 0.1936074361 0.1204901863 0.05575231265 0.03223625213)
5(0.2363832088 0.1510170092 0.09101587068 0.03730376141 0.02000643246)
5(0.1853996159 0.1101460178 0.05988858127 0.02296240521 0.0111860537)
5(0.1360209015 0.07565948097 0.03585366791 0.01295276378 0.005513147093)
5(0.09402077821 0.04695044414 0.01718121166 0.0064539631 0.002347888378)
5(0.05924575683 0.02543402837 0.008148965448 0.002798223363 0.0008313865195)
5(0.03444570963 0.01294561623 0.003512041119 0.001033494872 0.0002407307305)
5(0.0174757326 0.004763972468 0.001281906179 0.0003048908069 5.380352544e-05)
5(0.007442560627 0.001728419727 0.0003799159753 7.246112219e-05 8.909492712e-06)
5(0.002218944903 0.0005009120957 8.47937412e-05 1.258813386e-05 1.137471076e-06)
5(0.0005752080404 0.0001110496154 1.402888932e-05 1.587099223e-06 9.259332089e-08)
5(0.0001167392439 1.707754878e-05 1.4870733e-06 1.169984184e-07 4.294488019e-09)
5(1.615884528e-05 1.668988331e-06 1.006039343e-07 6.234464621e-09 1.368068702e-10)
5(1.305825771e-06 9.503359355e-08 3.430177844e-09 2.025315841e-10 1.708588138e-12)
5(5.722648497e-08 2.244690276e-09 7.347140824e-11 4.427390531e-12 1.197146355e-14)
5(6.307944055e-10 3.160850991e-11 8.475594956e-13 7.530331604e-14 7.676658709e-17)
5(1.634569376e-12 -2.205238198e-11 -2.730581527e-11 -8.08184666e-14 -2.713234449e-18)
5(1.970305373e-16 7.081376889e-16 1.323010074e-15 1.851324395e-17 -1.684628686e-26)
)


60
(
5(2.187069626 1.890047601 1.519687637 1.227876283 1.024833191)
5(1.813866251 1.626716782 1.28011515 1.100984729 0.8600076747)
5(1.686322523 1.502788943 1.22303909 1.056201201 0.8451774651)
5(1.642050116 1.447972307 1.214479866 1.039436206 0.8631423476)
5(1.609973982 1.414401119 1.20827007 1.03028503 0.8812882485)
5(1.573773593 1.381634007 1.189934543 1.014238734 0.8770555209)
5(1.530602308 1.351690912 1.158228383 0.9965528901 0.8553764177)
5(1.491104826 1.32345143 1.131328576 0.9790108726 0.8340095044)
5(1.458842117 1.296982922 1.109832153 0.9625700081 0.8197997534)
5(1.434438063 1.274751416 1.094319434 0.950316032 0.8102581717)
5(1.40830462 1.254990108 1.079841541 0.938702313 0.8023026717)
5(1.386855952 1.235351324 1.066017882 0.9267144925 0.7938080527)
5(1.364362499 1.216960787 1.051216144 0.9142927044 0.783063576)
5(1.342335802 1.198723654 1.036151263 0.9028114383 0.7729419667)
5(1.321227141 1.180908904 1.021396678 0.8908999574 0.7624847565)
5(1.30214909 1.164246211 1.007829197 0.8792569633 0.7525263213)
5(1.282815923 1.14786603 0.9946959747 0.8678132744 0.7423487299)
5(1.263903805 1.13193953 0.9814172901 0.8560290582 0.731834091)
5(1.246019487 1.115533522 0.9678175639 0.8441120584 0.7212595904)
5(1.227932946 1.099592254 0.9540639408 0.8320635911 0.7104493399)
5(1.2103998 1.083733031 0.9401009322 0.8190813092 0.6986072129)
5(1.19250976 1.06754864 0.9258117392 0.8063867808 0.6864817102)
5(1.174632611 1.05108252 0.9112058656 0.792576267 0.6741743456)
5(1.157285068 1.034547378 0.8964454357 0.7778774487 0.6607831434)
5(1.139082582 1.017296994 0.8803946631 0.7631879891 0.6464292547)
5(1.121073022 0.9994554676 0.8644574413 0.7476889472 0.6315032575)
5(1.102249471 0.9807240565 0.847126961 0.7310275679 0.6154976684)
5(1.082865143 0.9616512618 0.8285909155 0.7129097464 0.5976996357)
5(1.062440627 0.9412325655 0.8089878851 0.6934513717 0.5798104524)
5(1.041171383 0.9193603075 0.7877997538 0.6724001671 0.5590311575)
5(1.018833534 0.8959543227 0.7649457169 0.6496246442 0.537363481)
5(0.994859417 0.8707251675 0.7399482673 0.6248952731 0.5129895672)
5(0.96904055 0.8434450141 0.712890341 0.5974254062 0.4866574954)
5(0.94149093 0.8134720921 0.6828259906 0.567625381 0.4574800962)
5(0.9112102529 0.7809473109 0.6500730892 0.5346928439 0.4258495468)
5(0.8790572849 0.744964137 0.6141020182 0.4983755152 0.391699184)
5(0.8433248413 0.7057213695 0.5742656976 0.4587170518 0.3547011396)
5(0.8037163066 0.6624909823 0.5306108349 0.4159057176 0.3148604126)
5(0.7607184736 0.6144117197 0.4826420051 0.3695760585 0.2716580168)
5(0.7128172396 0.5624897521 0.4306241915 0.320330567 0.2260912388)
5(0.6597268881 0.5048062896 0.3750237158 0.2688664993 0.1799105948)
5(0.6013794651 0.4434204313 0.3175433813 0.2166226109 0.1362974846)
5(0.5372884848 0.37855442 0.2589980629 0.1661147472 0.09816433739)
5(0.4687152734 0.3119395122 0.2019017953 0.1200896842 0.06638618886)
5(0.395003323 0.2465685329 0.148662054 0.08115216383 0.04140514801)
5(0.3203627335 0.18497034 0.1017887871 0.05078648236 0.02336268686)
5(0.2469656504 0.1306537392 0.06390820893 0.02905326245 0.01177523548)
5(0.1791315325 0.08439965605 0.03660573647 0.0147397773 0.005149505685)
5(0.1200660722 0.04918494127 0.01851151474 0.006552404419 0.001935902557)
5(0.07335441139 0.02539324218 0.007955114548 0.002444062471 0.0005985623555)
5(0.0397322897 0.01124279919 0.002924514962 0.0007665829324 0.0001455791562)
5(0.01847486555 0.004033954163 0.0008670507028 0.0001824980687 2.561649676e-05)
5(0.006793520872 0.001164433738 0.000194467115 3.293716844e-05 3.492340989e-06)
5(0.001932620075 0.0002489875578 3.015946556e-05 4.190086467e-06 3.035107915e-07)
5(0.0004009450639 3.577742825e-05 2.903428341e-06 3.180520256e-07 1.454811932e-08)
5(4.706856083e-05 3.006834429e-06 1.724147797e-07 1.403427428e-08 4.578740508e-10)
5(2.11610063e-06 1.843157088e-07 4.951949384e-09 3.874694862e-10 3.959925228e-12)
5(1.08876109e-07 5.036864032e-09 1.020802438e-10 7.164375945e-12 1.416336341e-14)
5(8.344403787e-10 1.667147313e-10 2.24441368e-10 -9.230502794e-12 9.904348574e-15)
5(2.262970142e-11 2.902438442e-07 6.272895966e-07 2.015991895e-09 -2.482262588e-22)
)


60
(
5(2.433064774 2.096092841 1.681880369 1.371126196 1.155868524)
5(2.051728861 1.813302885 1.474683302 1.260122239 1.023042554)
5(1.899386139 1.672089653 1.40499923 1.210125316 1.005218698)
5(1.831138723 1.604609095 1.374086194 1.183293784 1.007243059)
5(1.781885612 1.559874316 1.350256193 1.163417354 1.008671816)
5(1.728302861 1.518136094 1.320308716 1.141345322 0.9943212015)
5(1.676256231 1.480408621 1.285813014 1.118274539 0.9700203332)
5(1.631358791 1.447041583 1.255575368 1.096854554 0.9478695704)
5(1.594408296 1.417374287 1.231608365 1.078698557 0.9316066073)
5(1.561987433 1.390668716 1.21155032 1.062629207 0.9203998743)
5(1.531425223 1.36562595 1.193319307 1.047616551 0.9088159287)
5(1.503003165 1.342081979 1.175044565 1.032609331 0.8966228622)
5(1.476302269 1.320054918 1.156913367 1.017974249 0.8838148043)
5(1.450680535 1.298740104 1.1392856 1.0034025 0.8710471441)
5(1.426196425 1.27817835 1.122485455 0.9891113848 0.8588485152)
5(1.40244775 1.258311572 1.106063865 0.9750712595 0.8465750973)
5(1.380336406 1.23886771 1.089829269 0.9613118007 0.8343486626)
5(1.358469541 1.219884764 1.073519585 0.9475787842 0.8216556949)
5(1.337090595 1.201192823 1.057757847 0.9331722108 0.8088736087)
5(1.316241583 1.182623053 1.041529919 0.9188858865 0.7959058284)
5(1.295220492 1.164261182 1.025254592 0.9040335275 0.7825139642)
5(1.275159661 1.145807397 1.008633804 0.8888524518 0.7687242473)
5(1.254760495 1.12722626 0.992111125 0.8736019018 0.7544283984)
5(1.234577558 1.108282302 0.9750995792 0.8576608949 0.7395207372)
5(1.213838393 1.088993697 0.9575437455 0.8410689684 0.7241410703)
5(1.193620623 1.069459179 0.9393020364 0.824130033 0.7077091461)
5(1.172741029 1.04934121 0.9203977641 0.8059188136 0.6906651554)
5(1.151339529 1.028785275 0.9008463368 0.7871044817 0.6723714093)
5(1.12972081 1.00739416 0.8802144823 0.7667191569 0.6534467344)
5(1.107863288 0.9849609751 0.8587657684 0.7455634731 0.6331754702)
5(1.084864328 0.9616398597 0.8358089458 0.7227660624 0.6111667656)
5(1.061002814 0.9373374729 0.8115506041 0.6984099315 0.5875534199)
5(1.03676849 0.9113183039 0.7855312012 0.6721801142 0.5616061729)
5(1.011442721 0.8839927439 0.7574191024 0.6436610363 0.533727946)
5(0.9847851063 0.8545877584 0.7273391457 0.6127060059 0.5029769708)
5(0.9564992941 0.8228368358 0.6944580631 0.579094903 0.47005174)
5(0.9275714917 0.7888177419 0.6583833994 0.5423162712 0.4340552529)
5(0.8955821557 0.7518007115 0.6186694713 0.5015769779 0.3944742272)
5(0.8618704945 0.7108885417 0.5744044644 0.4571290504 0.3504258255)
5(0.824387907 0.6658791301 0.5265667981 0.4087729332 0.3028295392)
5(0.782226598 0.6153748402 0.4740172237 0.3562360822 0.2523513386)
5(0.7366350129 0.5605833584 0.4168353662 0.3007018047 0.2026930939)
5(0.6838846087 0.5000146026 0.3564113773 0.2438717025 0.1555411411)
5(0.6248713108 0.4340706445 0.2940331102 0.1887868174 0.1134904702)
5(0.5581414694 0.3650241171 0.2315276689 0.1383636777 0.07793275857)
5(0.4839242801 0.2948040151 0.1719262751 0.09501619629 0.04946904852)
5(0.4045960306 0.2263067684 0.1190267391 0.06098857073 0.02839422903)
5(0.3220211725 0.163015649 0.07578286421 0.03530562606 0.01457031476)
5(0.2426546294 0.1080789725 0.04383617972 0.01821599804 0.006510696443)
5(0.1707429948 0.06503879582 0.02241504172 0.008331331727 0.002476065338)
5(0.1097788846 0.03452275248 0.00986219759 0.003187124727 0.000782445799)
5(0.06363340391 0.01537291767 0.003615940814 0.001011504333 0.0002050717451)
5(0.03226030487 0.005912874439 0.001061226476 0.0002403816878 3.508379831e-05)
5(0.01333136545 0.001821927659 0.0002287164637 4.211520412e-05 5.184088501e-06)
5(0.004029067398 0.0003899579434 3.459075448e-05 4.742780957e-06 4.263361297e-07)
5(0.001069910112 5.937892506e-05 3.182784534e-06 3.347397015e-07 1.391648124e-08)
5(0.0001573035094 5.380355689e-06 1.332113038e-07 1.479747977e-08 4.241296512e-10)
5(1.126426222e-05 3.00421189e-07 5.015668578e-09 2.92059382e-10 1.9636562e-12)
5(5.934925708e-07 6.012623888e-08 6.293502293e-08 6.738117908e-11 1.992502569e-12)
5(9.844767589e-07 4.016851278e-07 1.089918683e-07 -1.314888612e-07 -1.028885769e-09)
)


60
(
5(2.577180043 2.209275306 1.772052123 1.453287356 1.235173232)
5(2.1770738 1.907236749 1.578071902 1.347356105 1.119649737)
5(1.999243014 1.752744664 1.497736623 1.292440834 1.096214471)
5(1.915704925 1.675706161 1.453223181 1.258613838 1.089172283)
5(1.854051687 1.62365869 1.417979993 1.232211853 1.080016757)
5(1.792083052 1.576270362 1.381942196 1.205895862 1.059729942)
5(1.734902701 1.534996485 1.345192591 1.179709536 1.033317712)
5(1.686601624 1.498309295 1.313059239 1.156225167 1.010474717)
5(1.645220274 1.465501101 1.286991861 1.136049121 0.9931201493)
5(1.608977887 1.435978113 1.264463607 1.118028706 0.9792307996)
5(1.575692735 1.408594573 1.243420484 1.100700669 0.9655249539)
5(1.544276092 1.382853676 1.222758624 1.08372091 0.9514261151)
5(1.514523784 1.358461789 1.202677052 1.067331506 0.9372947334)
5(1.486532666 1.335256171 1.183272544 1.051360216 0.9228204076)
5(1.460151541 1.312840673 1.164709791 1.035540707 0.9093934421)
5(1.434861595 1.291326181 1.146751153 1.020045944 0.89577445)
5(1.410441129 1.27043092 1.129106769 1.004902621 0.8823969666)
5(1.386950949 1.250040584 1.111568318 0.9895599713 0.8688341583)
5(1.364024039 1.230021539 1.094138716 0.974334057 0.8548295933)
5(1.34155069 1.210195465 1.076775547 0.9587924163 0.8410650531)
5(1.319511544 1.190574455 1.059523872 0.9432289257 0.8267667797)
5(1.298199403 1.171133431 1.042007402 0.9272910217 0.8121482159)
5(1.276732384 1.151581738 1.024439167 0.9112536197 0.7972129722)
5(1.255286051 1.132041713 1.006571443 0.8947589588 0.7818738467)
5(1.234353703 1.112482468 0.9885447377 0.8779554949 0.7662268891)
5(1.213238536 1.09267938 0.9701688503 0.8606210776 0.7499734247)
5(1.192112652 1.072520125 0.9514571515 0.8427080935 0.7329795153)
5(1.170862682 1.052027315 0.9319542308 0.8241500068 0.7155701865)
5(1.149730432 1.031385403 0.9120446641 0.8047159538 0.6965923799)
5(1.128505305 1.01012641 0.8915373141 0.7844817997 0.6776104158)
5(1.106730022 0.9884314635 0.8701552029 0.7631849443 0.6569380596)
5(1.085275885 0.966249225 0.847620921 0.7407380203 0.6352157372)
5(1.063790918 0.9429150106 0.8243139706 0.7171843261 0.6117092584)
5(1.041988708 0.9194267217 0.7996937523 0.691479404 0.5861871177)
5(1.020249888 0.8948271876 0.7737923199 0.664180411 0.5584842309)
5(0.9978796839 0.86916048 0.7457547978 0.6348625442 0.5284672198)
5(0.9761022359 0.841632058 0.7153421141 0.6024297302 0.4958997737)
5(0.9535600869 0.8120530582 0.6819855614 0.5669216338 0.4593969538)
5(0.930063322 0.7800872883 0.6452041339 0.5274999031 0.4182089417)
5(0.9044296876 0.7451275546 0.6043478157 0.4834858782 0.3716720988)
5(0.8773962184 0.7062601135 0.5587360293 0.4343256208 0.3225129472)
5(0.8452658117 0.6623423653 0.5076004925 0.3810721094 0.269773526)
5(0.8088167759 0.6122136344 0.4520294315 0.3238682935 0.2181723779)
5(0.7644654297 0.5544463572 0.3905711177 0.2643778113 0.1685384878)
5(0.7118626166 0.4909920315 0.3256358437 0.2065369866 0.1243898746)
5(0.6477119767 0.4212753469 0.2592104965 0.1528898222 0.08564403265)
5(0.5768976417 0.3468809153 0.1953482148 0.1061664958 0.05410847984)
5(0.4910975973 0.2729498879 0.1370192836 0.06882774732 0.03158229688)
5(0.4031858224 0.2021418071 0.08909123765 0.0404114962 0.01625404829)
5(0.3192081239 0.1391748379 0.05237837556 0.02094138554 0.007236549385)
5(0.2325711416 0.08618547563 0.02714286789 0.009483167165 0.002740127389)
5(0.1582937715 0.04891155936 0.01212509357 0.003642347521 0.0008762202241)
5(0.096506054 0.02292234118 0.004596028918 0.001100027071 0.0002113930417)
5(0.0540577246 0.009263927297 0.001318129663 0.0002692589154 3.996172082e-05)
5(0.02420243822 0.003070101852 0.0002757526369 4.390755209e-05 4.637351668e-06)
5(0.01029495733 0.000737175355 3.303257861e-05 4.482348144e-06 3.310915096e-07)
5(0.002923066475 0.0001599009208 4.146684027e-06 2.748528259e-07 7.583074551e-09)
5(0.0007134940442 1.393337894e-05 2.029887142e-07 1.055001266e-08 1.871038496e-10)
5(0.0001303954931 1.080176219e-06 -6.754471023e-09 1.06314467e-10 -2.174219859e-13)
5(0.0001708605193 1.236738826e-06 -5.740701519e-07 -1.781293495e-09 2.232609951e-09)
)


60
(
5(2.66974578 2.282236774 1.826110071 1.504831804 1.288170933)
5(2.247608673 1.9624999 1.638062211 1.399973109 1.182214637)
5(2.048926665 1.79515284 1.54905866 1.340915176 1.153935513)
5(1.953571012 1.709821181 1.495007285 1.301966838 1.139763238)
5(1.884492186 1.652595715 1.452716107 1.271024039 1.124446195)
5(1.81745915 1.60152767 1.412720369 1.24130088 1.100128555)
5(1.756673919 1.557157485 1.373945132 1.213004301 1.071627768)
5(1.705359583 1.518198779 1.340225327 1.188022268 1.04798797)
5(1.661674397 1.483467948 1.312490115 1.166241925 1.029468031)
5(1.623012732 1.451963956 1.288293697 1.146531791 1.013947638)
5(1.587651676 1.423051203 1.265610009 1.127891363 0.998856739)
5(1.554526989 1.39583278 1.243519191 1.10980641 0.9835430582)
5(1.523326322 1.370180261 1.222308542 1.092180685 0.9681317012)
5(1.493837423 1.345796672 1.201777949 1.075118909 0.9531968872)
5(1.466062751 1.322447805 1.182169709 1.058474906 0.9385338679)
5(1.439646774 1.300005597 1.163052678 1.042234409 0.9241832981)
5(1.414353214 1.278279418 1.144592623 1.026213783 0.9100745311)
5(1.389968226 1.257181887 1.126436525 1.010071674 0.8957814181)
5(1.366075399 1.23642849 1.108262875 0.9943675131 0.8815986207)
5(1.343163891 1.216131572 1.090510371 0.9784645619 0.8670682609)
5(1.320542347 1.196044192 1.072785392 0.962537127 0.8527732159)
5(1.29840058 1.176308457 1.055070671 0.9464199525 0.8380148463)
5(1.276864626 1.156598241 1.037222048 0.930149307 0.8230746849)
5(1.255173508 1.137105988 1.019471367 0.9137681063 0.8081824058)
5(1.234387311 1.11769295 1.001605628 0.8971343274 0.7926938153)
5(1.213454194 1.098563287 0.9836500801 0.8800919917 0.7767202445)
5(1.192569308 1.07878565 0.9654515042 0.862842947 0.7605224145)
5(1.172008889 1.059214874 0.9465780348 0.8451908327 0.7439142539)
5(1.15257842 1.03957112 0.928040006 0.8271893089 0.7265753108)
5(1.132469895 1.020103237 0.9090460152 0.8082353411 0.7087746531)
5(1.113361283 1.000579338 0.8896816777 0.7892164059 0.6895155751)
5(1.094255557 0.980607837 0.8696103377 0.769394848 0.6700743861)
5(1.075894301 0.9609893167 0.8493215756 0.7486725945 0.6491499721)
5(1.058116551 0.9412881389 0.8286420819 0.726580418 0.6269442898)
5(1.041007246 0.9215929905 0.8063873817 0.7030965314 0.602383916)
5(1.025019047 0.9019408062 0.7837902094 0.677811324 0.5762786266)
5(1.010025926 0.8807941866 0.7596163556 0.6503892111 0.5475696179)
5(0.9954014068 0.8595677553 0.7333614834 0.6210616094 0.5158173791)
5(0.9816083418 0.8373703006 0.7045212958 0.5883092815 0.4795492799)
5(0.9682907295 0.8124648174 0.6717881503 0.5510255213 0.4373617468)
5(0.9529845458 0.784920236 0.6355597598 0.5086707108 0.3909610723)
5(0.9355280034 0.7528911131 0.5941060034 0.4608775567 0.3404424719)
5(0.9141556524 0.7157675103 0.5457710764 0.4070949844 0.2873003238)
5(0.884330779 0.6716038863 0.4916205187 0.3492748599 0.2346398303)
5(0.8460461291 0.6185973034 0.4309399007 0.2885479252 0.1826587406)
5(0.7988399031 0.5572121163 0.3650113577 0.228005507 0.1348496288)
5(0.7359449683 0.4887177594 0.2956407133 0.1709861217 0.09298508335)
5(0.6642826358 0.4115019067 0.2268777301 0.1211302535 0.05988560818)
5(0.581516479 0.3312994117 0.1635143012 0.07867872489 0.03482557198)
5(0.493164628 0.2523274355 0.109045554 0.04670331735 0.0178828314)
5(0.3993506314 0.178069714 0.06626218563 0.02472623915 0.007985818324)
5(0.3082479445 0.1164852403 0.03556839382 0.01144604253 0.002924204994)
5(0.2213158209 0.06826718985 0.01689187229 0.004326740567 0.0009507487)
5(0.1471253273 0.03604350998 0.006251744025 0.001347937843 0.00020828477)
5(0.08889351954 0.01678396075 0.001927778243 0.0003083735971 3.703921496e-05)
5(0.04496506581 0.006118374147 0.0004976471863 4.983901008e-05 4.0464708e-06)
5(0.02171424426 0.001892451242 6.765159346e-05 5.531132235e-06 1.929712766e-07)
5(0.009337514862 0.0003892127125 9.651677531e-06 3.858677658e-07 5.09364829e-09)
5(0.003724936874 0.0001065222159 6.102775121e-07 7.987924408e-09 1.863197141e-10)
5(0.004442001001 0.0003487620506 3.209916296e-05 1.484618108e-08 2.273732962e-09)
)


60
(
5(2.735690798 2.337012119 1.861123553 1.539688623 1.326652571)
5(2.291114985 2.00013559 1.674995862 1.434127837 1.225435999)
5(2.073539551 1.818891839 1.578830382 1.370956958 1.192846496)
5(1.968765824 1.725912766 1.517794945 1.32802751 1.173262779)
5(1.89498002 1.664671723 1.470511141 1.293604013 1.153214981)
5(1.824294839 1.610535952 1.427541824 1.261327758 1.125806678)
5(1.760709525 1.563845618 1.386771344 1.231053071 1.09586669)
5(1.707101461 1.523094628 1.351818994 1.204773286 1.070977447)
5(1.661537155 1.486999743 1.322728769 1.181737955 1.051551437)
5(1.621485134 1.454381962 1.297568224 1.161021806 1.034918606)
5(1.584681064 1.424167793 1.273605001 1.141267771 1.018781121)
5(1.550402299 1.396004005 1.250720131 1.122323074 1.002557723)
5(1.5182094 1.369553763 1.228517335 1.103930951 0.9864380186)
5(1.488085535 1.344382599 1.207413258 1.08630298 0.9709009224)
5(1.459464711 1.320463528 1.187229683 1.069095033 0.9558426809)
5(1.432589457 1.297526787 1.167779516 1.052313696 0.9411474145)
5(1.406361895 1.275341835 1.148682363 1.035809794 0.9265981076)
5(1.381850479 1.253900307 1.130053659 1.01960248 0.9119060709)
5(1.357374079 1.232940339 1.11184749 1.003565397 0.8975410462)
5(1.334312225 1.212395744 1.093839228 0.9875998455 0.8830339976)
5(1.311772068 1.192494958 1.076013451 0.9716152675 0.8686719111)
5(1.289371782 1.172796771 1.058325853 0.955641406 0.8541673639)
5(1.267950706 1.153324884 1.040818511 0.9395442351 0.8393532283)
5(1.246690763 1.134264403 1.023388081 0.9235753909 0.8246637831)
5(1.226186489 1.115314073 1.005905444 0.9073807026 0.8099380883)
5(1.205598676 1.096524319 0.9885996829 0.8911875814 0.7947192883)
5(1.186044502 1.077745473 0.9711261988 0.8749976653 0.7792902599)
5(1.16696007 1.059347879 0.9539104036 0.858244894 0.7634617691)
5(1.148121044 1.041432438 0.9366535423 0.8411206344 0.7473483174)
5(1.129747836 1.023889707 0.9193721602 0.8242226274 0.7308880892)
5(1.113142497 1.006259253 0.90201011 0.80725245 0.7138786828)
5(1.096822685 0.989223904 0.8848406439 0.7896297801 0.6967800554)
5(1.08152917 0.9729968999 0.8673352327 0.7714860208 0.6783978659)
5(1.067581493 0.956732798 0.8500274242 0.7530717173 0.6596755009)
5(1.055149307 0.941407672 0.8323130677 0.733605553 0.6391005243)
5(1.044707656 0.9264809863 0.8142881792 0.7131017489 0.6167028393)
5(1.035277163 0.9119706598 0.7958583065 0.6915150459 0.5927838527)
5(1.027877514 0.8981642631 0.7757990408 0.6679039337 0.5651506304)
5(1.022589342 0.883972199 0.7545540205 0.6413665304 0.5349363193)
5(1.017481329 0.868485519 0.7314520989 0.6110610345 0.4997710869)
5(1.013431651 0.8524691095 0.7047742711 0.577179845 0.4562817489)
5(1.006479133 0.832929819 0.6738675632 0.5369811652 0.411338065)
5(0.9963686165 0.8086195816 0.6361582253 0.4902546622 0.359923828)
5(0.9822219768 0.7783209088 0.5929537041 0.4375191509 0.3071102749)
5(0.9577017675 0.7389457614 0.5408478302 0.379075083 0.2521520624)
5(0.9244820523 0.6898662677 0.4804338704 0.3177467087 0.1996437072)
5(0.8759096921 0.6297967723 0.4125713722 0.2561306962 0.1480315887)
5(0.8211238788 0.5592309623 0.3421280263 0.1955084094 0.1034238961)
5(0.7508834372 0.4806553905 0.2666964464 0.1402702916 0.06690993987)
5(0.6655443973 0.394092472 0.1969647759 0.09350913726 0.03829362069)
5(0.5777050384 0.3070996887 0.1354448636 0.05703763196 0.02000731726)
5(0.4822800392 0.2279421967 0.08524511977 0.03108428198 0.009123756632)
5(0.3889028796 0.1579376185 0.04807033579 0.01462529684 0.003418976232)
5(0.2895486393 0.09843840607 0.0253855623 0.005853219161 0.001025814075)
5(0.2049497254 0.05654696787 0.01012856825 0.00205440697 0.0002292236056)
5(0.139352916 0.02900357872 0.003243379958 0.0004985502474 3.790967479e-05)
5(0.08305850874 0.01302786564 0.0008686253194 9.037600924e-05 3.10988966e-06)
5(0.04739522074 0.005227386367 0.0002734406009 1.259811508e-05 7.64611808e-08)
5(0.02885494551 0.002257479433 5.904920123e-05 7.410432541e-07 1.743420884e-09)
5(0.03428021002 0.003455524364 0.0001237820774 -3.575389445e-06 1.822108182e-08)
)


60
(
5(2.786850841 2.38365938 1.885685265 1.565488899 1.35653326)
5(2.319879722 2.029396469 1.69951473 1.458133475 1.257366276)
5(2.084333173 1.833523815 1.597034034 1.390943012 1.220451687)
5(1.971343408 1.73251025 1.530467915 1.344549755 1.196599922)