/*--------------------------------*- C++ -*----------------------------------*\
| =========                 |                                                 |
| \\      /  F ield         | OpenFOAM: The Open Source CFD Toolbox           |
|  \\    /   O peration     | Version:  2.3.1                                 |
|   \\  /    A nd           | Web:      www.OpenFOAM.org                      |
|    \\/     M anipulation  |                                                 |
\*---------------------------------------------------------------------------*/
FoamFile
{
    version     2.0;
    format      ascii;
    class       dictionary;
    location    "constant";
    object      PM60;
}
// * * * * * * * * * * * * * * * * * * * * * * * * * * * * * * * * * * * * * //

PM60_table
60
(

60
(
5(-0.2214409969 -0.224657836 -0.1664476245 -0.1851926671 -0.1203435125)
5(-0.2171325648 -0.2960998955 -0.2104312274 -0.207034509 0.06670963584)
5(-0.1866224972 -0.2459576125 -0.2254068118 -0.1712727633 -0.1693345783)
5(-0.2870923087 -0.259654522 -0.2068133216 -0.2229870566 -0.1024832509)
5(-0.354771319 -0.2598991318 -0.2162257141 -0.2055075178 -0.1539454189)
5(-0.2959024441 -0.2592012412 -0.2410333246 -0.2012073963 -0.173735544)
5(-0.2763489794 -0.2654062021 -0.234348323 -0.2110362136 -0.1647792229)
5(-0.3012553707 -0.2594986753 -0.2257888492 -0.2044852907 -0.1730293807)
5(-0.2882043594 -0.2554202042 -0.230158512 -0.2037323152 -0.1725940493)
5(-0.2870528584 -0.2516657131 -0.2216417611 -0.2054771134 -0.1702444848)
5(-0.2765555668 -0.2503212765 -0.2236560999 -0.2037500054 -0.1693880519)
5(-0.2713072044 -0.2502745437 -0.2268686904 -0.2013295081 -0.1698331478)
5(-0.2761284781 -0.2500537805 -0.2259028345 -0.1990611902 -0.1687149244)
5(-0.2743710967 -0.2493942212 -0.2238702906 -0.1997118073 -0.1675941912)
5(-0.2771136749 -0.2492832671 -0.2236343899 -0.1968688954 -0.1668624006)
5(-0.2739733604 -0.2475277994 -0.2209103561 -0.1955370376 -0.1653462869)
5(-0.2717483003 -0.2452820849 -0.2192537255 -0.1938043291 -0.1631784763)
5(-0.2698068834 -0.2433355394 -0.2173847457 -0.1915521902 -0.1616761928)
5(-0.267918459 -0.2406172654 -0.2156089669 -0.1898497006 -0.1597893176)
5(-0.2648006616 -0.2377644547 -0.2134752078 -0.186597011 -0.1582620353)
5(-0.2635361205 -0.2374291646 -0.2122947451 -0.1848291447 -0.1557291185)
5(-0.2606677633 -0.2349833801 -0.2089306668 -0.1843985564 -0.1532556272)
5(-0.257547004 -0.2318430614 -0.2069348911 -0.1800251141 -0.1500520208)
5(-0.2558377839 -0.2278502627 -0.2040409172 -0.177069582 -0.1471703963)
5(-0.2524200617 -0.2254791564 -0.2000147781 -0.1730154623 -0.1435794408)
5(-0.249700032 -0.2226440204 -0.1958115185 -0.1685302044 -0.1402351954)
5(-0.2463299398 -0.2191637034 -0.1930697216 -0.1638882028 -0.1360022)
5(-0.2426292906 -0.2145397225 -0.1877516373 -0.1592301752 -0.1313519473)
5(-0.237222088 -0.2095391929 -0.1838119154 -0.154347088 -0.1257723938)
5(-0.2325676054 -0.2034175885 -0.1781421969 -0.1490830276 -0.119723866)
5(-0.2265069214 -0.1972789343 -0.1712323554 -0.1417265613 -0.113040427)
5(-0.2206878682 -0.190966942 -0.1647764346 -0.13479637 -0.1066125367)
5(-0.2137136654 -0.1824399402 -0.1558497703 -0.1267099261 -0.09701548258)
5(-0.2051009181 -0.1731876363 -0.1460997537 -0.117067155 -0.08820755795)
5(-0.1955831553 -0.1634172361 -0.136087348 -0.1063476393 -0.07768588795)
5(-0.1849461779 -0.1511988086 -0.1233297386 -0.09498748963 -0.06809930376)
5(-0.1727403078 -0.1407213433 -0.1136442587 -0.08331496703 -0.05604875589)
5(-0.1589600284 -0.1250689951 -0.09897255621 -0.06821463244 -0.04458345342)
5(-0.142918408 -0.1106587673 -0.08359661263 -0.05728512444 -0.02974705433)
5(-0.1254479652 -0.09473010464 -0.06822078234 -0.03772314174 -0.0036115406)
5(-0.1083345779 -0.07880949013 -0.05418164175 -0.02437818892 -0.01111266663)
5(-0.09019075709 -0.06209955442 -0.03871653125 -0.01039452141 -0.008396168022)
5(-0.07123600688 -0.04691275006 -0.02503995508 -0.008948468518 -0.005714398691)
5(-0.05361999644 -0.03296073297 -0.01524767533 -0.006574108616 -0.002626447862)
5(-0.03793453066 -0.02175513702 -0.008511521829 -0.003467824016 -0.001394203906)
5(-0.02546521702 -0.01281335693 -0.003053240771 -0.001616102475 -0.0005088202403)
5(-0.01528407132 -0.00590232656 -0.001393223333 -0.0007184668464 -0.0001674850856)
5(-0.00809871059 -0.002871626206 -0.0009219081101 -0.0002576349757 -3.358372533e-05)
5(-0.004009807575 -0.0008396308642 -0.0003322754607 -6.196285273e-05 -5.771134432e-06)
5(-0.0004838956601 -0.0002971001213 -0.0001037596369 -1.124668708e-05 -7.367488904e-07)
5(-0.0001126836404 -0.0001199988304 -2.026992833e-05 -1.534430545e-06 -6.031539152e-08)
5(-0.0001468441036 -2.827651203e-05 -2.878032591e-06 -1.403060954e-07 -3.1940856e-09)
5(-3.959471291e-05 -4.227799842e-06 -2.888522891e-07 -8.400007412e-09 -9.822824029e-11)
5(-5.196448802e-06 -3.575168146e-07 -1.49599776e-08 -3.026226749e-10 -1.652153763e-12)
5(-3.993659426e-07 -1.898014773e-08 -4.189560247e-10 -1.068103381e-11 -1.279519485e-14)
5(-1.16716716e-08 -3.142847085e-10 -6.440933316e-12 -4.183535334e-13 -7.506506096e-17)
5(-1.222564219e-10 -1.772619888e-12 -9.369163889e-14 -9.514571041e-15 -1.247799532e-19)
5(-1.469926481e-13 -1.250755199e-14 -1.513975509e-15 -7.737443582e-17 -4.563799788e-23)
5(2.051051765e-16 -3.729929686e-17 9.339037184e-17 1.252298338e-17 -8.6071297e-27)
5(7.009734046e-23 2.282577258e-24 -2.247894106e-33 1.474871987e-29 3.675017192e-32)
)


60
(
5(-0.1715585116 -0.2223511021 -0.1312366271 -0.1522855742 -0.1085130062)
5(-0.2195550298 -0.2703471435 -0.1810992004 -0.1814859965 -0.1449054321)
5(-0.3055463389 -0.2391752224 -0.2055626913 -0.2006720516 -0.1954191735)
5(-0.2772633077 -0.2274091605 -0.1920251771 -0.2161316941 -0.1352251482)
5(-0.2971440357 -0.2329596427 -0.1992405865 -0.2008660331 -0.1693203416)
5(-0.2699836701 -0.2387279263 -0.235611149 -0.2025685708 -0.1851825679)
5(-0.2461232752 -0.2408983675 -0.2295164243 -0.2108477618 -0.1688567547)
5(-0.2684620195 -0.2389520279 -0.2138118075 -0.2052293403 -0.1893733313)
5(-0.2551661517 -0.2347539955 -0.2167820418 -0.2020405526 -0.1797418699)
5(-0.2580152752 -0.2305685466 -0.2074082595 -0.2028617519 -0.1770162266)
5(-0.2540202015 -0.2293658391 -0.2074082395 -0.2014997476 -0.1760819873)
5(-0.2495267165 -0.2276344774 -0.2117101032 -0.2005462428 -0.178005717)
5(-0.2502209602 -0.2254769641 -0.2120000235 -0.1971693983 -0.1756753264)
5(-0.2423440615 -0.2232319102 -0.2096844045 -0.1989047509 -0.1761068931)
5(-0.2453829294 -0.2234131334 -0.209972303 -0.1960705564 -0.1750948283)
5(-0.2419934314 -0.221452 -0.2072704993 -0.1944433596 -0.1736846379)
5(-0.2402348056 -0.220035501 -0.2059038225 -0.1930095618 -0.1714225007)
5(-0.2384238283 -0.2185364157 -0.2043163668 -0.1905781803 -0.1695548203)
5(-0.2371884588 -0.2165975736 -0.2027341932 -0.189286762 -0.1680505247)
5(-0.2336677626 -0.2126854679 -0.1998001641 -0.1856613038 -0.1667475625)
5(-0.2323779105 -0.2124057577 -0.1996147844 -0.1844365011 -0.1652071692)
5(-0.2303559832 -0.2108797958 -0.1971493809 -0.1862750068 -0.1653067537)
5(-0.226670695 -0.2082920551 -0.1955382127 -0.1821098422 -0.1615649035)
5(-0.2256745186 -0.204543063 -0.1934532665 -0.1799938736 -0.1596979559)
5(-0.2227478698 -0.2022569834 -0.1904296019 -0.1763876653 -0.1567141611)
5(-0.2205346656 -0.2003282891 -0.1863159243 -0.1724226512 -0.1543646774)
5(-0.2178921069 -0.1984600876 -0.1853315635 -0.1690830926 -0.1515737598)
5(-0.2159142283 -0.1956605026 -0.181595322 -0.1659179444 -0.1486721196)
5(-0.2115346287 -0.1919402466 -0.1794105979 -0.1632313407 -0.1451294767)
5(-0.2083965849 -0.1876439916 -0.1765198161 -0.1611775347 -0.14206279)
5(-0.2041273769 -0.183345446 -0.1717412698 -0.1559653735 -0.1376865126)
5(-0.2004283695 -0.1798884608 -0.1687626203 -0.1534114075 -0.1363430093)
5(-0.1967377239 -0.1748748238 -0.1634851917 -0.1483144526 -0.1281444439)
5(-0.1917916793 -0.1692127444 -0.1569413182 -0.1429601957 -0.1250932893)
5(-0.1861506811 -0.1638882381 -0.1513439316 -0.1361330382 -0.1177483772)
5(-0.18008303 -0.155722967 -0.1412369987 -0.1278538627 -0.1095111282)
5(-0.1730448622 -0.1508444021 -0.137872104 -0.12045132 -0.0998392483)
5(-0.16529244 -0.1408018044 -0.1282342331 -0.1088849653 -0.09378953679)
5(-0.1554635602 -0.1312912646 -0.1159565793 -0.09754064121 -0.07723232814)
5(-0.1428652793 -0.1194214323 -0.1017267216 -0.08343353147 -0.07396943533)
5(-0.1306824277 -0.1078635448 -0.08982845459 -0.06957192189 -0.05727841807)
5(-0.1173230034 -0.09365849146 -0.07542373477 -0.05834176344 -0.04163777631)
5(-0.101740527 -0.07964649816 -0.06082701722 -0.04776912993 -0.02786857162)
5(-0.08453690253 -0.06281109761 -0.04271971883 -0.03215630802 -0.01688659275)
5(-0.06693849878 -0.04768771276 -0.03041116964 -0.01960684721 -0.009242333248)
5(-0.05068489517 -0.03327611059 -0.01998509961 -0.01073943813 -0.004361629038)
5(-0.03560767924 -0.0220664473 -0.01333024892 -0.005100802098 -0.001739031578)
5(-0.02301582285 -0.01370210094 -0.006830891571 -0.002062186827 -0.0005639567098)
5(-0.01303372837 -0.006831791563 -0.002856526781 -0.0006857013192 -0.0001443661593)
5(-0.006427022458 -0.003576998975 -0.0009741261237 -0.0001800166321 -2.740315571e-05)
5(-0.002750053967 -0.001242180334 -0.0002632077007 -3.555533013e-05 -3.865699194e-06)
5(-0.00114293309 -0.0003291120388 -5.20336692e-05 -5.131942864e-06 -3.942952251e-07)
5(-0.0003038611374 -6.622860691e-05 -7.424656911e-06 -5.270481293e-07 -2.626305685e-08)
5(-5.53743163e-05 -8.696632797e-06 -6.63516175e-07 -3.100690391e-08 -1.018129515e-09)
5(-6.251560011e-06 -6.850163148e-07 -3.575728254e-08 -1.211583779e-09 -3.031821088e-11)
5(-3.749407593e-07 -2.824337991e-08 -8.659659211e-10 -3.022509068e-11 -6.546466073e-13)
5(-8.237420108e-09 -4.358247462e-10 -1.16664824e-11 -5.513179696e-13 -1.259315661e-14)
5(-2.181815437e-11 -1.9921147e-12 -8.388087867e-14 -7.218071012e-15 -1.463204451e-16)
5(1.740642857e-13 -2.355846398e-12 -2.648956113e-12 8.425948485e-15 1.102503334e-17)
5(6.389481289e-17 5.30589936e-16 1.332112797e-15 1.384469968e-17 -8.245562309e-27)
)


60
(
5(-0.1113223253 -0.1347070397 -0.08532809214 -0.09785179428 -0.07581303178)
5(-0.1245018434 -0.1227286896 -0.105263108 -0.1051617061 -0.09419959725)
5(-0.1308708702 -0.1156113125 -0.1146985634 -0.1076108675 -0.1049743928)
5(-0.1294552744 -0.1111502887 -0.1135574302 -0.1063100628 -0.1056540942)
5(-0.1229521754 -0.1070599109 -0.1067167491 -0.102930901 -0.1002736199)
5(-0.1136755325 -0.1031903136 -0.1003466764 -0.100246949 -0.09473249246)
5(-0.1080151878 -0.09963025438 -0.09764795993 -0.09720076213 -0.09205282851)
5(-0.1052842836 -0.09688563636 -0.09556024698 -0.09512156969 -0.091212724)
5(-0.1033188768 -0.09495236856 -0.09462742441 -0.0940792648 -0.09061581532)
5(-0.1001233922 -0.09260997786 -0.09289237747 -0.09226747602 -0.08970879218)
5(-0.09812576528 -0.08996049718 -0.09096253062 -0.09045837182 -0.08799162531)
5(-0.09459022715 -0.08788285385 -0.08851985189 -0.08867025423 -0.08600559206)
5(-0.09190414793 -0.08559283339 -0.08648554299 -0.08714320145 -0.084583578)
5(-0.08970887418 -0.08366482249 -0.08470008454 -0.0852190393 -0.08296488473)
5(-0.0877588653 -0.08180946412 -0.08317002172 -0.08364938872 -0.08164179132)
5(-0.08525407895 -0.07977991994 -0.08128955696 -0.08194610068 -0.08015771981)
5(-0.08314982529 -0.07777854788 -0.0792442547 -0.08019040553 -0.07871516771)
5(-0.0812209384 -0.07559963872 -0.07719757745 -0.07849295003 -0.07723584301)
5(-0.07881574405 -0.07386258712 -0.07540132412 -0.07677553603 -0.07561547335)
5(-0.07681949976 -0.07182484142 -0.07346137546 -0.07485281795 -0.07395690182)
5(-0.07456125578 -0.06962350336 -0.07165478882 -0.07340949061 -0.07265250703)
5(-0.07235831248 -0.06772233628 -0.06985206105 -0.07134576326 -0.07110332428)
5(-0.07020887095 -0.06573657195 -0.06794734798 -0.06979858136 -0.06958244692)
5(-0.06796930009 -0.06362466718 -0.06582629901 -0.0685233542 -0.06823635549)
5(-0.06580605905 -0.06157213036 -0.06436398969 -0.06685447851 -0.06710108404)
5(-0.06336614801 -0.0597101871 -0.06229241408 -0.0652142944 -0.06586695648)
5(-0.06117136136 -0.05796242038 -0.06051491177 -0.06360945697 -0.06470349331)
5(-0.05883663935 -0.05584255291 -0.0589820218 -0.06234488291 -0.06396404027)
5(-0.05675768781 -0.05399998115 -0.05746033543 -0.06118501318 -0.06283704879)
5(-0.05452949794 -0.05228792548 -0.05608277709 -0.06018604817 -0.06237005874)
5(-0.05246003044 -0.05081352681 -0.054959868 -0.05938271397 -0.06143561926)
5(-0.05062353812 -0.04957341135 -0.05395356127 -0.05861292072 -0.06096483706)
5(-0.04894556492 -0.04833131746 -0.05322247515 -0.0579704096 -0.06037189047)
5(-0.04728560445 -0.04743676884 -0.0527958563 -0.05748978051 -0.05990381806)
5(-0.04618425862 -0.04682789691 -0.05220707869 -0.05695241702 -0.05890728152)
5(-0.04478036656 -0.04625795517 -0.05177175227 -0.05629176998 -0.05792958332)
5(-0.04372791187 -0.04595718351 -0.05124849124 -0.05548161926 -0.05618698634)
5(-0.04288872543 -0.04565302206 -0.05061900462 -0.05387440814 -0.05349206628)
5(-0.04202893818 -0.04542670134 -0.04953677859 -0.05144901948 -0.05014722144)
5(-0.04114946878 -0.04448281111 -0.04774974314 -0.04817226803 -0.04573100556)
5(-0.0398464086 -0.04340548207 -0.04531233096 -0.04367003888 -0.04035441497)
5(-0.0380142298 -0.04104411138 -0.04142644035 -0.03819017299 -0.0340935729)
5(-0.03524446429 -0.03804487912 -0.03655874577 -0.03195843096 -0.02701246132)
5(-0.03163504427 -0.03423782824 -0.03075702728 -0.02518024708 -0.01979815525)
5(-0.0272677306 -0.02905894541 -0.02430058679 -0.01839500907 -0.01329488997)
5(-0.02206258158 -0.02308749965 -0.01783808547 -0.01232319634 -0.008026816395)
5(-0.01649496327 -0.01702169537 -0.01210529269 -0.007333758254 -0.004219358565)
5(-0.01114399375 -0.01148586875 -0.007324957583 -0.003811419921 -0.001919243629)
5(-0.006378722177 -0.006907796029 -0.003895014548 -0.001683064619 -0.0007297592351)
5(-0.002988512255 -0.003634859969 -0.001767323681 -0.0006226263352 -0.0002174965451)
5(-0.0009473017053 -0.001631871229 -0.0006529980241 -0.00017841968 -5.153496448e-05)
5(-5.437058394e-05 -0.0005905815299 -0.0001877870578 -3.945129925e-05 -8.522116225e-06)
5(0.0001140266663 -0.0001590552073 -3.957426057e-05 -6.134357852e-06 -1.022610914e-06)
5(7.236637515e-05 -2.947835815e-05 -5.930809361e-06 -6.095090787e-07 -7.002308129e-08)
5(2.274777052e-05 -3.748446983e-06 -5.496931764e-07 -3.613896765e-08 -3.282665168e-09)
5(2.92923513e-06 -2.654326549e-07 -2.969894802e-08 -1.247864935e-09 -9.37220102e-11)
5(8.931323957e-08 -5.681554108e-09 -6.595427208e-10 -2.466943672e-11 -1.793781886e-12)
5(9.243844687e-09 1.758034472e-10 -8.418089531e-12 -2.292857788e-13 -2.745033332e-14)
5(9.773428994e-11 1.503153236e-11 2.508152115e-11 4.254226509e-12 3.381265888e-14)
5(6.630107989e-12 1.124562043e-07 1.627481982e-07 3.480908689e-10 -1.647913952e-22)
)


60
(
5(-0.07192959651 -0.08750651637 -0.05485669193 -0.06527653541 -0.05418137902)
5(-0.07401867973 -0.07283878142 -0.0652434221 -0.06747589448 -0.06507803819)
5(-0.07332467506 -0.06529296436 -0.06809146925 -0.06729871565 -0.07018256341)
5(-0.07050611298 -0.06064355886 -0.06571152924 -0.06524814832 -0.0697668916)
5(-0.06411756337 -0.05685800021 -0.06021292372 -0.06219748299 -0.06556510731)
5(-0.05761766161 -0.05341250384 -0.055648466 -0.05970660049 -0.06163754661)
5(-0.05319289217 -0.05078875389 -0.05301820869 -0.05742349181 -0.05936041004)
5(-0.05062634357 -0.04835816619 -0.05132836583 -0.05587564794 -0.05842328782)
5(-0.04817545412 -0.04611625035 -0.04992736107 -0.0543073748 -0.05774550737)
5(-0.04575255262 -0.04388615322 -0.04851947727 -0.05290527291 -0.05631418833)
5(-0.04368443137 -0.04204932373 -0.04657138929 -0.0512590969 -0.05489961394)
5(-0.04134910482 -0.04020606195 -0.04474883958 -0.04983637494 -0.05348299636)
5(-0.03890984141 -0.03818347702 -0.04303610631 -0.04823931793 -0.0521763209)
5(-0.03667069731 -0.03647287351 -0.04139275734 -0.04688300873 -0.05101619639)
5(-0.0349901965 -0.03479381577 -0.03978494094 -0.04552182076 -0.04979270788)
5(-0.03353600252 -0.03321530164 -0.03824616755 -0.04419180262 -0.04868668279)
5(-0.03133822674 -0.03167105131 -0.03678926733 -0.04279088394 -0.04755176058)
5(-0.02960963189 -0.0301159539 -0.03547382829 -0.04127142507 -0.04658775828)
5(-0.0278686288 -0.02853399425 -0.03380216039 -0.04026397588 -0.04561156136)
5(-0.02609284686 -0.02705594259 -0.03251127157 -0.03894270175 -0.04456531474)
5(-0.02477372672 -0.02545102153 -0.03111813942 -0.03787000639 -0.04370887028)
5(-0.02286575439 -0.02393925426 -0.03000605811 -0.03700584767 -0.04292378158)
5(-0.02118628669 -0.02252454176 -0.02865961918 -0.03582896511 -0.04226069184)
5(-0.01960068171 -0.02125944337 -0.0274926134 -0.03507716309 -0.04165902269)
5(-0.01832898027 -0.02004634726 -0.02643956662 -0.03449253496 -0.04127164218)
5(-0.01673907015 -0.01867014264 -0.02565457893 -0.03392562983 -0.04116024791)
5(-0.0154557881 -0.01817881263 -0.0251071214 -0.03361691823 -0.04106460546)
5(-0.01443307632 -0.01714169392 -0.0244891141 -0.03332605876 -0.04131049606)
5(-0.01308889109 -0.01661827599 -0.02438454563 -0.03360587272 -0.04154213523)
5(-0.01225560008 -0.01629765412 -0.02434241246 -0.03385814684 -0.04226039889)
5(-0.01152161065 -0.01602109843 -0.02460584189 -0.034591849 -0.04302568589)
5(-0.01117557942 -0.01632740409 -0.02528012037 -0.03554547899 -0.04390726318)
5(-0.01103021612 -0.01707641755 -0.02609083986 -0.03672508926 -0.04521890933)
5(-0.01125818212 -0.01765900398 -0.02742979854 -0.0380745489 -0.04659458847)
5(-0.01175305183 -0.01897521723 -0.02917561054 -0.03975662189 -0.04793949401)
5(-0.01300878779 -0.02054326696 -0.03090861292 -0.04140157607 -0.0488805896)
5(-0.01410856951 -0.0225029809 -0.03279826426 -0.04289694531 -0.04977682253)
5(-0.0153178526 -0.02452179679 -0.03468078791 -0.04413644332 -0.04974684668)
5(-0.01678516746 -0.02667380761 -0.03654760628 -0.04461335686 -0.04895747293)
5(-0.01831801533 -0.0289120252 -0.03787124906 -0.04419866682 -0.04721620688)
5(-0.01974839161 -0.03052423908 -0.03817310565 -0.04272535525 -0.0442421286)
5(-0.02034176788 -0.03133040288 -0.037641835 -0.03992665013 -0.03982643863)
5(-0.02017883052 -0.03129645424 -0.03569567378 -0.03574361123 -0.03399129675)
5(-0.0190510479 -0.03016915961 -0.03235378496 -0.03048510514 -0.02745849307)
5(-0.01668636827 -0.02774466874 -0.02786635547 -0.02444450444 -0.02059219828)
5(-0.01355198356 -0.02393179412 -0.02254576984 -0.01812122334 -0.01414820535)
5(-0.009553154698 -0.01924008597 -0.01693591972 -0.01217466467 -0.008776978031)
5(-0.005739910277 -0.01427987558 -0.01158878086 -0.00740973897 -0.004779355646)
5(-0.001907750923 -0.009545381458 -0.007122158632 -0.003902850097 -0.002231501394)
5(0.001088090182 -0.005657108105 -0.003800290894 -0.001703492842 -0.0008701062235)
5(0.002654437518 -0.002932356544 -0.001686134463 -0.0006214283697 -0.0002820468455)
5(0.00292466366 -0.001295751381 -0.0006049607132 -0.0001822338063 -6.684288321e-05)
5(0.002381700056 -0.0003906938024 -0.0001708872605 -3.940275955e-05 -1.204365232e-05)
5(0.001362249799 -7.727223901e-05 -3.549870559e-05 -5.931557127e-06 -1.469028137e-06)
5(0.0005061072919 -1.101450412e-05 -4.704754608e-06 -5.858932691e-07 -1.096390618e-07)
5(0.0001678771774 7.875020861e-07 -3.495993344e-07 -3.269067051e-08 -4.999913579e-09)
5(2.867824724e-05 4.040491368e-07 -2.480706325e-08 -6.784497693e-10 -1.306739116e-10)
5(2.34074674e-06 2.863337211e-08 -3.629940655e-10 -1.701904053e-11 -2.322236113e-12)
5(1.633245072e-07 2.896901925e-08 5.178716519e-08 9.769481794e-11 4.014710935e-12)
5(5.386261319e-07 3.405753839e-07 4.009771607e-08 -1.170729233e-07 -9.28625843e-10)
)


60
(
5(-0.04405916399 -0.05592625929 -0.03345612298 -0.04306580401 -0.03870782445)
5(-0.04041074579 -0.04125067122 -0.03872803811 -0.04297565841 -0.04539555635)
5(-0.03772492548 -0.03409572929 -0.03885546598 -0.04182163927 -0.04804928809)
5(-0.03412259041 -0.02988174977 -0.03607212533 -0.03970410573 -0.04679959903)
5(-0.02896591855 -0.026587136 -0.03194841893 -0.03715411076 -0.04375259116)
5(-0.02383885214 -0.02370649565 -0.02847327846 -0.03485793038 -0.04077631845)
5(-0.02036396848 -0.02121669427 -0.02603417695 -0.03311454982 -0.03888105684)
5(-0.01781770473 -0.01916668729 -0.02454956913 -0.03175667545 -0.03791586949)
5(-0.01596974071 -0.01733794432 -0.02312378398 -0.03035003213 -0.0371110469)
5(-0.01396084453 -0.01549686668 -0.02183130277 -0.02898114333 -0.03606345115)
5(-0.01183988912 -0.01376613624 -0.02025678048 -0.02774682216 -0.03494020804)
5(-0.01005802869 -0.01222087848 -0.01885551414 -0.02662239389 -0.03383554357)
5(-0.008344825928 -0.01069504368 -0.017434519 -0.02537810406 -0.0327306424)
5(-0.006605585358 -0.009282745555 -0.01620261082 -0.02420564457 -0.03203296215)
5(-0.00480184592 -0.00804905301 -0.01492353126 -0.02321947538 -0.03102306091)
5(-0.003442956238 -0.00668536365 -0.01364535464 -0.02228950126 -0.03031607759)
5(-0.002183430214 -0.005501323851 -0.01246043969 -0.02121340771 -0.02948241064)
5(-0.0005396517815 -0.004294061231 -0.01149694866 -0.02045658822 -0.0287881171)
5(0.0005203667795 -0.0031069681 -0.01045987091 -0.01953165163 -0.02831420397)
5(0.001958506968 -0.002064817332 -0.009602043067 -0.01896301511 -0.02773869504)
5(0.003196571426 -0.001117402971 -0.008603934003 -0.01817607173 -0.02737038198)
5(0.004089995135 -4.917547086e-05 -0.007968103484 -0.01777236399 -0.02723587319)
5(0.005187228639 0.0007311551792 -0.007202458009 -0.01731992936 -0.02711483103)
5(0.006450586225 0.001483095756 -0.006903681792 -0.01709541192 -0.02721674251)
5(0.007299970023 0.001925716151 -0.006433244093 -0.01703366105 -0.02718951377)
5(0.008040686991 0.00251347036 -0.006145698856 -0.01724155749 -0.02775189366)
5(0.008776994645 0.002875769109 -0.006171872204 -0.01763983262 -0.02843026212)
5(0.009182233237 0.002949717433 -0.006465899481 -0.0182099591 -0.02919253442)
5(0.009450393684 0.002800596886 -0.007065721767 -0.01925461961 -0.03053940988)
5(0.009540749051 0.002284504258 -0.007862675208 -0.02041762272 -0.03177856231)
5(0.009343029602 0.001621169997 -0.009000650012 -0.02200323248 -0.03359710732)
5(0.008900733829 0.000591288107 -0.0108677041 -0.02397539163 -0.03544318171)
5(0.008073855405 -0.0009879029594 -0.01261168167 -0.02616455467 -0.03757752503)
5(0.006738060524 -0.00291126615 -0.01487259949 -0.0286411117 -0.03997247139)
5(0.00521138489 -0.005162273 -0.01747154861 -0.03142015324 -0.04261141053)
5(0.003328962071 -0.007677259044 -0.0204710115 -0.03424668731 -0.04499052062)
5(0.001299219409 -0.01063638291 -0.023894212 -0.03718789322 -0.04732807005)
5(-0.001101694633 -0.01395303843 -0.0271233929 -0.04001527572 -0.04922520227)
5(-0.003630811307 -0.01734018776 -0.0303005485 -0.04232457645 -0.05022038018)
5(-0.006066552332 -0.02061564204 -0.03319584116 -0.04388418885 -0.05058406416)
5(-0.008105816922 -0.02355791621 -0.03551501625 -0.04446369459 -0.04943277096)
5(-0.009668986647 -0.02593670031 -0.03696538666 -0.04361228784 -0.04673489088)
5(-0.01019606035 -0.02752534763 -0.03706121525 -0.04126772492 -0.04248393826)
5(-0.01003441243 -0.02808119044 -0.03569828712 -0.03747561962 -0.03661562415)
5(-0.008677905612 -0.02720123662 -0.03275063635 -0.03216049324 -0.02955665427)
5(-0.006366833559 -0.02498285584 -0.02852335648 -0.02581601067 -0.02229063427)
5(-0.003152459809 -0.02156323032 -0.02315495197 -0.01921871 -0.01564659107)
5(0.0001158409258 -0.01704752044 -0.01751807111 -0.01298511436 -0.00973458621)
5(0.003352921342 -0.01231021484 -0.01199201109 -0.007775226903 -0.00538682177)
5(0.00699924708 -0.007937393183 -0.007313360804 -0.00410156187 -0.002603952618)
5(0.008470648883 -0.004640995818 -0.003887890937 -0.001833109728 -0.001032636255)
5(0.00863854139 -0.002099296247 -0.0016835021 -0.0006603146895 -0.0003324574737)
5(0.007315150516 -0.0008378552606 -0.0005989102986 -0.0001946682834 -8.336150972e-05)
5(0.005674682756 -0.0001947278112 -0.0001764576274 -3.779593705e-05 -1.366389054e-05)
5(0.00326666517 3.145738072e-05 -3.530289021e-05 -5.441375673e-06 -1.640893872e-06)
5(0.001757745437 1.6693563e-05 -5.923994924e-06 -4.620652821e-07 -1.182710839e-07)
5(0.0005874039548 1.522415014e-05 -2.21594679e-07 -1.723087776e-08 -5.10497806e-09)
5(0.0001714181757 1.885847879e-06 -9.731235526e-09 -4.311305423e-10 -1.038880058e-10)
5(4.331642348e-05 2.61440925e-07 -3.516397581e-09 -2.916630038e-11 -1.146876678e-12)
5(8.021051654e-05 4.339045977e-07 -2.578651721e-07 -6.002329114e-10 6.768423711e-10)
)


60
(
5(-0.02365739702 -0.03364180963 -0.01768002647 -0.02695837315 -0.02695265562)
5(-0.01713144022 -0.01940403299 -0.02003866568 -0.02582383886 -0.03113716484)
5(-0.01357922332 -0.01284505438 -0.01891613354 -0.02419817039 -0.03248804745)
5(-0.01000824266 -0.009228367795 -0.0162025423 -0.02228985907 -0.03123934342)
5(-0.005629477786 -0.00642830246 -0.01280425385 -0.02010407901 -0.0286524835)
5(-0.001383485891 -0.003786263042 -0.01009767139 -0.01828731817 -0.02626074219)
5(0.001359207957 -0.001792392581 -0.007984970322 -0.01674849061 -0.02486011319)
5(0.003546981642 -7.718148182e-06 -0.006725768623 -0.01551257435 -0.02383404087)
5(0.005202521298 0.001667477877 -0.005422037049 -0.0143562381 -0.02318524587)
5(0.007018424697 0.002984847507 -0.004348387932 -0.01327439131 -0.02231752778)
5(0.008711271276 0.004565849997 -0.002965584418 -0.01224034541 -0.02147255863)
5(0.01029865519 0.005724242945 -0.001899244822 -0.0112519479 -0.02059310063)
5(0.01174748012 0.006938750753 -0.0006258356984 -0.01036938116 -0.01988684604)
5(0.01282029945 0.008060153641 0.0002125676597 -0.009544272516 -0.01921583775)
5(0.01427062109 0.009162335775 0.001270116875 -0.008787617477 -0.01870797619)
5(0.0155267033 0.01017279407 0.001945127361 -0.008139561522 -0.01825953722)
5(0.01658550199 0.01108208865 0.00292662437 -0.007468264123 -0.01779728442)
5(0.01754894416 0.01193352464 0.003730795446 -0.007211495076 -0.01745098284)
5(0.01863232685 0.01276678407 0.004284544484 -0.006501099232 -0.0172165551)
5(0.0194360212 0.01344614926 0.004885861119 -0.006215602216 -0.01707443929)
5(0.02034401082 0.01397268043 0.005351319821 -0.005935835136 -0.01709276048)
5(0.02112882395 0.01467183587 0.005726451146 -0.00583841306 -0.01725119782)
5(0.02161699913 0.01500856038 0.005853563978 -0.005968170453 -0.01752514071)
5(0.02226341179 0.01526408783 0.005980507526 -0.006184359373 -0.01800027553)
5(0.02274215722 0.01545962638 0.005942857418 -0.006641151455 -0.01856466913)
5(0.02290707081 0.01519141977 0.005534352954 -0.007236655534 -0.01952601901)
5(0.02323107053 0.01522890707 0.005023226084 -0.008143797067 -0.02056297422)
5(0.02309932165 0.01483238919 0.004255596357 -0.009344567995 -0.02189501224)
5(0.02277684357 0.01407445918 0.003185205999 -0.01074829233 -0.0236059538)
5(0.02225351074 0.01303886442 0.001773019195 -0.01249386014 -0.02548965642)
5(0.02162667775 0.01190422409 5.285507195e-05 -0.01462525448 -0.02778553708)
5(0.02054335828 0.0102949361 -0.00210028096 -0.01716010586 -0.03047991085)
5(0.01914616753 0.008358991056 -0.004651137157 -0.01992007685 -0.03315221807)
5(0.01751567541 0.005925410225 -0.007438721058 -0.02309737252 -0.03628086999)
5(0.01545259258 0.003186475481 -0.0107150718 -0.02662821217 -0.03963693183)
5(0.01317693471 0.0001321583323 -0.01427999513 -0.03034814432 -0.04295334488)
5(0.01063500358 -0.003467158232 -0.01830524454 -0.03417049674 -0.04617924614)
5(0.007897608826 -0.007156723296 -0.02236907884 -0.03795109662 -0.04933610696)
5(0.005176686229 -0.01092228365 -0.02653471398 -0.04152917702 -0.05198633442)
5(0.002767244871 -0.01481803733 -0.03055277592 -0.04443467847 -0.0535778931)
5(0.0004745574211 -0.01842198365 -0.03400882263 -0.04632735552 -0.0540359809)
5(-0.00120959594 -0.02157469425 -0.03664318804 -0.04723116832 -0.05351173542)
5(-0.002076299676 -0.02396293774 -0.03836397167 -0.04667305585 -0.05064957622)
5(-0.0023169121 -0.02538395052 -0.03854871924 -0.04438061704 -0.04612239421)
5(-0.001611280693 -0.02555391122 -0.03715321831 -0.04025603342 -0.0397350624)
5(0.0005829252794 -0.02434508171 -0.03400183236 -0.03468270334 -0.03251500095)
5(0.002079893655 -0.02187891468 -0.02951946198 -0.0278988146 -0.02465965215)
5(0.005363528403 -0.01814718281 -0.0239649797 -0.02056204997 -0.01705027985)
5(0.008869899452 -0.01395116553 -0.01803182512 -0.01403232228 -0.01078282183)
5(0.0115899507 -0.0100758787 -0.01243959729 -0.008407777613 -0.005962342537)
5(0.01403446768 -0.006345691764 -0.007479336766 -0.004331212444 -0.002841988358)
5(0.01571266782 -0.00338114531 -0.004036163475 -0.001867327325 -0.001131998683)
5(0.0151708877 -0.001320201573 -0.001679501129 -0.000683272542 -0.0003488782847)
5(0.0129867015 -0.0001879452119 -0.0006610267057 -0.0001764706178 -8.752432406e-05)
5(0.01030080926 0.0004069119918 -0.000188318414 -3.363678093e-05 -1.448564159e-05)
5(0.006307814227 0.0002044950884 -2.711225973e-05 -2.849500856e-06 -1.454408493e-06)
5(0.003851105727 0.0001416730572 -8.365805839e-06 -1.6546082e-07 -9.716474177e-08)
5(0.002043906683 3.322327716e-05 3.036503867e-07 1.738212261e-08 -3.519122611e-09)
5(0.001173484913 2.43733887e-05 3.437015946e-08 1.968616708e-09 9.620009799e-11)
5(0.001981552294 0.0001449625912 1.535678618e-05 6.804099246e-09 1.862351439e-09)
)


60
(
5(-0.008019325505 -0.01690621575 -0.005534477241 -0.01494859298 -0.01768875257)
5(3.513750133e-05 -0.003624708377 -0.006350694186 -0.01320224485 -0.02046843449)
5(0.003965782533 0.002087687048 -0.004576889861 -0.01146015599 -0.02096907401)
5(0.007035690792 0.00546183422 -0.002087141532 -0.009702197681 -0.01981222601)
5(0.01066826597 0.00808720672 0.0007805316864 -0.007905856951 -0.01771014149)
5(0.01424040379 0.01008297003 0.003174326548 -0.006302001087 -0.01573872105)
5(0.01672812882 0.01181067491 0.004655656953 -0.005117789232 -0.01457279762)
5(0.01845967188 0.01341534956 0.006014768561 -0.003993823156 -0.01377305673)
5(0.02002205555 0.01470765946 0.006853224087 -0.003136630715 -0.01319486)
5(0.02142012571 0.01606645646 0.008070958203 -0.002182561017 -0.0125677499)
5(0.02286405787 0.01709803952 0.008876565534 -0.001464054009 -0.01189644833)
5(0.02415310658 0.01821660483 0.01001172252 -0.0006422535769 -0.01133324334)
5(0.02534356906 0.01911714607 0.01070882302 -7.054491318e-05 -0.01078907443)