/*--------------------------------*- C++ -*----------------------------------*\
| =========                 |                                                 |
| \\      /  F ield         | OpenFOAM: The Open Source CFD Toolbox           |
|  \\    /   O peration     | Version:  2.3.1                                 |
|   \\  /    A nd           | Web:      www.OpenFOAM.org                      |
|    \\/     M anipulation  |                                                 |
\*---------------------------------------------------------------------------*/
FoamFile
{
    version     2.0;
    format      ascii;
    class       dictionary;
    location    "constant";
    object      PM62;
}
// * * * * * * * * * * * * * * * * * * * * * * * * * * * * * * * * * * * * * //

PM62_table
60
(

60
(
5(3.664145264e-08 5.322569453e-09 1.094907816e-08 2.205797523e-09 1.58583201e-09)
5(1.908958753e-08 1.646436936e-09 2.317376679e-09 9.458883435e-10 1.867910242e-09)
5(8.594627099e-10 4.57902483e-09 1.937226778e-09 4.791898556e-10 1.696262489e-10)
5(2.836772709e-09 4.987381517e-09 2.383319657e-09 7.592530733e-10 1.629577393e-09)
5(6.391263894e-09 3.78915062e-09 1.534067763e-09 1.071296388e-09 3.634440744e-10)
5(8.429579112e-09 2.479627587e-09 9.267193138e-10 7.846502411e-10 3.743247716e-10)
5(5.626822682e-09 2.314653329e-09 1.599298421e-09 7.187987382e-10 5.151044718e-10)
5(4.576908685e-09 2.663542313e-09 1.712051292e-09 6.761055027e-10 2.162065311e-10)
5(5.72317635e-09 2.536490851e-09 1.413726441e-09 6.40638803e-10 3.782230765e-10)
5(4.880221833e-09 2.505841633e-09 1.483237211e-09 5.448406731e-10 3.222255331e-10)
5(4.949456291e-09 2.243690362e-09 1.192133752e-09 5.041300928e-10 2.627737754e-10)
5(4.393186935e-09 2.051778477e-09 9.852529462e-10 4.550877775e-10 2.131612473e-10)
5(4.203914644e-09 1.906896496e-09 9.23670107e-10 4.030855874e-10 1.888228176e-10)
5(4.087356862e-09 1.690531156e-09 8.112552872e-10 3.222123077e-10 1.520013377e-10)
5(3.525547237e-09 1.490097019e-09 7.046443151e-10 2.900183012e-10 1.256949147e-10)
5(3.332568773e-09 1.335578007e-09 6.240201816e-10 2.381296094e-10 1.041985033e-10)
5(3.004153389e-09 1.151584757e-09 5.225365378e-10 1.979377214e-10 8.541737321e-11)
5(2.683930839e-09 9.919700568e-10 4.39869085e-10 1.615589447e-10 6.598896853e-11)
5(2.388184071e-09 8.652110362e-10 3.643056459e-10 1.283819654e-10 5.008541458e-11)
5(2.145345904e-09 7.36606254e-10 2.973213042e-10 1.022055247e-10 3.688805516e-11)
5(1.806004629e-09 5.822599559e-10 2.304079592e-10 7.381941716e-11 2.693763819e-11)
5(1.565096108e-09 4.766486355e-10 1.796264706e-10 5.269608438e-11 1.968293116e-11)
5(1.338214321e-09 3.862723845e-10 1.377459836e-10 4.216890685e-11 1.493863713e-11)
5(1.084346066e-09 3.064915514e-10 1.035569675e-10 3.043540539e-11 1.065596685e-11)
5(8.888272331e-10 2.326420369e-10 7.878565158e-11 2.290061655e-11 8.033526494e-12)
5(6.987268758e-10 1.736860648e-10 5.786710718e-11 1.712899759e-11 6.223379654e-12)
5(5.379044745e-10 1.268549047e-10 4.115644483e-11 1.330736916e-11 5.461273992e-12)
5(4.161220774e-10 9.388705002e-11 3.117582192e-11 1.123330871e-11 5.473646256e-12)
5(3.198459384e-10 6.895974753e-11 2.383036042e-11 1.070418489e-11 6.256128272e-12)
5(2.385165514e-10 5.293702438e-11 2.081767141e-11 1.175958993e-11 7.795877952e-12)
5(1.78323326e-10 4.327079295e-11 2.109643997e-11 1.460877352e-11 9.893951678e-12)
5(1.329043898e-10 3.924739488e-11 2.351916518e-11 1.800704898e-11 1.259607687e-11)
5(1.04809051e-10 4.175981757e-11 2.985122396e-11 2.453810683e-11 1.836274692e-11)
5(8.933896097e-11 4.92161307e-11 3.878473381e-11 3.135386783e-11 2.089633471e-11)
5(8.453573321e-11 6.10313928e-11 5.070029139e-11 4.083279404e-11 2.762703661e-11)
5(8.922189739e-11 7.875942987e-11 6.573252836e-11 4.993409061e-11 3.324754242e-11)
5(1.01745704e-10 9.559024423e-11 7.542497062e-11 5.899480505e-11 3.504429156e-11)
5(1.219636265e-10 1.196694191e-10 9.31032983e-11 6.445079797e-11 3.112688263e-11)
5(1.461004987e-10 1.394992711e-10 1.066803244e-10 6.881861574e-11 2.973243351e-11)
5(1.707072757e-10 1.546400881e-10 1.112984586e-10 5.564617781e-11 9.990331176e-12)
5(1.849339972e-10 1.544716634e-10 9.955861573e-11 4.226047198e-11 1.198463545e-11)
5(1.895611399e-10 1.438052019e-10 8.024086859e-11 2.050144863e-11 9.779856772e-12)
5(1.783138919e-10 1.202061965e-10 5.785229099e-11 1.095138747e-11 8.204300854e-12)
5(1.549824912e-10 9.602025985e-11 4.454586555e-11 9.002997059e-12 4.090342811e-12)
5(1.162082214e-10 6.194066745e-11 2.196694368e-11 4.634115541e-12 1.550186105e-12)
5(7.661291587e-11 3.472020131e-11 7.589920159e-12 1.96207741e-12 4.632729473e-13)
5(4.225538374e-11 1.281463408e-11 1.771945741e-12 7.333552366e-13 1.058113946e-13)
5(1.854359136e-11 4.349187618e-12 7.484130656e-13 1.857325274e-13 1.651878743e-14)
5(7.616105031e-12 1.11227257e-12 1.978369696e-13 3.142381708e-14 1.899571436e-15)
5(1.708681767e-12 1.450767373e-13 4.24629465e-14 3.538040993e-15 1.702498929e-16)
5(2.903130048e-13 3.695358769e-14 4.769870866e-15 2.906727318e-16 1.081302838e-17)
5(3.15822579e-14 4.844598448e-15 3.593654553e-16 1.715706617e-17 5.562616503e-19)
5(4.38674189e-15 3.563981897e-16 1.932379146e-17 7.960470263e-19 2.169947567e-20)
5(2.33349504e-16 1.319267925e-17 5.98811563e-19 3.401692901e-20 6.731322516e-22)
5(6.332181162e-18 -1.445391593e-18 1.286931029e-20 1.182938404e-18 1.401857178e-23)
5(5.864477061e-20 -2.649890763e-16 9.989062995e-20 3.839801299e-16 1.972544037e-25)
5(2.535175543e-22 -3.140983125e-14 -1.267086309e-17 1.166876596e-13 8.740918147e-28)
5(4.088449575e-25 2.154157595e-12 -1.036801807e-16 3.112596165e-11 1.632964209e-30)
5(2.237546632e-29 -1.149601565e-10 -3.101931839e-13 -3.421651878e-11 7.714811958e-33)
5(9.397225422e-36 5.757677675e-35 6.085648812e-36 4.833174469e-34 1.742726976e-33)
)


60
(
5(8.294779641e-08 1.902785042e-08 1.979646044e-08 5.822941436e-09 2.508775503e-09)
5(3.902081329e-08 9.951415723e-09 8.360463921e-09 3.4469225e-09 1.311963686e-09)
5(1.507644965e-08 1.252819586e-08 6.329516365e-09 2.634109195e-09 7.059904698e-10)
5(1.054202038e-08 1.377127966e-08 7.397842184e-09 2.225174986e-09 1.63322535e-09)
5(1.582697794e-08 1.347821468e-08 7.459274763e-09 2.723676649e-09 1.347819948e-09)
5(2.856108497e-08 1.29909724e-08 5.468724633e-09 2.683706282e-09 1.155581766e-09)
5(3.348618029e-08 1.248492978e-08 5.500540883e-09 2.358423971e-09 1.216135335e-09)
5(2.69485736e-08 1.215655257e-08 5.952557685e-09 2.302787668e-09 9.083940723e-10)
5(2.993310859e-08 1.198651424e-08 5.409167357e-09 2.180902601e-09 9.180949144e-10)
5(2.857270173e-08 1.177502598e-08 5.503947849e-09 1.992805518e-09 8.622085289e-10)
5(2.883994521e-08 1.12387332e-08 5.107576332e-09 1.841680673e-09 7.896900592e-10)
5(2.806758488e-08 1.060698297e-08 4.529145985e-09 1.671276812e-09 6.922767511e-10)
5(2.572535915e-08 9.921168811e-09 4.07974024e-09 1.524572742e-09 6.146749099e-10)
5(2.575556854e-08 9.17696999e-09 3.705541059e-09 1.308764975e-09 5.251771429e-10)
5(2.333468096e-08 8.274052428e-09 3.252005876e-09 1.153200865e-09 4.467007906e-10)
5(2.236988774e-08 7.509940854e-09 2.896540377e-09 9.908525291e-10 3.770066989e-10)
5(2.051405938e-08 6.716110715e-09 2.509418503e-09 8.353747943e-10 3.138738841e-10)
5(1.887479889e-08 5.905597246e-09 2.14988549e-09 6.997321503e-10 2.570329088e-10)
5(1.709956846e-08 5.132381722e-09 1.807865591e-09 5.721637034e-10 2.060390137e-10)
5(1.554095004e-08 4.46715668e-09 1.514365138e-09 4.684187731e-10 1.618040998e-10)
5(1.40115217e-08 3.732712913e-09 1.220021448e-09 3.694436285e-10 1.245407452e-10)
5(1.208777564e-08 3.089565983e-09 9.808255688e-10 2.784518932e-10 9.317151397e-11)
5(1.074399631e-08 2.536881958e-09 7.669950201e-10 2.147697142e-10 7.049220918e-11)
5(9.060654571e-09 2.051580063e-09 5.887919477e-10 1.601381212e-10 5.164163678e-11)
5(7.786168422e-09 1.616110779e-09 4.451627182e-10 1.188323856e-10 3.79234995e-11)
5(6.425498395e-09 1.244783531e-09 3.326141464e-10 8.654138808e-11 2.775619769e-11)
5(5.287248739e-09 9.399354677e-10 2.370175518e-10 6.245892002e-11 2.076541449e-11)
5(4.372249261e-09 6.969994393e-10 1.694379807e-10 4.526585152e-11 1.659609418e-11)
5(3.473327396e-09 5.12630855e-10 1.18614096e-10 3.411107249e-11 1.460538111e-11)
5(2.770760111e-09 3.725915698e-10 8.362401102e-11 2.763200176e-11 1.457047797e-11)
5(2.164097407e-09 2.659987891e-10 6.220653647e-11 2.604920004e-11 1.65485254e-11)
5(1.669139903e-09 1.919465002e-10 4.992033931e-11 2.740344661e-11 1.968489907e-11)
5(1.250386679e-09 1.457213786e-10 4.663177107e-11 3.286649053e-11 2.679974622e-11)
5(9.335569442e-10 1.168755154e-10 5.060592829e-11 4.183327398e-11 3.436969188e-11)
5(6.874568769e-10 1.045860838e-10 6.068476397e-11 5.5027825e-11 4.578148296e-11)
5(5.409560539e-10 1.071962758e-10 7.93604863e-11 7.245378966e-11 5.96205606e-11)
5(3.915006368e-10 1.192554923e-10 9.861427701e-11 9.102258054e-11 7.519513472e-11)
5(3.091039247e-10 1.441100521e-10 1.253845308e-10 1.130322333e-10 8.294960711e-11)
5(2.671722008e-10 1.744382137e-10 1.545517575e-10 1.300460115e-10 9.783827671e-11)
5(2.60036598e-10 2.077591856e-10 1.811173312e-10 1.414126102e-10 8.080799491e-11)
5(2.728213032e-10 2.328173957e-10 1.907644216e-10 1.379306398e-10 7.464197703e-11)
5(2.854597788e-10 2.45278867e-10 1.863515447e-10 1.138510507e-10 6.049205779e-11)
5(2.935621453e-10 2.348728343e-10 1.631982967e-10 7.776592468e-11 4.304458861e-11)
5(2.814239514e-10 2.073184383e-10 1.343629688e-10 5.411863276e-11 2.646843981e-11)
5(2.455843078e-10 1.605170986e-10 8.968099725e-11 3.212417387e-11 1.33970353e-11)
5(1.882860037e-10 1.092325272e-10 5.05484821e-11 1.612723569e-11 5.494488526e-12)
5(1.264058488e-10 6.224640059e-11 2.11326642e-11 6.570034658e-12 1.794341257e-12)
5(7.134274784e-11 2.851593603e-11 7.956373707e-12 2.118113859e-12 4.420484989e-13)
5(3.387991444e-11 1.110992333e-11 2.455737706e-12 5.301032226e-13 8.223088184e-14)
5(1.271788702e-11 2.849259033e-12 5.7547539e-13 9.524255348e-14 1.091221307e-14)
5(3.557796056e-12 6.288285428e-13 9.716837357e-14 1.25423067e-14 1.006225836e-15)
5(6.120466856e-13 9.505157011e-14 1.074942624e-14 1.102750837e-15 7.396437717e-17)
5(7.484803726e-14 9.509881351e-15 7.789408078e-16 6.650865963e-17 3.568579229e-18)
5(5.885241636e-15 5.456677463e-16 3.275337895e-17 2.144217171e-18 1.15078746e-19)
5(2.537067885e-16 1.803699378e-17 5.135939983e-19 -7.067309725e-17 2.202959743e-19)
5(6.881581541e-17 -8.757173971e-15 -2.557308936e-17 -1.458548971e-14 5.782474689e-17)
5(3.928068136e-15 -3.892181038e-12 1.626275061e-15 -2.843473715e-12 1.427814285e-14)
5(6.474612917e-14 -1.485378511e-09 2.515312594e-12 -8.593049266e-10 2.695643662e-12)
5(-2.515752061e-11 -8.653267103e-07 -3.865867276e-12 -2.785023573e-07 -2.332788614e-12)
5(-6.003593641e-30 3.774389965e-11 8.263048668e-14 1.590485213e-11 3.776245088e-33)
)


60
(
5(2.73203647e-07 7.277393294e-08 5.144227447e-08 1.508941383e-08 5.164549433e-09)
5(1.980228476e-07 7.344327491e-08 3.300681416e-08 1.184414092e-08 3.503596444e-09)
5(1.774879396e-07 7.42876494e-08 2.869430466e-08 1.088311527e-08 3.276718396e-09)
5(1.816366138e-07 7.610128542e-08 2.934327153e-08 1.083611881e-08 3.411512078e-09)
5(1.999628595e-07 7.877650652e-08 3.15961504e-08 1.108865099e-08 3.640925489e-09)
5(2.214838422e-07 8.093599991e-08 3.295013415e-08 1.110603543e-08 3.704849664e-09)
5(2.313059268e-07 8.090429605e-08 3.226150262e-08 1.081565962e-08 3.535376385e-09)
5(2.314423221e-07 7.960767135e-08 3.085752731e-08 1.029595547e-08 3.29170248e-09)
5(2.305770351e-07 7.735236367e-08 2.912479036e-08 9.644018377e-09 3.069824639e-09)
5(2.300621792e-07 7.442855883e-08 2.760706105e-08 9.025099293e-09 2.860834774e-09)
5(2.258769328e-07 7.147691995e-08 2.604670448e-08 8.380857703e-09 2.653393207e-09)
5(2.248568134e-07 6.768689259e-08 2.435694384e-08 7.691478325e-09 2.425207786e-09)
5(2.207987051e-07 6.355444516e-08 2.240377029e-08 6.939891886e-09 2.171812595e-09)
5(2.124497458e-07 5.894825699e-08 2.029319773e-08 6.182542875e-09 1.928909662e-09)
5(2.015208449e-07 5.415588406e-08 1.810641375e-08 5.442044114e-09 1.67346616e-09)
5(1.926289996e-07 4.925412652e-08 1.599566291e-08 4.728317475e-09 1.441286705e-09)
5(1.838551228e-07 4.418539951e-08 1.397568733e-08 4.041099168e-09 1.219954697e-09)
5(1.708013889e-07 3.928398331e-08 1.205757698e-08 3.41362377e-09 1.019273276e-09)
5(1.612184216e-07 3.441621844e-08 1.024549033e-08 2.838239157e-09 8.414982406e-10)
5(1.484753281e-07 2.993156267e-08 8.587012529e-09 2.329088369e-09 6.811760202e-10)
5(1.368165481e-07 2.573545468e-08 7.059835286e-09 1.8750525e-09 5.430215039e-10)
5(1.257915256e-07 2.167798187e-08 5.730928564e-09 1.487451415e-09 4.261513221e-10)
5(1.143355477e-07 1.813491959e-08 4.569928304e-09 1.152432962e-09 3.29748481e-10)
5(1.009501386e-07 1.500097071e-08 3.582078712e-09 8.775699073e-10 2.508086903e-10)
5(8.952519877e-08 1.225999757e-08 2.74470958e-09 6.588538212e-10 1.867002993e-10)
5(7.951353981e-08 9.845635092e-09 2.06826328e-09 4.860063255e-10 1.39029203e-10)
5(6.938112606e-08 7.855488895e-09 1.528811433e-09 3.519599293e-10 1.039862826e-10)
5(6.08668301e-08 6.197307709e-09 1.113360843e-09 2.528560114e-10 7.821879462e-11)
5(5.163241412e-08 4.823774692e-09 7.982555589e-10 1.823398282e-10 6.271607476e-11)
5(4.340856508e-08 3.742571156e-09 5.653632085e-10 1.335156168e-10 5.277595165e-11)
5(3.634613434e-08 2.871150903e-09 4.016248408e-10 1.031293921e-10 5.00154925e-11)
5(2.97498167e-08 2.196842051e-09 2.920709962e-10 8.713426264e-11 5.223248081e-11)
5(2.367449936e-08 1.668831568e-09 2.185188213e-10 8.238413451e-11 6.011759932e-11)
5(1.884663306e-08 1.253974788e-09 1.748445479e-10 8.752595221e-11 7.326545938e-11)
5(1.418271953e-08 9.51336139e-10 1.550948772e-10 1.018450874e-10 9.296107255e-11)
5(1.059749081e-08 7.12236842e-10 1.54761343e-10 1.250168991e-10 1.174837997e-10)
5(7.705496675e-09 5.53948526e-10 1.711338458e-10 1.559179396e-10 1.472788476e-10)
5(5.263994495e-09 4.523519009e-10 2.000315457e-10 1.932379987e-10 1.789769788e-10)
5(3.603436759e-09 3.938180649e-10 2.39428691e-10 2.322530268e-10 2.058198797e-10)
5(2.343207197e-09 3.755567833e-10 2.824960342e-10 2.652032018e-10 2.206542328e-10)
5(1.444908069e-09 3.812543199e-10 3.196483394e-10 2.830823561e-10 2.158841756e-10)
5(9.90968736e-10 3.972659545e-10 3.398813203e-10 2.767407999e-10 1.915438824e-10)
5(7.06397847e-10 4.044839268e-10 3.322038235e-10 2.439500331e-10 1.515513672e-10)
5(5.66409368e-10 3.868180158e-10 2.932912949e-10 1.906586973e-10 1.058066743e-10)
5(4.811546116e-10 3.379866772e-10 2.292134555e-10 1.30305117e-10 6.350230575e-11)
5(4.057949743e-10 2.633242917e-10 1.553128667e-10 7.656469256e-11 3.190509122e-11)
5(3.161079877e-10 1.793784247e-10 8.90948347e-11 3.800301439e-11 1.323109392e-11)
5(2.181014244e-10 1.033897504e-10 4.280565375e-11 1.534462007e-11 4.345485503e-12)
5(1.280086417e-10 4.902866194e-11 1.649409015e-11 4.940920113e-12 1.123634377e-12)
5(6.258834992e-11 1.860321767e-11 4.838171631e-12 1.199372783e-12 2.174222781e-13)
5(2.44313173e-11 5.3819869e-12 1.078108811e-12 2.192191602e-13 2.972845803e-14)
5(7.166393194e-12 1.092373758e-12 1.702713533e-13 2.689880393e-14 2.600124422e-15)
5(1.378747763e-12 1.524299245e-13 1.721413406e-14 2.217690677e-15 1.768444756e-16)
5(1.685620984e-13 1.305457181e-14 1.022054326e-15 1.309804507e-16 7.367029286e-18)
5(1.194930731e-14 3.022969567e-15 1.865899179e-17 2.22850829e-15 3.428988628e-18)
5(-6.543118652e-15 4.237138389e-13 -2.569954117e-15 4.260207001e-13 7.883690798e-16)
5(-1.675201054e-12 7.51668309e-11 -4.530275906e-13 9.087004323e-11 2.189042827e-13)
5(-5.517793145e-10 4.185013258e-09 -3.133032473e-11 2.060349998e-08 7.517771037e-11)
5(-3.318858735e-07 4.367610434e-06 1.01575091e-08 2.858257622e-06 3.41736813e-08)
5(4.890380326e-27 0.01606604885 1.436480278e-12 0.009843130649 6.661873459e-33)
)


60
(
5(6.396948173e-07 1.698188242e-07 9.754996561e-08 2.810428713e-08 8.618970047e-09)
5(5.510307078e-07 1.838622714e-07 7.344049622e-08 2.421362416e-08 6.537772668e-09)
5(5.363524942e-07 1.900768585e-07 6.828358165e-08 2.310031165e-08 6.373823108e-09)
5(5.580680815e-07 1.960040357e-07 6.982859091e-08 2.313983562e-08 6.629042573e-09)
5(6.131447621e-07 2.022252164e-07 7.34165725e-08 2.348624115e-08 6.982873438e-09)
5(6.711193027e-07 2.061331604e-07 7.507142515e-08 2.339668462e-08 7.067062634e-09)
5(7.078621982e-07 2.058194097e-07 7.350017583e-08 2.273671805e-08 6.801786073e-09)
5(7.186209626e-07 2.027866505e-07 7.043733903e-08 2.167718644e-08 6.405202755e-09)
5(7.23020023e-07 1.980375198e-07 6.697273615e-08 2.053188757e-08 6.039985704e-09)
5(7.305087577e-07 1.926666622e-07 6.348427305e-08 1.931259727e-08 5.720105625e-09)
5(7.274526597e-07 1.843504141e-07 5.991717891e-08 1.803785535e-08 5.359281163e-09)
5(7.295538252e-07 1.758452778e-07 5.594296147e-08 1.662244071e-08 4.958037682e-09)
5(7.239445626e-07 1.662121034e-07 5.155513608e-08 1.514645588e-08 4.516826729e-09)
5(7.289542053e-07 1.549559111e-07 4.693826526e-08 1.360726057e-08 4.049059001e-09)
5(7.003204841e-07 1.434420903e-07 4.227046972e-08 1.208323838e-08 3.600626705e-09)
5(6.753377535e-07 1.316563995e-07 3.771240329e-08 1.059127858e-08 3.153900699e-09)
5(6.603356624e-07 1.202428216e-07 3.308489225e-08 9.183350082e-09 2.715371808e-09)
5(6.372008748e-07 1.085494022e-07 2.869562182e-08 7.88212807e-09 2.315596814e-09)
5(6.11287666e-07 9.72903031e-08 2.472841396e-08 6.631943061e-09 1.94303238e-09)
5(5.860023641e-07 8.676433751e-08 2.09813717e-08 5.522758629e-09 1.613450373e-09)
5(5.565727094e-07 7.687624875e-08 1.757693725e-08 4.520386891e-09 1.311632265e-09)
5(5.234034768e-07 6.740270273e-08 1.454449625e-08 3.654360824e-09 1.059720912e-09)
5(4.950913013e-07 5.897452754e-08 1.193430091e-08 2.913147147e-09 8.398322431e-10)
5(4.667438087e-07 5.116065854e-08 9.64538235e-09 2.279336703e-09 6.523423923e-10)
5(4.280969568e-07 4.420637345e-08 7.6765654e-09 1.751737409e-09 5.01604896e-10)
5(3.976660446e-07 3.835467728e-08 6.05001228e-09 1.327806052e-09 3.822519309e-10)
5(3.570514093e-07 3.237381161e-08 4.739843478e-09 9.90698421e-10 2.865683635e-10)
5(3.236137548e-07 2.759283764e-08 3.683111628e-09 7.327376238e-10 2.158712447e-10)
5(2.885337324e-07 2.356848383e-08 2.82676645e-09 5.354756979e-10 1.646171795e-10)
5(2.589651875e-07 1.978792948e-08 2.166129557e-09 3.928066268e-10 1.29609655e-10)
5(2.241255469e-07 1.630382713e-08 1.671187841e-09 2.906326689e-10 1.073307322e-10)
5(1.884049395e-07 1.348127937e-08 1.289886004e-09 2.229560021e-10 9.646622659e-11)
5(1.565888274e-07 1.090737602e-08 9.894958389e-10 1.797438573e-10 9.332003254e-11)
5(1.277096821e-07 8.807726936e-09 7.572602838e-10 1.575456045e-10 9.922453188e-11)
5(1.035593886e-07 6.902944697e-09 5.923793011e-10 1.511066749e-10 1.136263683e-10)
5(8.051975831e-08 5.230911244e-09 4.745548733e-10 1.58596026e-10 1.362046457e-10)
5(5.962278383e-08 3.987557187e-09 3.960746064e-10 1.793994199e-10 1.665718421e-10)
5(4.279688673e-08 2.936088718e-09 3.527515029e-10 2.120217075e-10 2.036751645e-10)
5(2.891922732e-08 2.014775617e-09 3.406378333e-10 2.532019952e-10 2.426267176e-10)
5(1.87251925e-08 1.41765207e-09 3.519041486e-10 2.971740634e-10 2.742117656e-10)
5(1.154926325e-08 1.016424713e-09 3.782772927e-10 3.344011662e-10 2.889723347e-10)
5(6.607154606e-09 7.716459301e-10 4.057748338e-10 3.522051559e-10 2.816840252e-10)
5(3.629582364e-09 6.412522902e-10 4.179407712e-10 3.400359971e-10 2.477674868e-10)
5(2.027276573e-09 5.579534455e-10 4.005517897e-10 2.970581088e-10 1.957500412e-10)
5(1.149507453e-09 4.915580158e-10 3.463613566e-10 2.305583919e-10 1.361480892e-10)
5(7.572091291e-10 4.140890494e-10 2.665731005e-10 1.566820184e-10 8.162927467e-11)
5(5.579195449e-10 3.17565266e-10 1.776456029e-10 9.216318459e-11 4.094237009e-11)
5(4.14659486e-10 2.148410154e-10 1.001567088e-10 4.50864447e-11 1.687334272e-11)
5(2.87379924e-10 1.237519553e-10 4.690289896e-11 1.793462658e-11 5.508988022e-12)
5(1.750997853e-10 5.903363714e-11 1.749717365e-11 5.729334959e-12 1.380240168e-12)
5(8.940343116e-11 2.236642067e-11 4.99826636e-12 1.361420575e-12 2.611036039e-13)
5(3.728725365e-11 6.220211664e-12 1.039472281e-12 2.378643531e-13 3.853181226e-14)
5(1.232292236e-11 1.322490984e-12 1.484169728e-13 2.689508373e-14 2.740820178e-15)
5(2.771115639e-12 1.922353325e-13 1.295139537e-14 1.877725365e-15 1.848181416e-16)
5(3.410968827e-13 2.562103862e-14 6.819157433e-16 -3.802290303e-15 -1.123204872e-16)
5(1.044420878e-13 2.505768325e-12 -3.549655503e-15 -4.727741923e-13 -1.854318491e-14)
5(1.480851621e-11 8.816920703e-10 -2.821177373e-12 -1.911532062e-11 -3.683181994e-12)
5(4.654432771e-09 5.272022322e-07 -1.975643925e-09 4.956087672e-08 -1.000259341e-09)
5(2.976736148e-06 0.00292689732 -2.336866263e-07 0.0004604859915 -5.139555676e-07)
5(0.01464477802 0.007643096248 -0.002136395753 0.00203268089 -0.005023569388)
)


60
(
5(1.267758334e-06 3.210494743e-07 1.57377578e-07 4.476419022e-08 1.298596726e-08)
5(1.232679346e-06 3.606646854e-07 1.297425535e-07 4.052365568e-08 1.052992961e-08)
5(1.251118864e-06 3.76974251e-07 1.248196339e-07 3.945186832e-08 1.050677018e-08)
5(1.328626855e-06 3.883552217e-07 1.277045182e-07 3.963207878e-08 1.100414597e-08)
5(1.473925708e-06 4.000679669e-07 1.322420462e-07 4.003070884e-08 1.152435563e-08)
5(1.629981937e-06 4.091868496e-07 1.336933766e-07 3.980796888e-08 1.163233604e-08)
5(1.720998614e-06 4.107739654e-07 1.311726088e-07 3.87072141e-08 1.125491727e-08)
5(1.784880983e-06 4.062298562e-07 1.260934744e-07 3.711245054e-08 1.071225864e-08)
5(1.818677092e-06 3.992699122e-07 1.206385581e-07 3.538950364e-08 1.022778105e-08)
5(1.861612085e-06 3.896314265e-07 1.147490464e-07 3.357634767e-08 9.763020649e-09)
5(1.901894325e-06 3.790353398e-07 1.087659163e-07 3.155051641e-08 9.273892723e-09)
5(1.925830136e-06 3.647852124e-07 1.019793278e-07 2.933048623e-08 8.670440254e-09)
5(1.955160695e-06 3.491978134e-07 9.470851282e-08 2.695858357e-08 8.029014404e-09)
5(1.952182034e-06 3.319450868e-07 8.6904071e-08 2.448186837e-08 7.285640612e-09)
5(1.969990524e-06 3.13186329e-07 7.9051216e-08 2.197515447e-08 6.579327956e-09)
5(1.958276626e-06 2.943028973e-07 7.136801222e-08 1.95176162e-08 5.840118769e-09)
5(1.937996424e-06 2.742502152e-07 6.381448263e-08 1.716146925e-08 5.139652981e-09)
5(1.938994866e-06 2.560396533e-07 5.658703962e-08 1.48748644e-08 4.459421758e-09)
5(1.887819407e-06 2.374716295e-07 4.962921455e-08 1.27682167e-08 3.807002038e-09)
5(1.864946745e-06 2.198661382e-07 4.32802098e-08 1.082508631e-08 3.23595323e-09)
5(1.823297088e-06 2.028132235e-07 3.74421088e-08 9.073091232e-09 2.689711882e-09)
5(1.75350786e-06 1.864069783e-07 3.210231686e-08 7.522608634e-09 2.207690582e-09)
5(1.718428602e-06 1.713267856e-07 2.749195478e-08 6.144472068e-09 1.788423373e-09)
5(1.654179601e-06 1.574173329e-07 2.336686321e-08 4.952163904e-09 1.430403242e-09)
5(1.562015258e-06 1.43810336e-07 1.977386634e-08 3.955410719e-09 1.13021038e-09)
5(1.48445503e-06 1.304006528e-07 1.676642913e-08 3.114056805e-09 8.809158106e-10)
5(1.411888483e-06 1.184667914e-07 1.417731362e-08 2.423401914e-09 6.784892632e-10)
5(1.307511658e-06 1.072093202e-07 1.187445237e-08 1.881925361e-09 5.23792619e-10)
5(1.173390775e-06 9.576919298e-08 9.897640027e-09 1.448759089e-09 3.972375339e-10)
5(1.069686372e-06 8.36962361e-08 8.324722293e-09 1.105889058e-09 3.064994354e-10)
5(9.540788183e-07 7.400256995e-08 7.014098701e-09 8.529678828e-10 2.419019021e-10)
5(8.407185363e-07 6.50519325e-08 5.784621204e-09 6.600005672e-10 1.968898427e-10)
5(7.197374936e-07 5.461218218e-08 4.755532296e-09 5.192729449e-10 1.683961216e-10)
5(5.934630134e-07 4.553390293e-08 3.869379909e-09 4.175985627e-10 1.573722028e-10)
5(4.917808607e-07 3.706173809e-08 3.138646901e-09 3.463649413e-10 1.550069347e-10)
5(3.861552759e-07 2.974511476e-08 2.496234683e-09 3.037325638e-10 1.663612431e-10)
5(3.037270577e-07 2.328343835e-08 1.911032249e-09 2.840971621e-10 1.884821842e-10)
5(2.230333956e-07 1.721816388e-08 1.464872175e-09 2.827020813e-10 2.211803465e-10)
5(1.597556828e-07 1.225119255e-08 1.125996255e-09 2.996192122e-10 2.630536465e-10)
5(1.075828816e-07 8.472962362e-09 8.630793631e-10 3.328228195e-10 3.046882332e-10)
5(6.817574865e-08 5.505769078e-09 7.0457691e-10 3.715801483e-10 3.365884208e-10)
5(4.025495763e-08 3.495937539e-09 6.113274787e-10 4.038616922e-10 3.509623977e-10)
5(2.269107929e-08 2.194612443e-09 5.662980438e-10 4.150726805e-10 3.360683466e-10)
5(1.157389983e-08 1.377803599e-09 5.290347448e-10 3.942821513e-10 2.922539413e-10)
5(5.53124169e-09 9.419690097e-10 4.779520916e-10 3.392790476e-10 2.281013704e-10)
5(2.647714414e-09 6.974846707e-10 4.012700855e-10 2.597059413e-10 1.557967109e-10)
5(1.439826585e-09 5.329862749e-10 3.02349597e-10 1.738500866e-10 9.0633235e-11)
5(8.129594656e-10 3.925296144e-10 1.975939173e-10 1.004155929e-10 4.513338492e-11)
5(5.475923041e-10 2.6299615e-10 1.103762896e-10 4.822081183e-11 1.808290191e-11)
5(3.854715595e-10 1.537678565e-10 5.077467277e-11 1.853010987e-11 5.664844379e-12)
5(2.384944876e-10 7.452759422e-11 1.853058021e-11 5.590821399e-12 1.356730613e-12)
5(1.301123106e-10 3.016305926e-11 5.151262834e-12 1.255956641e-12 2.423167449e-13)
5(5.758248389e-11 8.791624652e-12 1.063989486e-12 1.923444751e-13 2.806218286e-14)
5(2.194567345e-11 1.971235034e-12 1.392014916e-13 2.015831647e-14 2.340246365e-15)
5(5.402401549e-12 3.40808175e-13 1.093577833e-14 5.08908574e-15 -1.095104611e-16)
5(1.445041563e-12 5.373548123e-12 -1.09693169e-14 8.331211225e-13 -2.533613212e-14)
5(1.738075542e-11 1.449255437e-09 -3.213519233e-12 2.299664151e-10 -3.934597009e-12)
5(4.735006793e-09 5.946065527e-07 -3.874290937e-10 8.511591463e-08 -8.167584602e-10)
5(2.308193757e-06 -4.878609884e-06 -3.819347393e-07 -2.876938027e-06 -3.045493062e-07)
5(8.657266055e-16 -0.01570460784 -8.198081065e-12 -0.008698100586 7.083153471e-05)
)


60
(
5(2.285908132e-06 5.368002987e-07 2.316363157e-07 6.518708082e-08 1.855487516e-08)
5(2.441443874e-06 6.242651097e-07 2.021365269e-07 6.076552026e-08 1.570112684e-08)
5(2.575255953e-06 6.580437887e-07 1.984001053e-07 5.99327635e-08 1.588173547e-08)
5(2.809631509e-06 6.796873069e-07 2.033872498e-07 6.032459939e-08 1.664949928e-08)
5(3.157229872e-06 7.036460052e-07 2.094015047e-07 6.085841429e-08 1.746575245e-08)
5(3.533669784e-06 7.272402657e-07 2.111910878e-07 6.048107541e-08 1.767153844e-08)
5(3.770753212e-06 7.362293941e-07 2.080057873e-07 5.906734331e-08 1.710798598e-08)
5(3.986946928e-06 7.381709899e-07 2.011201193e-07 5.699661727e-08 1.65010599e-08)
5(4.100346738e-06 7.35171672e-07 1.938837986e-07 5.477694297e-08 1.586773974e-08)
5(4.312323406e-06 7.272879937e-07 1.8601503e-07 5.233929535e-08 1.532021121e-08)
5(4.45369058e-06 7.193863553e-07 1.782945112e-07 4.971759491e-08 1.469168566e-08)
5(4.645396866e-06 7.053851905e-07 1.691570798e-07 4.670355514e-08 1.393732841e-08)
5(4.751176271e-06 6.909890818e-07 1.595434496e-07 4.342884408e-08 1.304818326e-08)
5(4.853191249e-06 6.701265111e-07 1.488456504e-07 3.995045501e-08 1.205860092e-08)
5(4.959635467e-06 6.513092143e-07 1.382546417e-07 3.639949649e-08 1.101592546e-08)
5(5.0310749e-06 6.296317236e-07 1.274586292e-07 3.284330611e-08 9.929365028e-09)
5(5.132114559e-06 6.106680027e-07 1.171473991e-07 2.937952556e-08 8.871354942e-09)
5(5.10403956e-06 5.886506597e-07 1.071304249e-07 2.591934495e-08 7.824469323e-09)
5(5.195375235e-06 5.651002531e-07 9.714587756e-08 2.274029397e-08 6.845067445e-09)
5(5.168782378e-06 5.442883965e-07 8.829628584e-08 1.974891929e-08 5.874812542e-09)
5(5.182801223e-06 5.202555577e-07 7.965071036e-08 1.702419782e-08 5.01261678e-09)
5(5.141273218e-06 5.030995199e-07 7.223658523e-08 1.454917574e-08 4.230309864e-09)
5(4.981520962e-06 4.809874146e-07 6.521387257e-08 1.231174832e-08 3.497329076e-09)
5(4.948468724e-06 4.570443717e-07 5.882742195e-08 1.035521848e-08 2.884642751e-09)
5(4.848245227e-06 4.356301905e-07 5.319823863e-08 8.614725695e-09 2.347058796e-09)
5(4.575112082e-06 4.132163632e-07 4.784307198e-08 7.112294062e-09 1.869962241e-09)
5(4.432961423e-06 3.86352392e-07 4.30969853e-08 5.882523069e-09 1.487582318e-09)
5(4.136952174e-06 3.62111491e-07 3.873961367e-08 4.86225143e-09 1.176729923e-09)
5(3.894106117e-06 3.337094278e-07 3.489755688e-08 4.012385279e-09 9.128236942e-10)
5(3.596008584e-06 3.061588987e-07 3.134028249e-08 3.291370796e-09 7.257925328e-10)
5(3.367081793e-06 2.805569285e-07 2.798694295e-08 2.72966194e-09 5.647516873e-10)
5(2.88936426e-06 2.49078692e-07 2.430752461e-08 2.252834808e-09 4.545479851e-10)
5(2.529038769e-06 2.196364505e-07 2.093619892e-08 1.871287515e-09 3.655830327e-10)
5(2.206050865e-06 1.906488054e-07 1.807370144e-08 1.538375003e-09 3.125476523e-10)
5(1.841485707e-06 1.609356005e-07 1.500949046e-08 1.257272138e-09 2.705687752e-10)
5(1.500025168e-06 1.339468438e-07 1.229066398e-08 1.035605108e-09 2.490937395e-10)
5(1.199747934e-06 1.049093192e-07 9.728443237e-09 8.579281269e-10 2.494122001e-10)
5(9.12049392e-07 8.141762613e-08 7.537890679e-09 7.122987149e-10 2.645303969e-10)
5(6.67582004e-07 5.99781014e-08 5.57616884e-09 6.106381792e-10 2.919837701e-10)
5(4.733175698e-07 4.212284454e-08 3.967373977e-09 5.50235824e-10 3.322354922e-10)
5(3.052388394e-07 2.85407986e-08 2.78117882e-09 5.151922788e-10 3.740551476e-10)
5(1.882644049e-07 1.817666398e-08 1.917671991e-09 5.090833068e-10 4.051235946e-10)
5(1.129173357e-07 1.094073022e-08 1.331898656e-09 5.095519165e-10 4.149810938e-10)
5(5.944710904e-08 6.278964239e-09 9.813510951e-10 4.96753211e-10 3.911334834e-10)
5(2.948713022e-08 3.455557714e-09 7.691304518e-10 4.581298664e-10 3.348715447e-10)
5(1.315119762e-08 1.936668542e-09 6.191396495e-10 3.860230181e-10 2.548973567e-10)
5(5.628268075e-09 1.15990897e-09 4.868767862e-10 2.908860327e-10 1.699218616e-10)
5(2.43730472e-09 7.539551336e-10 3.554013245e-10 1.931800555e-10 9.854912518e-11)
5(1.17756912e-09 5.111828633e-10 2.312601888e-10 1.090124836e-10 4.72415965e-11)
5(7.458564047e-10 3.345597507e-10 1.294110383e-10 5.140892679e-11 1.813113046e-11)
5(4.982590657e-10 1.967571584e-10 6.037784062e-11 1.953592588e-11 5.479127228e-12)
5(3.28895772e-10 1.000570069e-10 2.236042975e-11 5.797551097e-12 1.172936687e-12)