/*--------------------------------*- C++ -*----------------------------------*\
| =========                 |                                                 |
| \\      /  F ield         | OpenFOAM: The Open Source CFD Toolbox           |
|  \\    /   O peration     | Version:  2.3.1                                 |
|   \\  /    A nd           | Web:      www.OpenFOAM.org                      |
|    \\/     M anipulation  |                                                 |
\*---------------------------------------------------------------------------*/
FoamFile
{
    version     2.0;
    format      ascii;
    class       dictionary;
    location    "constant";
    object      PM66;
}
// * * * * * * * * * * * * * * * * * * * * * * * * * * * * * * * * * * * * * //

PM66_table
60
(

60
(
5(5.524939702e-11 5.39448766e-11 4.66523136e-11 -1.673554228e-11 2.139718477e-11)
5(1.870838058e-10 -3.835812762e-11 -3.554131755e-11 -2.049405002e-11 6.162584724e-11)
5(-1.703161469e-11 -4.86762709e-11 -3.167909952e-11 -6.004835304e-12 -1.236680191e-11)
5(-4.769986617e-11 -4.384507769e-11 -2.804277461e-11 -2.155503737e-11 -1.225961872e-11)
5(-5.667119437e-11 -3.698749657e-11 -1.990470899e-11 -2.137104605e-11 -8.914452114e-12)
5(-5.058697606e-11 -2.642011523e-11 -1.995312873e-11 -1.652989025e-11 -1.237211741e-11)
5(-3.354110806e-11 -2.153378638e-11 -2.328697824e-11 -1.429184069e-11 -1.104693621e-11)
5(-2.825167667e-11 -1.883901743e-11 -1.747840733e-11 -1.009150952e-11 -5.992728097e-12)
5(-2.352512561e-11 -1.367994209e-11 -1.170125876e-11 -6.590561818e-12 -5.175479234e-12)
5(-1.602057978e-11 -8.440813545e-12 -7.15127757e-12 -3.454471963e-12 -2.594601513e-12)
5(-1.035396825e-11 -4.507806894e-12 -3.432005586e-12 -1.569165927e-12 -1.03980125e-12)
5(-5.75732503e-12 -2.222263101e-12 -1.560703364e-12 -6.856653033e-13 -3.848582115e-13)
5(-2.962410541e-12 -1.037690233e-12 -7.476060157e-13 -2.94815955e-13 -1.703930549e-13)
5(-1.484975938e-12 -5.425981614e-13 -3.550607067e-13 -1.417544505e-13 -7.615048338e-14)
5(-8.30557917e-13 -2.508082414e-13 -1.882635934e-13 -7.313492796e-14 -3.710884094e-14)
5(-4.419297235e-13 -9.05770884e-14 -1.285225846e-13 -3.879327218e-14 -2.026552459e-14)
5(-2.664326014e-13 -9.98037639e-14 -7.87891452e-14 -2.370828315e-14 -1.092303936e-14)
5(-1.715887898e-13 -7.329487615e-14 -4.83260784e-14 -1.318464082e-14 -5.604906701e-15)
5(-1.188991841e-13 -5.653395798e-14 -2.57444424e-14 -7.473254075e-15 -3.06874189e-15)
5(-8.514615708e-14 -3.532815597e-14 -1.315211643e-14 -4.425604336e-15 -1.757917671e-15)
5(-5.693345651e-14 -1.76796489e-14 -8.156020164e-15 -2.593981975e-15 -1.030328929e-15)
5(-3.959030252e-14 -1.174511751e-14 -5.085782788e-15 -1.580512148e-15 -6.123692763e-16)
5(-2.782660374e-14 -7.83985051e-15 -3.240690982e-15 -1.002311806e-15 -3.75765816e-16)
5(-1.908722941e-14 -5.197474914e-15 -2.063137642e-15 -6.313631036e-16 -2.428808826e-16)
5(-1.330977738e-14 -3.448176606e-15 -1.351549336e-15 -4.271633944e-16 -1.769068039e-16)
5(-9.197927501e-15 -2.314684571e-15 -9.000470224e-16 -3.18112333e-16 -1.549579362e-16)
5(-6.319820823e-15 -1.596379943e-15 -6.505150578e-16 -2.86747461e-16 -1.7305239e-16)
5(-4.50014044e-15 -1.178344122e-15 -5.499081168e-16 -3.252847509e-16 -2.351701878e-16)
5(-3.225779572e-15 -9.725502868e-16 -5.768000523e-16 -4.515836786e-16 -3.645905999e-16)
5(-2.43420238e-15 -9.882068659e-16 -7.587755176e-16 -7.121227995e-16 -6.065839567e-16)
5(-2.053396627e-15 -1.245165721e-15 -1.161056433e-15 -1.18867684e-15 -1.01824792e-15)
5(-2.080196432e-15 -1.834728652e-15 -1.893705585e-15 -1.992316707e-15 -1.733667698e-15)
5(-2.587712393e-15 -2.925415806e-15 -3.187592605e-15 -3.439506243e-15 -2.999660215e-15)
5(-3.729059051e-15 -4.815747674e-15 -5.319678759e-15 -5.621546156e-15 -4.668044335e-15)
5(-5.856266801e-15 -7.899719032e-15 -8.724151283e-15 -9.033870111e-15 -7.432200955e-15)
5(-9.414140021e-15 -1.275924584e-14 -1.383759022e-14 -1.365013183e-14 -1.085429089e-14)
5(-1.516640307e-14 -1.995224712e-14 -2.115288546e-14 -1.985366643e-14 -1.414387981e-14)
5(-2.353137023e-14 -2.957217354e-14 -3.058022225e-14 -2.554173255e-14 -1.691552697e-14)
5(-3.480201802e-14 -4.153135694e-14 -4.042682141e-14 -3.260874425e-14 -1.716061779e-14)
5(-4.85891292e-14 -5.447722154e-14 -4.888646474e-14 -2.910399983e-14 1.23108967e-15)
5(-6.389918641e-14 -6.552803461e-14 -5.394292701e-14 -2.504354813e-14 -1.103300595e-14)
5(-7.695811406e-14 -7.119145979e-14 -5.104135512e-14 -1.161405694e-14 -1.057296311e-14)
5(-8.311534776e-14 -6.955632199e-14 -4.08615572e-14 -1.377321134e-14 -8.791952177e-15)
5(-8.068863195e-14 -5.999299412e-14 -2.952096051e-14 -1.224822469e-14 -4.520812997e-15)
5(-6.818460365e-14 -4.462233447e-14 -1.722871059e-14 -6.496467409e-15 -1.836702097e-15)
5(-5.115930344e-14 -2.754175074e-14 -5.834602423e-15 -2.823413921e-15 -5.643448472e-16)
5(-3.163314048e-14 -1.185433908e-14 -2.612711665e-15 -1.046933517e-15 -1.287803643e-16)
5(-1.556314338e-14 -5.063279932e-15 -1.452007875e-15 -2.60681457e-16 -2.080535856e-17)
5(-6.577298525e-15 -1.178354616e-15 -3.763172714e-16 -4.47290369e-17 -2.438192804e-18)
5(-5.46790047e-16 -2.939416013e-16 -7.494665789e-17 -5.212432905e-18 -2.194113292e-19)
5(-8.493280533e-17 -7.208082051e-17 -8.438006279e-18 -4.501771649e-19 -1.547776382e-20)
5(-6.484447984e-17 -8.789458195e-18 -6.398904613e-19 -2.820906004e-20 -8.500981577e-22)
5(-8.458047385e-18 -5.922401224e-19 -3.379160631e-20 -1.31435632e-21 -3.525745086e-23)
5(-3.957852887e-19 -2.057658639e-20 -1.052358461e-21 -4.355460895e-23 -1.223113727e-24)
5(-8.874530655e-21 -4.600946938e-22 -2.13012647e-23 -2.037435049e-24 -3.595580589e-26)
5(-6.55322594e-23 3.781593719e-22 -3.798324055e-25 -2.809742963e-22 -1.743782333e-27)
5(-1.914557719e-25 3.284197661e-20 1.09339973e-23 -6.622555257e-20 -1.071263651e-28)
5(-1.442432455e-28 -1.148604034e-18 5.737486994e-23 -9.742084131e-18 -3.360308556e-30)
5(1.64623596e-30 -6.253689213e-18 1.736552655e-20 3.090559132e-17 -3.062888458e-32)
5(1.21014153e-34 4.271847552e-34 1.081665234e-33 9.028197458e-33 2.44972542e-32)
)


60
(
5(-2.240961294e-10 -1.287772484e-10 -1.029454285e-10 -7.118179747e-11 -3.140571033e-11)
5(-2.223512739e-10 -1.344162068e-10 -1.044047691e-10 -6.134533383e-11 -3.686784468e-11)
5(-1.957577392e-10 -1.277013194e-10 -8.514390901e-11 -5.571309301e-11 -3.530541103e-11)
5(-1.685647257e-10 -1.187221869e-10 -7.759937163e-11 -5.402934719e-11 -2.546111114e-11)
5(-1.743906552e-10 -1.130701177e-10 -7.955390013e-11 -5.097137108e-11 -3.003568595e-11)
5(-1.730375236e-10 -1.051095303e-10 -8.157686069e-11 -4.862644997e-11 -3.119176931e-11)
5(-1.537652579e-10 -9.274234324e-11 -7.246084928e-11 -4.433537319e-11 -2.608020608e-11)
5(-1.365751326e-10 -7.755478757e-11 -5.924739968e-11 -3.543227552e-11 -2.306563001e-11)
5(-1.100109169e-10 -6.008718267e-11 -4.525515914e-11 -2.557472949e-11 -1.639803632e-11)
5(-8.310837324e-11 -4.073354528e-11 -2.957829795e-11 -1.580731993e-11 -9.814501572e-12)
5(-5.506429817e-11 -2.341920437e-11 -1.628036954e-11 -7.806018469e-12 -4.710750006e-12)
5(-3.106422804e-11 -1.180391517e-11 -7.800248818e-12 -3.346359224e-12 -1.89950997e-12)
5(-1.639300365e-11 -5.863337166e-12 -3.562657096e-12 -1.44013292e-12 -7.516012524e-13)
5(-8.799437618e-12 -3.061768682e-12 -1.724055271e-12 -6.913791476e-13 -3.383684356e-13)
5(-4.993011625e-12 -1.714361818e-12 -9.043933987e-13 -3.512393925e-13 -1.647361287e-13)
5(-2.981928288e-12 -9.716802143e-13 -4.971109013e-13 -1.883159955e-13 -8.508151875e-14)
5(-1.837668772e-12 -5.880688916e-13 -2.848648323e-13 -1.052986296e-13 -4.557846813e-14)
5(-1.188057125e-12 -3.677296999e-13 -1.693373578e-13 -6.06496734e-14 -2.536483768e-14)
5(-7.902311475e-13 -2.379943518e-13 -1.029996733e-13 -3.602686292e-14 -1.456461232e-14)
5(-5.320614655e-13 -1.574898591e-13 -6.383440544e-14 -2.164961915e-14 -8.534370274e-15)
5(-3.765542733e-13 -1.047729642e-13 -4.049334912e-14 -1.332572678e-14 -5.077208398e-15)
5(-2.577834252e-13 -7.022299975e-14 -2.576798118e-14 -8.371667763e-15 -3.083932608e-15)
5(-1.856855367e-13 -4.747870239e-14 -1.655497482e-14 -5.163046722e-15 -1.867824597e-15)
5(-1.311134141e-13 -3.180669265e-14 -1.063328435e-14 -3.230472088e-15 -1.151689586e-15)
5(-9.520609924e-14 -2.15158687e-14 -6.823847915e-15 -2.029758207e-15 -7.232060341e-16)
5(-6.777219878e-14 -1.454379866e-14 -4.365602006e-15 -1.274074668e-15 -4.669017942e-16)
5(-4.86466395e-14 -9.805593236e-15 -2.801924075e-15 -8.10884213e-16 -3.121030621e-16)
5(-3.593577375e-14 -6.558517504e-15 -1.771695559e-15 -5.165087657e-16 -2.181423206e-16)
5(-2.519099611e-14 -4.336029298e-15 -1.100305946e-15 -3.170411377e-16 -1.505453613e-16)
5(-1.80925823e-14 -2.791166428e-15 -6.172152898e-16 -1.511282565e-16 -9.921089612e-17)
5(-1.26357561e-14 -1.661661384e-15 -2.156666931e-16 9.443100016e-18 -6.106641721e-17)
5(-8.651734629e-15 -7.834276562e-16 1.838032853e-16 1.737949709e-16 -6.372214141e-17)
5(-5.44135282e-15 2.929338507e-17 6.176670207e-16 2.756948597e-16 -2.835771643e-16)
5(-2.77217324e-15 8.820199831e-16 1.024460648e-15 7.326703494e-17 -1.045462826e-15)
5(-3.609928407e-16 1.662304498e-15 1.104185518e-15 -9.121953384e-16 -2.816436445e-15)
5(1.618400553e-15 2.069983622e-15 2.641857399e-16 -3.480145811e-15 -6.484466355e-15)
5(3.102008426e-15 1.291850072e-15 -2.747499636e-15 -8.873743605e-15 -1.281167473e-14)
5(3.117371623e-15 -1.835141588e-15 -9.257319403e-15 -1.79259655e-14 -2.329828974e-14)
5(-1.517913042e-16 -9.052982443e-15 -2.039561666e-14 -3.137809362e-14 -3.441918302e-14)
5(-8.173982254e-15 -2.160527902e-14 -3.628173777e-14 -4.711322601e-14 -5.316404112e-14)
5(-2.327131362e-14 -4.034411674e-14 -5.685747169e-14 -6.252630551e-14 -6.137148833e-14)
5(-4.501679824e-14 -6.198640866e-14 -7.585466164e-14 -7.62027132e-14 -6.055283784e-14)
5(-6.981489955e-14 -8.318382045e-14 -8.81142869e-14 -8.23408752e-14 -4.996231791e-14)
5(-9.113986155e-14 -9.313380292e-14 -8.101176149e-14 -6.698760361e-14 -3.393047295e-14)
5(-1.009978902e-13 -9.095245185e-14 -6.878917613e-14 -4.476991182e-14 -1.881321667e-14)
5(-9.636056543e-14 -7.41775512e-14 -4.876814083e-14 -2.436138875e-14 -8.128188438e-15)
5(-7.678796132e-14 -5.19974552e-14 -3.175246981e-14 -1.04017197e-14 -2.68807676e-15)
5(-5.072677206e-14 -3.074904892e-14 -1.424619633e-14 -3.40167244e-15 -6.545309709e-16)
5(-2.621073082e-14 -1.300566617e-14 -4.653803987e-15 -8.222172973e-16 -1.155089086e-16)
5(-1.048783132e-14 -5.121080655e-15 -1.096029823e-15 -1.411371142e-16 -1.436154726e-17)
5(-3.199039088e-15 -1.161995694e-15 -1.790349475e-16 -1.66669089e-17 -1.277752485e-18)
5(-8.211251556e-16 -1.710773133e-16 -1.876493223e-17 -1.329835444e-18 -8.737789561e-20)
5(-1.120322814e-16 -1.640879952e-17 -1.250772909e-18 -7.309344647e-20 -4.173630349e-21)
5(-8.951035735e-18 -8.347046541e-19 -4.849838863e-20 -2.476688799e-21 -1.414319138e-22)
5(-3.333914547e-19 -2.149804691e-20 -1.121037205e-21 9.679766859e-23 -4.790506868e-24)
5(-5.762061311e-21 -1.626788731e-21 3.343935726e-22 3.305689401e-20 -3.23274255e-22)
5(-3.377821723e-20 2.842401693e-18 5.443487456e-20 5.98897048e-18 -8.331190946e-20)
5(1.509706502e-18 2.820522525e-16 7.218270321e-18 1.475188078e-16 -1.826478966e-17)
5(-6.891996364e-17 -4.103218195e-13 1.512877334e-17 1.027865453e-13 2.720904318e-17)
5(-2.09064539e-30 8.895936364e-17 2.477004823e-19 3.416746769e-17 2.297545476e-32)
)


60
(
5(-4.531167342e-10 -2.616967971e-10 -1.848425508e-10 -1.258930232e-10 -5.57406296e-11)
5(-4.928094467e-10 -2.822783969e-10 -1.878858291e-10 -1.074900521e-10 -5.960253462e-11)
5(-4.908349111e-10 -2.798072277e-10 -1.771181774e-10 -1.00424474e-10 -5.543519519e-11)
5(-4.810604377e-10 -2.706899874e-10 -1.757674906e-10 -9.872409146e-11 -5.484067504e-11)
5(-4.708895497e-10 -2.571187988e-10 -1.729998391e-10 -9.693052207e-11 -5.464686927e-11)
5(-4.407664641e-10 -2.399712259e-10 -1.624131888e-10 -9.291585022e-11 -5.212660924e-11)
5(-3.989581926e-10 -2.151936177e-10 -1.468293652e-10 -8.410692655e-11 -4.724349821e-11)
5(-3.558656435e-10 -1.881040852e-10 -1.268197907e-10 -7.183862583e-11 -4.032857318e-11)
5(-3.082224188e-10 -1.543925416e-10 -1.024601255e-10 -5.58081738e-11 -3.10394545e-11)
5(-2.407272835e-10 -1.114316168e-10 -7.246631509e-11 -3.670558109e-11 -1.993169617e-11)
5(-1.648137121e-10 -6.838727308e-11 -4.235108214e-11 -1.914591014e-11 -9.878293161e-12)
5(-9.661395737e-11 -3.548242282e-11 -2.028916345e-11 -8.312734137e-12 -4.023231446e-12)
5(-5.081239499e-11 -1.749009017e-11 -9.071160148e-12 -3.515114666e-12 -1.568996069e-12)
5(-2.707500288e-11 -9.047795446e-12 -4.30098426e-12 -1.630947854e-12 -7.000202401e-13)
5(-1.501698837e-11 -4.970845474e-12 -2.220655641e-12 -8.289376075e-13 -3.469440765e-13)
5(-8.883803933e-12 -2.892451617e-12 -1.21487407e-12 -4.469329064e-13 -1.818010593e-13)
5(-5.520925498e-12 -1.742470045e-12 -6.955569464e-13 -2.504930684e-13 -9.974690707e-14)
5(-3.502828305e-12 -1.090357066e-12 -4.116490329e-13 -1.454123689e-13 -5.672800689e-14)
5(-2.327092671e-12 -7.028149277e-13 -2.511016236e-13 -8.651538894e-14 -3.32737978e-14)
5(-1.569136955e-12 -4.617484125e-13 -1.561738402e-13 -5.260389024e-14 -1.989413947e-14)
5(-1.098157978e-12 -3.137441497e-13 -9.885433857e-14 -3.258606821e-14 -1.215366603e-14)
5(-7.694438646e-13 -2.107906139e-13 -6.342951485e-14 -2.036302512e-14 -7.459944047e-15)
5(-5.486927246e-13 -1.466137813e-13 -4.105690454e-14 -1.279879223e-14 -4.615822183e-15)
5(-3.898411897e-13 -1.011542778e-13 -2.660886745e-14 -8.07604752e-15 -2.875055354e-15)
5(-2.815744145e-13 -7.161495844e-14 -1.733642483e-14 -5.079430687e-15 -1.780007195e-15)
5(-2.047544857e-13 -4.999498032e-14 -1.120719211e-14 -3.166963752e-15 -1.080482907e-15)
5(-1.465454128e-13 -3.533206038e-14 -7.212105153e-15 -1.911288425e-15 -6.19512534e-16)
5(-1.083866554e-13 -2.531266926e-14 -4.526067388e-15 -1.062904926e-15 -2.7126138e-16)
5(-7.683303611e-14 -1.739725597e-14 -2.69750812e-15 -4.161832729e-16 5.319755582e-17)
5(-5.362658277e-14 -1.208737365e-14 -1.340151812e-15 1.965535679e-16 4.405591538e-16)
5(-3.712404633e-14 -7.945376129e-15 -1.454434061e-16 9.221160074e-16 9.826448272e-16)
5(-2.458715514e-14 -4.62242993e-15 1.126418045e-15 1.949400417e-15 1.817669805e-15)
5(-1.480259533e-14 -1.551245342e-15 2.758721646e-15 3.428787623e-15 3.019181132e-15)
5(-7.19669842e-15 1.616647517e-15 5.037505064e-15 5.536621413e-15 4.62883032e-15)
5(-3.815448303e-16 5.359986103e-15 8.134392204e-15 8.233819053e-15 6.399490313e-15)
5(5.710804461e-15 9.761501623e-15 1.205151552e-14 1.125227818e-14 7.874875783e-15)
5(1.208543084e-14 1.51405807e-14 1.6380815e-14 1.36576899e-14 7.901762719e-15)
5(1.927235237e-14 2.093644409e-14 1.996923762e-14 1.406616439e-14 5.131554956e-15)
5(2.603039591e-14 2.567274657e-14 2.117706554e-14 1.079409797e-14 -1.686669511e-15)
5(3.122392121e-14 2.780167422e-14 1.793044056e-14 2.342386404e-15 -1.281928671e-14)
5(3.278512503e-14 2.485009006e-14 8.464477643e-15 -1.108051792e-14 -2.699490856e-14)
5(2.868637954e-14 1.580848075e-14 -6.468199203e-15 -2.683103805e-14 -3.973532399e-14)
5(1.796273521e-14 6.311967808e-16 -2.389237446e-14 -4.025535316e-14 -4.626104429e-14)
5(2.613378154e-15 -1.738009198e-14 -3.844795769e-14 -4.644407078e-14 -4.377374453e-14)
5(-1.383092862e-14 -3.228918493e-14 -4.500611346e-14 -4.304799904e-14 -3.371513246e-14)
5(-2.5735985e-14 -3.897298156e-14 -4.147029956e-14 -3.226888774e-14 -2.094511924e-14)
5(-2.860518639e-14 -3.596332292e-14 -3.098230344e-14 -1.914443025e-14 -1.013886617e-14)
5(-2.333365391e-14 -2.629098701e-14 -1.82518101e-14 -8.848220027e-15 -3.808373969e-15)
5(-1.37698716e-14 -1.495835159e-14 -8.357962698e-15 -3.091056086e-15 -1.055755831e-15)
5(-5.683670697e-15 -6.539134757e-15 -2.876317853e-15 -7.980976309e-16 -2.065774048e-16)
5(-1.305636873e-15 -2.148855321e-15 -7.030219281e-16 -1.414659314e-16 -2.87306414e-17)
5(-8.824988727e-18 -4.828650567e-16 -1.148517941e-16 -1.712711464e-17 -2.545764148e-18)
5(6.802986867e-17 -6.760971375e-17 -1.173439031e-17 -1.295845091e-18 -1.588450559e-19)
5(1.729865081e-17 -5.290715357e-18 -7.18366662e-19 -6.07714211e-20 -5.972308947e-21)
5(1.724934505e-18 -2.541586936e-19 -2.303736471e-20 -8.58580839e-21 -7.479457267e-23)
5(-1.495059161e-20 -2.320743331e-18 1.64209499e-20 -1.416858009e-18 1.820843258e-20)
5(-8.769336652e-18 -5.990828099e-16 3.652999693e-18 -3.329325715e-16 4.263487974e-18)
5(-2.611249113e-15 -2.154657239e-13 6.694619423e-16 -9.136308155e-14 1.177133821e-15)
5(-1.332834789e-12 3.25744731e-12 4.093384523e-13 9.124275758e-13 4.368254347e-13)
5(6.646143598e-29 9.319673207e-10 1.036592617e-17 3.225106232e-12 -1.306458025e-31)
)


60
(
5(-7.240809107e-10 -4.315106253e-10 -2.732785224e-10 -1.98333437e-10 -9.460058705e-11)
5(-8.58025589e-10 -4.893449455e-10 -2.912348525e-10 -1.733919479e-10 -9.948742674e-11)
5(-9.239965541e-10 -4.925119886e-10 -2.968008692e-10 -1.670807071e-10 -9.779612235e-11)
5(-9.373247837e-10 -4.856765835e-10 -3.004797908e-10 -1.684827968e-10 -9.913530238e-11)
5(-9.21259171e-10 -4.738340945e-10 -2.956850638e-10 -1.7062406e-10 -9.937709075e-11)
5(-8.722999285e-10 -4.544225833e-10 -2.844275747e-10 -1.685463397e-10 -9.714182848e-11)
5(-8.101821806e-10 -4.281376951e-10 -2.657872901e-10 -1.586218234e-10 -9.083137455e-11)
5(-7.392123511e-10 -3.905111803e-10 -2.424140159e-10 -1.427377573e-10 -8.059602278e-11)
5(-6.680680015e-10 -3.476940652e-10 -2.098555087e-10 -1.182994765e-10 -6.486816805e-11)
5(-5.744518444e-10 -2.783051624e-10 -1.5971619e-10 -8.411253102e-11 -4.38690915e-11)
5(-4.192627693e-10 -1.836469453e-10 -1.003490656e-10 -4.767390331e-11 -2.308650736e-11)
5(-2.560676994e-10 -1.024235338e-10 -5.111112549e-11 -2.158293232e-11 -9.846992336e-12)
5(-1.389719612e-10 -5.119587103e-11 -2.296174911e-11 -8.983021935e-12 -3.861890663e-12)
5(-7.383956092e-11 -2.620851918e-11 -1.061148493e-11 -4.051249163e-12 -1.677374747e-12)
5(-4.010318045e-11 -1.426133304e-11 -5.394359563e-12 -2.028284544e-12 -8.343941317e-13)
5(-2.309759898e-11 -8.371567365e-12 -2.944333068e-12 -1.08856587e-12 -4.41472069e-13)
5(-1.420087763e-11 -5.168032105e-12 -1.686339584e-12 -6.114301561e-13 -2.453491687e-13)
5(-8.953562444e-12 -3.269312624e-12 -1.004863137e-12 -3.551123878e-13 -1.410496733e-13)
5(-5.834496351e-12 -2.166898008e-12 -6.157965341e-13 -2.130957621e-13 -8.395886198e-14)
5(-3.922739019e-12 -1.469512308e-12 -3.891685389e-13 -1.306109284e-13 -5.101569895e-14)
5(-2.698488512e-12 -1.024929324e-12 -2.508413078e-13 -8.144750965e-14 -3.147895208e-14)
5(-1.863430884e-12 -7.271385392e-13 -1.63896827e-13 -5.169212946e-14 -1.974543359e-14)
5(-1.317237861e-12 -5.272407972e-13 -1.088562725e-13 -3.29849219e-14 -1.240076675e-14)
5(-9.236015903e-13 -3.835418979e-13 -7.323038279e-14 -2.116792763e-14 -7.855139825e-15)
5(-6.410034571e-13 -2.839116822e-13 -4.965671468e-14 -1.358576935e-14 -4.972621228e-15)
5(-4.471232539e-13 -2.143477922e-13 -3.372242607e-14 -8.65508731e-15 -3.071385164e-15)
5(-3.078376053e-13 -1.623926631e-13 -2.300898557e-14 -5.397782672e-15 -1.798532279e-15)
5(-2.145154174e-13 -1.255160207e-13 -1.554128135e-14 -3.182869807e-15 -8.974872638e-16)
5(-1.384685298e-13 -9.417627467e-14 -1.034537909e-14 -1.583290893e-15 -1.393491179e-16)
5(-7.830846696e-14 -7.066873134e-14 -6.527814037e-15 -2.525625878e-16 6.316037036e-16)
5(-3.961743187e-14 -5.312845097e-14 -3.452836125e-15 1.10203858e-15 1.644057361e-15)
5(-1.542256794e-14 -3.86439285e-14 -7.127650096e-16 2.766544922e-15 3.080814418e-15)
5(4.295895969e-15 -2.632970681e-14 2.2398917e-15 5.093545539e-15 5.177913114e-15)
5(1.562810779e-14 -1.61784728e-14 5.878854029e-15 8.381440986e-15 8.209250396e-15)
5(2.585809389e-14 -6.007703874e-15 1.057949737e-14 1.29716336e-14 1.221117393e-14)
5(3.185055197e-14 3.610500008e-15 1.675623933e-14 1.862937947e-14 1.659935121e-14)
5(3.59409821e-14 1.385454986e-14 2.422256866e-14 2.498130214e-14 2.10199189e-14)
5(4.165868287e-14 2.476827158e-14 3.229897153e-14 3.06803187e-14 2.331628901e-14)
5(4.694152556e-14 3.523244854e-14 3.942383789e-14 3.325079109e-14 2.1085205e-14)
5(5.294400231e-14 4.424230323e-14 4.283826521e-14 3.021342122e-14 1.244884847e-14)
5(5.794191929e-14 4.912580121e-14 3.989344704e-14 1.945368155e-14 -3.17652263e-15)
5(5.875292629e-14 4.714882859e-14 2.859071164e-14 1.68673315e-15 -2.26351455e-14)
5(5.331245459e-14 3.682306977e-14 9.766574708e-15 -1.988291267e-14 -4.131212706e-14)
5(4.140769357e-14 1.915754635e-14 -1.250656348e-14 -3.85062436e-14 -5.176662335e-14)
5(2.446370195e-14 -2.062299422e-15 -3.166382297e-14 -4.797383601e-14 -5.109400457e-14)
5(7.529349672e-15 -1.967403292e-14 -4.114171204e-14 -4.564418107e-14 -4.039394098e-14)
5(-3.096750748e-15 -2.855695517e-14 -3.929699145e-14 -3.403833612e-14 -2.545775629e-14)
5(-6.048257311e-15 -2.756668181e-14 -2.936825662e-14 -2.017019849e-14 -1.264312556e-14)
5(-1.986563451e-15 -1.992355304e-14 -1.71470078e-14 -9.189814193e-15 -4.749818848e-15)
5(3.850511013e-15 -1.097401865e-14 -7.61191776e-15 -3.078061011e-15 -1.32303436e-15)
5(6.232813676e-15 -4.641972096e-15 -2.449622673e-15 -7.505757633e-16 -2.657243614e-16)
5(5.263094165e-15 -1.417981974e-15 -5.500311425e-16 -1.288457902e-16 -3.321447028e-17)
5(2.945143348e-15 -2.382203584e-16 -8.251442673e-17 -1.408725851e-17 -2.941146465e-18)
5(9.563853429e-16 -2.102632295e-17 -7.474946841e-18 -9.531570161e-19 -1.462479084e-19)
5(1.499864041e-16 -1.078570429e-18 -3.432628506e-19 3.857539266e-20 -5.777776291e-21)
5(1.910871449e-17 1.527674104e-17 -2.148573439e-19 1.321405798e-17 -2.047352464e-19)
5(6.179456643e-17 3.965465743e-15 -4.60622332e-17 2.92477579e-15 -3.910702337e-17)
5(1.803331324e-14 1.770554821e-12 -1.494725343e-14 1.005581122e-12 -1.003846554e-14)
5(1.139923389e-11 2.345047175e-10 -2.155642441e-12 2.336061521e-12 -4.836965403e-12)
5(1.89586481e-09 7.911605953e-10 -6.542682542e-10 4.312825077e-13 -8.313035857e-12)
)


60
(
5(-9.969526871e-10 -6.404350884e-10 -3.709735291e-10 -2.912435145e-10 -1.53966556e-10)
5(-1.325549185e-09 -7.770735241e-10 -4.131244612e-10 -2.617066529e-10 -1.629882637e-10)
5(-1.520148574e-09 -7.884213727e-10 -4.464664603e-10 -2.608944441e-10 -1.669294371e-10)
5(-1.588383175e-09 -7.934637641e-10 -4.659224278e-10 -2.704514276e-10 -1.728174258e-10)
5(-1.592318013e-09 -8.118961979e-10 -4.698773679e-10 -2.818515433e-10 -1.76605291e-10)
5(-1.522345724e-09 -8.184715379e-10 -4.623408047e-10 -2.861657156e-10 -1.754116553e-10)
5(-1.428954414e-09 -8.088709732e-10 -4.499700742e-10 -2.802205749e-10 -1.682596634e-10)
5(-1.375223279e-09 -7.852925713e-10 -4.322231867e-10 -2.636470863e-10 -1.534251838e-10)
5(-1.312672439e-09 -7.356212254e-10 -3.971692243e-10 -2.301921318e-10 -1.275861098e-10)
5(-1.20381636e-09 -6.406133795e-10 -3.281916717e-10 -1.746807579e-10 -9.043248856e-11)
5(-9.673205278e-10 -4.694571725e-10 -2.211897544e-10 -1.066166079e-10 -5.142243502e-11)
5(-6.358943165e-10 -2.770002144e-10 -1.195619322e-10 -5.107360633e-11 -2.266256767e-11)
5(-3.505811418e-10 -1.440793932e-10 -5.478690009e-11 -2.134859328e-11 -8.992523275e-12)
5(-1.865864194e-10 -7.526997031e-11 -2.505602453e-11 -9.352663752e-12 -3.834267483e-12)
5(-1.011940886e-10 -4.116634257e-11 -1.259335632e-11 -4.608003289e-12 -1.875422619e-12)
5(-5.628241985e-11 -2.432279032e-11 -6.889406799e-12 -2.468821738e-12 -1.001555395e-12)
5(-3.364495189e-11 -1.534767831e-11 -4.003639654e-12 -1.385738052e-12 -5.626607453e-13)
5(-2.067648243e-11 -1.004580544e-11 -2.415772706e-12 -8.101170114e-13 -3.256996461e-13)
5(-1.322511976e-11 -6.830569104e-12 -1.510326306e-12 -4.897353169e-13 -1.955294914e-13)
5(-8.587722129e-12 -4.806090575e-12 -9.782203959e-13 -3.030990657e-13 -1.198372325e-13)
5(-5.683334362e-12 -3.473462616e-12 -6.487344821e-13 -1.914333497e-13 -7.521948959e-14)
5(-3.787127999e-12 -2.553149334e-12 -4.398664665e-13 -1.231220772e-13 -4.766639919e-14)
5(-2.426735296e-12 -1.937584532e-12 -3.051417622e-13 -8.049122909e-14 -3.076611456e-14)
5(-1.638433268e-12 -1.505348542e-12 -2.16227864e-13 -5.317931492e-14 -1.997622332e-14)
5(-1.011631806e-12 -1.150371009e-12 -1.551979413e-13 -3.521808717e-14 -1.280510369e-14)
5(-5.983312242e-13 -9.215766781e-13 -1.135412277e-13 -2.341687458e-14 -8.183824608e-15)
5(-2.488903199e-13 -7.143646638e-13 -8.235802936e-14 -1.555899883e-14 -5.110458879e-15)
5(-3.740520523e-14 -5.691356906e-13 -6.123889459e-14 -1.012561585e-14 -2.918536295e-15)
5(7.72856239e-14 -4.520405341e-13 -4.60867057e-14 -6.231604816e-15 -1.27353576e-15)
5(1.610966283e-13 -3.717233514e-13 -3.386269472e-14 -3.25320587e-15 1.893783965e-16)
5(2.009014032e-13 -2.918784274e-13 -2.394766566e-14 -6.827426758e-16 1.788848268e-15)
5(2.512662945e-13 -2.216533997e-13 -1.63810386e-14 2.009528364e-15 3.796606583e-15)
5(2.652811608e-13 -1.690053884e-13 -9.185666909e-15 5.222341093e-15 6.493313084e-15)
5(2.466224283e-13 -1.252025255e-13 -2.263959769e-15 9.509050405e-15 1.050744188e-14)
5(2.3388172e-13 -9.092233116e-14 5.553256283e-15 1.523992978e-14 1.581348654e-14)
5(1.959793407e-13 -5.858469775e-14 1.464877782e-14 2.270765836e-14 2.263585242e-14)
5(1.823932112e-13 -2.790200611e-14 2.496757247e-14 3.176901311e-14 3.03996144e-14)
5(1.556554452e-13 -2.10719651e-15 3.678911316e-14 4.138001059e-14 3.737441928e-14)
5(1.38747297e-13 2.181832137e-14 4.875978623e-14 4.923739521e-14 4.082450319e-14)
5(1.234323587e-13 4.222734807e-14 5.832666191e-14 5.236752988e-14 3.75503781e-14)
5(1.110129022e-13 5.724182772e-14 6.245500473e-14 4.719320637e-14 2.509168587e-14)
5(1.019945861e-13 6.540273033e-14 5.760825237e-14 3.176151459e-14 3.79041705e-15)
5(9.347132959e-14 6.360968381e-14 4.217488688e-14 7.227418833e-15 -2.350401694e-14)
5(8.006748325e-14 5.131628946e-14 1.782774167e-14 -2.076400912e-14 -4.751941771e-14)
5(6.292077203e-14 3.099259904e-14 -9.329877168e-15 -4.37152131e-14 -6.080199266e-14)
5(4.455638573e-14 8.382308745e-15 -3.152453004e-14 -5.453801904e-14 -5.956020314e-14)
5(2.674461449e-14 -1.05352973e-14 -4.239115033e-14 -5.096134844e-14 -4.708169765e-14)
5(1.734247375e-14 -2.02490202e-14 -4.051609943e-14 -3.710449759e-14 -2.933375953e-14)
5(1.525138428e-14 -2.014512191e-14 -2.950746969e-14 -2.114213756e-14 -1.43967965e-14)
5(1.920159389e-14 -1.420672412e-14 -1.658595963e-14 -9.324559286e-15 -5.425469601e-15)
5(2.135344223e-14 -7.469342424e-15 -7.0846707e-15 -3.052113902e-15 -1.448096322e-15)
5(1.951839162e-14 -2.537615074e-15 -2.156030012e-15 -7.001841421e-16 -2.700990257e-16)
5(1.3012148e-14 -7.10295881e-16 -4.555751211e-16 -1.133760419e-16 -3.572901544e-17)
5(7.310238072e-15 -8.128935569e-17 -6.701256926e-17 -1.015770706e-17 -2.173748402e-18)
5(2.408368242e-15 2.44436949e-17 -5.178290136e-18 -4.878745968e-19 -1.101442808e-19)
5(7.929441471e-16 2.337322973e-17 -3.859846533e-19 1.30489549e-17 -2.580292944e-19)
5(1.669048265e-16 5.022627692e-15 -2.557989706e-17 2.225377888e-15 -3.818973453e-17)
5(2.034862183e-14 1.838471494e-12 -4.317709253e-15 5.222818348e-13 -7.432789299e-15)
5(1.047886947e-11 -8.911456451e-12 -3.011917167e-12 -2.768544761e-12 -2.550837957e-12)
5(1.294708279e-18 -1.082773693e-09 -4.206825274e-17 -6.560964495e-12 8.74868287e-12)
)


60
(
5(-1.172538089e-09 -9.022055458e-10 -4.839228498e-10 -4.140758217e-10 -2.410805489e-10)
5(-1.936414713e-09 -1.228834487e-09 -5.761303208e-10 -3.852042937e-10 -2.58779115e-10)
5(-2.359068267e-09 -1.284404734e-09 -6.648489935e-10 -3.964528951e-10 -2.743758369e-10)
5(-2.538968426e-09 -1.348680184e-09 -7.144948964e-10 -4.229928373e-10 -2.8962924e-10)
5(-2.569024338e-09 -1.443769688e-09 -7.391989423e-10 -4.527843092e-10 -2.99892213e-10)
5(-2.53590399e-09 -1.54294483e-09 -7.568689746e-10 -4.719021787e-10 -3.024031104e-10)
5(-2.403150277e-09 -1.598197964e-09 -7.629138399e-10 -4.75348532e-10 -2.950184432e-10)
5(-2.395359886e-09 -1.633461353e-09 -7.641107728e-10 -4.611386108e-10 -2.738727196e-10)
5(-2.453388378e-09 -1.605734802e-09 -7.365651122e-10 -4.198987625e-10 -2.359312334e-10)
5(-2.448661391e-09 -1.475370534e-09 -6.407167514e-10 -3.3625392e-10 -1.758178596e-10)
5(-2.103173375e-09 -1.137960822e-09 -4.615010419e-10 -2.185184377e-10 -1.041255594e-10)
5(-1.504888801e-09 -7.355584793e-10 -2.641400087e-10 -1.108845029e-10 -4.884250073e-11)
5(-8.920602611e-10 -3.957182626e-10 -1.25656283e-10 -4.758663545e-11 -1.991081714e-11)
5(-4.686629462e-10 -2.088829995e-10 -5.779220994e-11 -2.041312658e-11 -8.259006379e-12)
5(-2.456522374e-10 -1.160326217e-10 -2.899224924e-11 -9.866892151e-12 -3.98586519e-12)
5(-1.33282027e-10 -7.027534176e-11 -1.606544121e-11 -5.262425554e-12 -2.118251403e-12)
5(-7.57893926e-11 -4.518007541e-11 -9.454788625e-12 -2.978335849e-12 -1.198293145e-12)
5(-4.77275638e-11 -3.091051077e-11 -5.863433954e-12 -1.76316661e-12 -6.980274957e-13)
5(-2.967620179e-11 -2.136568388e-11 -3.786330193e-12 -1.07458246e-12 -4.226941988e-13)
5(-1.790147995e-11 -1.533448018e-11 -2.529871256e-12 -6.768443842e-13 -2.614057684e-13)
5(-1.083827814e-11 -1.142383608e-11 -1.747033232e-12 -4.370895357e-13 -1.674168552e-13)
5(-6.289859038e-12 -8.576602082e-12 -1.235230446e-12 -2.889765854e-13 -1.08653369e-13)
5(-3.964108869e-12 -6.775217688e-12 -9.003675047e-13 -1.959625145e-13 -7.108986901e-14)
5(-2.020537698e-12 -5.325235821e-12 -6.734381631e-13 -1.347373397e-13 -4.697720967e-14)
5(-4.352545629e-13 -4.216957546e-12 -5.109221846e-13 -9.424705955e-14 -3.135105104e-14)
5(2.489063959e-13 -3.438594306e-12 -3.940027991e-13 -6.727781148e-14 -2.094101722e-14)
5(7.894245842e-13 -2.856176143e-12 -3.097752355e-13 -4.833294785e-14 -1.377765504e-14)
5(8.719000396e-13 -2.331304428e-12 -2.46714247e-13 -3.468095872e-14 -8.856846461e-15)
5(1.400632711e-12 -1.862951117e-12 -1.955720127e-13 -2.47905083e-14 -5.333424611e-15)
5(1.504581e-12 -1.539515373e-12 -1.531810668e-13 -1.749226691e-14 -2.345781901e-15)
5(1.72848461e-12 -1.242279904e-12 -1.223760836e-13 -1.153677422e-14 3.078919525e-16)
5(1.400678672e-12 -1.015697425e-12 -9.801220104e-14 -6.057068282e-15 3.151739564e-15)
5(1.29803104e-12 -8.049624669e-13 -7.344123089e-14 -5.284638545e-16 6.784582079e-15)
5(1.299759057e-12 -6.090838165e-13 -5.209694372e-14 5.709253182e-15 1.170774925e-14)
5(1.12139844e-12 -4.715088998e-13 -3.294317796e-14 1.3167064e-14 1.809299881e-14)
5(9.7713772e-13 -3.348067135e-13 -1.458208095e-14 2.258623865e-14 2.64734523e-14)