/*--------------------------------*- C++ -*----------------------------------*\
| =========                 |                                                 |
| \\      /  F ield         | OpenFOAM: The Open Source CFD Toolbox           |
|  \\    /   O peration     | Version:  2.3.1                                 |
|   \\  /    A nd           | Web:      www.OpenFOAM.org                      |
|    \\/     M anipulation  |                                                 |
\*---------------------------------------------------------------------------*/
FoamFile
{
    version     2.0;
    format      ascii;
    class       dictionary;
    location    "constant";
    object      PV;
}
// * * * * * * * * * * * * * * * * * * * * * * * * * * * * * * * * * * * * * //

PV_table
60
(

60
(
5(3.318074224 3.457359474 3.559176093 3.689267527 3.791375898)
5(3.332490832 3.4610867 3.580376653 3.702045699 3.819587168)
5(3.339533386 3.46277388 3.589977558 3.707946349 3.832550532)
5(3.34139563 3.46307879 3.591773965 3.709198357 3.835122889)
5(3.340271307 3.462659206 3.589561027 3.708030603 3.83216114)
5(3.338354161 3.462171058 3.58710739 3.706656997 3.828518171)
5(3.33752159 3.462016511 3.586469541 3.70629818 3.827437024)
5(3.33772273 3.462087548 3.586977756 3.706577964 3.82809579)
5(3.338180979 3.462215042 3.587719263 3.706975908 3.829043176)
5(3.338358968 3.462258212 3.588022327 3.707105757 3.829333008)
5(3.338305649 3.46222475 3.587958386 3.707025413 3.829151602)
5(3.338157602 3.462170795 3.587741648 3.706884562 3.828839367)
5(3.338048926 3.462140876 3.587581557 3.706802356 3.82868312)
5(3.33803057 3.462133016 3.587549753 3.706776099 3.828676067)
5(3.338052651 3.462133625 3.587562264 3.706772696 3.828711376)
5(3.338064159 3.462131495 3.587546161 3.706762269 3.828703056)
5(3.338055241 3.462124282 3.587501688 3.70673213 3.828648858)
5(3.338036522 3.462111704 3.587446347 3.706675311 3.828567472)
5(3.338018669 3.462093475 3.587395796 3.706587102 3.828475631)
5(3.33800781 3.462069383 3.587352458 3.706482971 3.828376383)
5(3.338003828 3.462041672 3.587312985 3.706389002 3.828266926)
5(3.33800615 3.46201532 3.587273765 3.706325901 3.828144002)
5(3.338014205 3.461991686 3.587229129 3.706274539 3.828000265)
5(3.33802742 3.461969552 3.587172365 3.70619817 3.827826139)
5(3.338045179 3.461947616 3.587097108 3.706062396 3.827612066)
5(3.338066684 3.461924124 3.58700206 3.70586451 3.827349061)
5(3.338091097 3.461896995 3.586889666 3.705624061 3.827028555)
5(3.338117599 3.461864025 3.586761914 3.705360084 3.826641949)
5(3.338145595 3.461820942 3.586612604 3.70506946 3.826179009)
5(3.338174637 3.461761684 3.586429193 3.704727099 3.82562733)
5(3.33820415 3.461680107 3.586199001 3.704307378 3.824974812)
5(3.338231933 3.461569288 3.58591033 3.70379509 3.824221994)
5(3.338254663 3.461421324 3.585552744 3.703186027 3.823383369)
5(3.338268683 3.46122824 3.585115848 3.702476423 3.8224732)
5(3.33826597 3.460981297 3.584587411 3.701658022 3.821465128)
5(3.338236279 3.460670549 3.583952585 3.700715861 3.8202777)
5(3.338169729 3.460285931 3.583196384 3.699634493 3.818826718)
5(3.338055184 3.459814052 3.582309698 3.698405139 3.817167617)
5(3.337878841 3.459234023 3.581293979 3.697031246 3.81562515)
5(3.337626551 3.458523935 3.580151719 3.695517667 3.814554458)
5(3.337279289 3.457667186 3.5788637 3.693925776 3.81413357)
5(3.336805348 3.456662728 3.577357568 3.692468046 3.814062801)
5(3.336170982 3.455512338 3.575552989 3.691381929 3.813962732)
5(3.33534546 3.45420285 3.573442207 3.690796073 3.813516716)
5(3.334308903 3.452659172 3.571286801 3.690455526 3.812694169)
5(3.333043876 3.450790182 3.56941082 3.690020837 3.811545945)
5(3.331532808 3.448557201 3.568041314 3.68919886 3.810095725)
5(3.329757467 3.446215308 3.5669819 3.687917311 3.808210319)
5(3.327699421 3.444121796 3.565920681 3.686169693 3.80570038)
5(3.325370006 3.442555552 3.564569214 3.683936348 3.802381609)
5(3.322966484 3.441315255 3.562781611 3.68110595 3.798105601)
5(3.320757764 3.440018071 3.560465538 3.677528209 3.792739301)
5(3.318982508 3.438306455 3.55752819 3.673048363 3.786136729)
5(3.317594431 3.436048241 3.553869859 3.667472706 3.778036655)
5(3.316391427 3.433228304 3.549386256 3.660586913 3.768117531)
5(3.315169956 3.429832517 3.54397301 3.652176468 3.756057279)
5(3.313727352 3.425846753 3.537525749 3.642026859 3.741533824)
5(3.311859024 3.421257364 3.529940101 3.629923572 3.724225087)
5(3.309359342 3.41604878 3.521112223 3.615652092 3.703808992)
5(3.306023318 3.410208317 3.510936155 3.598997905 3.679963463)
)


60
(
5(3.294124751 3.430438615 3.528224714 3.653639964 3.754165592)
5(3.303691712 3.429385425 3.545733892 3.663652351 3.779019385)
5(3.307955575 3.428334127 3.552723702 3.667521005 3.789718132)
5(3.308210433 3.427081255 3.55278665 3.667323735 3.790783319)
5(3.305809687 3.425448039 3.549357034 3.665038851 3.786736626)
5(3.302733125 3.423819432 3.545923172 3.662688583 3.782157832)
5(3.300873938 3.422665727 3.544345152 3.661432077 3.780194884)
5(3.300129987 3.421815754 3.543956631 3.660878023 3.780022199)
5(3.299702566 3.421095328 3.543883011 3.660505294 3.780197001)
5(3.299061314 3.420348326 3.543430334 3.65991301 3.779775753)
5(3.298245612 3.419575297 3.542659578 3.65915919 3.778933813)
5(3.297380493 3.418826756 3.541774514 3.658382751 3.778000094)
5(3.296592815 3.418137451 3.540984149 3.657698104 3.777251693)
5(3.2959282 3.417503078 3.540350109 3.657094582 3.776678292)
5(3.295333763 3.416907321 3.539787502 3.656542267 3.77617226)
5(3.294756371 3.416333518 3.539220034 3.656005009 3.775646497)
5(3.294183812 3.415780183 3.538647715 3.655468485 3.775096379)
5(3.29362434 3.415242078 3.53808608 3.654927078 3.774538634)
5(3.293086609 3.414720301 3.537547844 3.654371644 3.773988326)
5(3.292575044 3.414209902 3.537034939 3.653817169 3.773447151)
5(3.292088126 3.41371394 3.536540986 3.653289396 3.77291118)
5(3.291624074 3.413234782 3.536063724 3.652804446 3.772376232)
5(3.291181249 3.41277477 3.535595531 3.65234584 3.771834198)
5(3.290758131 3.412329518 3.535127195 3.651877937 3.771274904)
5(3.29035326 3.411900445 3.53465684 3.651363837 3.770688221)
5(3.289965081 3.411479444 3.534175309 3.650799031 3.770064717)
5(3.289592107 3.411067225 3.53369069 3.650200255 3.769395448)
5(3.289232908 3.410658562 3.533201271 3.649588538 3.768671355)
5(3.288886332 3.410251296 3.532700343 3.648960936 3.767881881)
5(3.28855148 3.409838898 3.532177034 3.648292187 3.767014904)
5(3.288227385 3.40941382 3.531615732 3.647555861 3.766058605)
5(3.287911422 3.408969096 3.531007408 3.646737654 3.765012344)
5(3.287600369 3.408497198 3.530338346 3.645831629 3.763888629)
5(3.287290642 3.407990643 3.529602488 3.644834944 3.762701414)
5(3.286972188 3.407437119 3.528783245 3.643739191 3.761425694)
5(3.286634001 3.406831839 3.52787057 3.642531218 3.759981375)
5(3.28626789 3.406160902 3.526845634 3.641190353 3.758285214)
5(3.285862752 3.405408564 3.525691513 3.639710806 3.756391473)
5(3.285404619 3.404563329 3.524421831 3.63810073 3.754619389)
5(3.284879571 3.403593351 3.523036923 3.636356386 3.753317925)
5(3.2842688 3.402488806 3.521517171 3.634543535 3.752661773)
5(3.283541216 3.401247835 3.519788213 3.632861521 3.752356531)
5(3.282664344 3.399864563 3.517770286 3.631549217 3.75203018)
5(3.281606569 3.39833442 3.515458825 3.630754716 3.751371052)
5(3.28034631 3.396582108 3.513110964 3.630210022 3.750347209)
5(3.278868137 3.394522856 3.511037659 3.629574655 3.749008037)
5(3.277155954 3.392104161 3.509470865 3.628560437 3.747378263)
5(3.275191461 3.389578022 3.508233285 3.627099802 3.745327867)
5(3.272956728 3.387307387 3.507000697 3.625188822 3.742670791)
5(3.270463412 3.385570071 3.505485751 3.622809573 3.73922591)
5(3.267906095 3.3841781 3.503547315 3.619848598 3.734847416)
5(3.265549211 3.382730695 3.501099531 3.616159392 3.729404877)
5(3.263627623 3.380876604 3.49804528 3.611592128 3.72275569)
5(3.26209639 3.378499681 3.494291442 3.60595805 3.714643621)
5(3.260756648 3.375573735 3.489735495 3.599044699 3.70475214)
5(3.259409776 3.37209661 3.484280089 3.590644067 3.692765046)
5(3.257859736 3.368051958 3.477822441 3.580546938 3.678368804)
5(3.255906762 3.36342862 3.470261728 3.56854735 3.66125036)
5(3.253353389 3.358224632 3.461501898 3.554432471 3.641096791)
5(3.250009421 3.352411015 3.451428763 3.537997993 3.617595198)
)


60
(
5(3.270175277 3.403517756 3.497273334 3.618012402 3.716955287)
5(3.274892591 3.397675596 3.511097456 3.62524663 3.738451602)
5(3.276377764 3.393894198 3.515489647 3.627104118 3.746885731)
5(3.275025237 3.391085419 3.513801547 3.625456916 3.746443748)
5(3.271348066 3.388240188 3.509164229 3.622052744 3.741312112)
5(3.267112089 3.385468141 3.504749397 3.618720939 3.735797492)
5(3.264226286 3.383316662 3.502213503 3.616567078 3.732952744)
5(3.262537244 3.381545387 3.500937106 3.615180293 3.731948608)
5(3.261224153 3.379973382 3.500043965 3.614031435 3.731350827)
5(3.259763659 3.378438814 3.498838745 3.612721237 3.730218498)
5(3.258185575 3.37692774 3.497360448 3.611294217 3.728716023)
5(3.256603384 3.375482205 3.495810382 3.609881661 3.727160821)
5(3.255136704 3.37413525 3.494388092 3.608593076 3.725820267)
5(3.25382583 3.372874921 3.49315192 3.607415718 3.724680516)
5(3.252614874 3.371681117 3.492012759 3.606312315 3.723633144)
5(3.251448584 3.370537136 3.490894572 3.605246975 3.722589937)
5(3.250312382 3.36943671 3.489795268 3.604206947 3.721543901)
5(3.249212158 3.368374443 3.488726917 3.603179578 3.720509796)
5(3.248154549 3.367348041 3.487702159 3.602156819 3.71950102)
5(3.247142278 3.366351554 3.486717931 3.601153757 3.71851792)
5(3.246172424 3.365388148 3.485772071 3.600190851 3.717555433)
5(3.245241998 3.364457167 3.484854399 3.599283342 3.716608461)
5(3.244348293 3.363559113 3.483963617 3.598420357 3.71566813)
5(3.243488843 3.362693184 3.48308655 3.597558285 3.714723669)
5(3.242661341 3.361855237 3.482217325 3.596668245 3.713764377)
5(3.241863477 3.361039798 3.481353096 3.595734309 3.712780373)
5(3.241093117 3.36023719 3.480491147 3.594777699 3.711762342)
5(3.240348216 3.359457997 3.479644681 3.593820783 3.710700761)
5(3.239627068 3.358684535 3.478791346 3.592852168 3.709584753)
5(3.238928324 3.357918347 3.477925847 3.59185964 3.708402479)
5(3.23825062 3.357153553 3.477038318 3.590807342 3.707142399)
5(3.237590912 3.356373444 3.47610518 3.589680781 3.705802694)
5(3.236946076 3.355574452 3.475132441 3.588478145 3.704393889)
5(3.236312601 3.354759849 3.474093989 3.587198711 3.702929629)
5(3.235678407 3.353899006 3.472982109 3.585827488 3.701386259)
5(3.235031724 3.352998168 3.471795713 3.584349536 3.69968505)
5(3.234366051 3.352041319 3.470495327 3.582752271 3.697743711)
5(3.233670319 3.35101699 3.469083187 3.581028029 3.695615328)
5(3.232930397 3.349900347 3.467566702 3.579180552 3.693613629)
5(3.232132591 3.348670574 3.465933183 3.577209273 3.692081392)
5(3.231258311 3.347326031 3.464179983 3.575172113 3.691189975)
5(3.230277084 3.345844023 3.462230201 3.573283455 3.690650262)
5(3.229157706 3.344237552 3.460009032 3.571766486 3.690097628)
5(3.227867679 3.342486998 3.457502962 3.570746046 3.689225387)
5(3.226383716 3.340529487 3.454962747 3.569982876 3.68800025)
5(3.224692398 3.33826776 3.452707656 3.569134688 3.686470129)
5(3.2227791 3.335667952 3.450954876 3.567920329 3.684660802)
5(3.220625455 3.332974904 3.449520522 3.566280273 3.682445415)
5(3.218214035 3.330546423 3.448095187 3.564204956 3.679641202)
5(3.215556818 3.328640668 3.446407551 3.561675708 3.676070211)
5(3.212845706 3.327066474 3.44431358 3.558585756 3.671589231)
5(3.210340659 3.325449264 3.441727258 3.55478807 3.666070453)
5(3.208272738 3.323450875 3.438561084 3.55013401 3.659374652)
5(3.20659835 3.320945266 3.434710509 3.544441957 3.651250587)
5(3.205121868 3.317921843 3.430085222 3.537502867 3.64138675)
5(3.203649745 3.314361801 3.424588922 3.529112464 3.629472813)
5(3.201993596 3.310258158 3.418121317 3.519068652 3.615203784)
5(3.19995758 3.305603166 3.410586473 3.507167509 3.598275634)
5(3.197350456 3.300387418 3.401886281 3.493214098 3.57838459)
5(3.193995525 3.294613712 3.391921371 3.476998081 3.555226932)
)


60
(
5(3.246225803 3.376596896 3.466321955 3.58238484 3.679744981)
5(3.246093471 3.36596437 3.476433456 3.586830922 3.69788382)
5(3.244799953 3.359453926 3.47825081 3.586683788 3.704053331)
5(3.24184004 3.355089962 3.474817617 3.583587007 3.702104178)
5(3.236886445 3.351031828 3.468968659 3.579065566 3.695887598)
5(3.231491054 3.34711693 3.463574172 3.574756531 3.689437152)
5(3.227578634 3.343966942 3.460085881 3.571701398 3.685710604)
5(3.224944501 3.341274326 3.45791598 3.569480484 3.683875017)
5(3.22274574 3.338851891 3.456205422 3.567558336 3.682504652)
5(3.220466005 3.336528878 3.454246427 3.565529266 3.680661243)
5(3.218125538 3.334279059 3.452061811 3.563428423 3.678498234)
5(3.215826276 3.332138403 3.44984489 3.561379898 3.676321548)
5(3.213680593 3.330132032 3.447790781 3.559487691 3.67438884)
5(3.211723461 3.32824552 3.445952426 3.557736224 3.672682741)
5(3.209895985 3.326453495 3.444236965 3.556081437 3.671094028)
5(3.208140796 3.32474058 3.442569302 3.554488996 3.669533378)
5(3.206440952 3.323093159 3.440943 3.552944678 3.667991422)
5(3.204799975 3.321504684 3.439365484 3.551430313 3.666480959)
5(3.203222489 3.31997481 3.437855351 3.549942082 3.665013714)
5(3.201709511 3.318494127 3.436398966 3.548485901 3.663588689)
5(3.200256722 3.317057824 3.435000478 3.54709273 3.662199687)
5(3.198859923 3.315678851 3.433646503 3.545761553 3.660840691)
5(3.197515337 3.314342116 3.43233155 3.544491689 3.659502063)
5(3.196219554 3.313054461 3.431037609 3.543239079 3.658172433)
5(3.194969422 3.311805226 3.429777462 3.541969001 3.656840533)
5(3.193761874 3.310596443 3.428527794 3.540670512 3.655496028)
5(3.192594127 3.309410281 3.427294604 3.539354384 3.654129235)
5(3.191463524 3.308252187 3.426082683 3.538048505 3.652730168)
5(3.190367804 3.307117182 3.424880264 3.536743481 3.651287625)
5(3.189305167 3.305997465 3.42367443 3.535425123 3.649790053)
5(3.188273855 3.304885756 3.422457602 3.534054482 3.648226193)
5(3.187270401 3.30377479 3.421197969 3.532626999 3.646593044)
5(3.186291782 3.30265682 3.419921375 3.531120083 3.644899149)
5(3.18533456 3.301518823 3.418582012 3.529560506 3.643157844)
5(3.184384625 3.30035993 3.417183142 3.52791135 3.641346825)
5(3.183429446 3.299159025 3.415714754 3.526164905 3.639388725)
5(3.182464212 3.29791966 3.414139604 3.524314307 3.637202208)
5(3.181477887 3.296614555 3.412473738 3.52234051 3.634839183)
5(3.180456174 3.295232063 3.410699481 3.520252396 3.632607868)
5(3.179385611 3.293753676 3.408824929 3.518054385 3.630844859)
5(3.178247822 3.2921506 3.406839551 3.515801598 3.629718178)
5(3.177012952 3.29043578 3.404666285 3.513691517 3.628943993)
5(3.175651068 3.288599495 3.402233285 3.511960305 3.628165076)
5(3.174128788 3.286632266 3.399533825 3.5107307 3.627079722)
5(3.172421123 3.284460726 3.396806539 3.50974736 3.62565329)
5(3.170516658 3.282003527 3.394362638 3.508691576 3.623932221)
5(3.168402246 3.279229745 3.392410882 3.507287735 3.62194334)
5(3.16605945 3.276361266 3.390797671 3.505461728 3.619562963)
5(3.163471342 3.273758103 3.389188823 3.503223029 3.616611613)
5(3.160650224 3.271687731 3.387322551 3.500543596 3.612914512)
5(3.157785317 3.269945954 3.385080181 3.497326288 3.608331046)
5(3.155132106 3.26816219 3.382361246 3.493414075 3.60273603)
5(3.152917854 3.266022028 3.379076554 3.488677812 3.595993614)
5(3.151100309 3.26339402 3.375131918 3.482924875 3.587857553)
5(3.149487089 3.260266541 3.370435317 3.475961072 3.578021359)
5(3.147889715 3.256627139 3.364896745 3.467581761 3.56618058)
5(3.146127456 3.252465271 3.358420329 3.457590533 3.552038764)
5(3.144008397 3.247772022 3.350910768 3.44579009 3.535300907)
5(3.141347523 3.242554108 3.342272543 3.431993837 3.515672389)
5(3.137981628 3.23681641 3.33241398 3.415998169 3.492858667)
)


60
(
5(3.222276329 3.349676037 3.435370576 3.546757278 3.642534675)
5(3.21729435 3.334251446 3.441767745 3.54841396 3.657316037)
5(3.213222142 3.325014174 3.441012271 3.546263983 3.661220931)
5(3.208654843 3.31909491 3.435833813 3.541717104 3.657764608)
5(3.202424825 3.313823766 3.428773601 3.536078665 3.650463085)
5(3.195870018 3.308766262 3.422399453 3.530791343 3.643076812)
5(3.190930982 3.304617168 3.417958566 3.526836212 3.638468464)
5(3.187351758 3.301002672 3.414894474 3.523781919 3.635801426)
5(3.184267327 3.297731784 3.412366651 3.52108444 3.633658477)
5(3.18116835 3.294618026 3.409654487 3.518337129 3.631103988)
5(3.1780655 3.291631233 3.406762948 3.515561818 3.628280445)
5(3.175049167 3.288794273 3.40387859 3.512880187 3.625482275)
5(3.172224481 3.286128375 3.401195747 3.510382215 3.622957414)
5(3.169621091 3.283616667 3.398752469 3.508056056 3.620684965)
5(3.167177096 3.281226646 3.396463317 3.505851069 3.618554912)
5(3.164833009 3.278943735 3.394241016 3.503732002 3.616476818)
5(3.162569523 3.276748574 3.392088828 3.50168206 3.614438943)
5(3.160387793 3.274636571 3.390008497 3.499679219 3.612452121)
5(3.158290429 3.272602809 3.38800691 3.49772888 3.610526408)
5(3.156276745 3.270633393 3.386082834 3.495823661 3.608659458)
5(3.15434102 3.268732874 3.384230193 3.493988687 3.606843941)
5(3.152477847 3.266898222 3.38243498 3.492244836 3.605072921)
5(3.150682381 3.265126126 3.380696175 3.490562148 3.603335995)
5(3.148950265 3.263415789 3.37899974 3.488917576 3.601621198)
5(3.147277503 3.261764308 3.377336583 3.48727104 3.599916688)
5(3.14566027 3.26014294 3.375700512 3.485607093 3.598211684)
5(3.144095137 3.258584731 3.374095781 3.483930981 3.596496128)
5(3.142578833 3.257046574 3.372522007 3.482277516 3.594759574)
5(3.14110854 3.255549092 3.370969138 3.480635748 3.592990498)
5(3.139682011 3.254075788 3.369425182 3.478991599 3.591177628)
5(3.13829709 3.252619492 3.367871816 3.477304376 3.589309986)
5(3.136949891 3.25117734 3.366305013 3.475566748 3.587383393)
5(3.135637489 3.249735086 3.364705963 3.473770898 3.585404409)
5(3.134356518 3.248286261 3.363065962 3.471918189 3.583386058)
5(3.133090843 3.246818708 3.361385864 3.469993167 3.58130739)
5(3.131827169 3.245322366 3.359634975 3.467983342 3.5790924)
5(3.130562373 3.243796376 3.357793259 3.465874779 3.576660705)
5(3.129285455 3.242218296 3.355857814 3.463651091 3.574063038)
5(3.127981952 3.240564456 3.353830016 3.461326845 3.571602108)
5(3.126638631 3.238826318 3.351720701 3.458902117 3.569608327)
5(3.125237333 3.236978994 3.349497941 3.456423244 3.568246381)
5(3.12374882 3.235028495 3.347099236 3.454102284 3.567237724)
5(3.12214443 3.232964214 3.344460955 3.452156348 3.566232525)
5(3.120389897 3.230771859 3.341564994 3.450708595 3.564934057)
5(3.11845853 3.228397581 3.338650756 3.449514477 3.563306331)
5(3.116340919 3.225745324 3.336010965 3.448245369 3.561394313)
5(3.114025392 3.222780066 3.333876014 3.446651922 3.559225878)
5(3.111493444 3.219745752 3.332062532 3.444651754 3.556680511)
5(3.10872865 3.216973214 3.330278127 3.44223602 3.553582024)
5(3.10574363 3.214735159 3.328247375 3.439419438 3.549758813)
5(3.102724928 3.212823775 3.325846859 3.436063048 3.545072861)
5(3.099923554 3.21087644 3.322991209 3.432047632 3.539401606)
5(3.097562969 3.208592648 3.319593215 3.427219602 3.532612575)
5(3.095602269 3.205844167 3.315551742 3.421410955 3.524464518)
5(3.093852309 3.202611895 3.310783326 3.414418582 3.514655969)
5(3.092129684 3.198889387 3.305202993 3.406050225 3.502888347)
5(3.090261316 3.19466615 3.298716904 3.396110553 3.488873744)
5(3.088059215 3.1899413 3.291231405 3.3844122 3.47232618)
5(3.08534459 3.184722544 3.282658649 3.370773088 3.452960188)
5(3.081967732 3.179019107 3.272906588 3.354998257 3.430490402)
)


60
(
5(3.198326856 3.322755177 3.404419197 3.511129715 3.60532437)
5(3.18849523 3.30253667 3.407100257 3.509995883 3.616748254)
5(3.18164433 3.290573114 3.403772728 3.505844101 3.618388531)
5(3.175469647 3.28310096 3.396849738 3.499847667 3.613425037)
5(3.167963204 3.276617032 3.388579325 3.493092829 3.605038571)
5(3.160248982 3.270415045 3.381225748 3.486825497 3.596716472)
5(3.15428333 3.26526707 3.375829963 3.481970819 3.591226324)
5(3.149759015 3.260732376 3.371874704 3.478082945 3.587727835)
5(3.145788914 3.256609338 3.368526925 3.474611721 3.584812303)
5(3.141870695 3.252710106 3.365063442 3.471144471 3.581546733)
5(3.138005463 3.248981112 3.361462761 3.467696587 3.578062656)
5(3.134272058 3.245451017 3.357914369 3.464378374 3.574643002)
5(3.13076837 3.24212542 3.354597013 3.461277968 3.571525987)
5(3.127518722 3.238987144 3.351555197 3.458375833 3.568687189)
5(3.124458208 3.236000926 3.348686938 3.45561903 3.566015796)
5(3.121525221 3.233144601 3.345916829 3.452975986 3.563420259)
5(3.118698093 3.230406444 3.343235664 3.45041718 3.560886464)
5(3.115975611 3.227767254 3.340646865 3.447935819 3.558423283)
5(3.113358369 3.225228404 3.338161012 3.445509839 3.556039103)
5(3.110843979 3.222776887 3.335765584 3.443158043 3.553730227)
5(3.108425318 3.220404194 3.333455993 3.440891755 3.551488195)
5(3.106095771 3.218118635 3.331230386 3.438721208 3.549305151)
5(3.103849425 3.215909478 3.329061453 3.436636881 3.547169928)
5(3.101680976 3.213775668 3.326953691 3.434597583 3.545069963)
5(3.099585585 3.211716424 3.324898288 3.432571342 3.542992844)
5(3.097558667 3.209712293 3.322875094 3.430541137 3.54092734)
5(3.095596147 3.207748095 3.320898052 3.428511162 3.538863022)
5(3.093694141 3.205841918 3.318961965 3.426505351 3.53678898)
5(3.091849276 3.203981597 3.317060079 3.424528557 3.53469337)
5(3.090058854 3.202156087 3.315170563 3.422555878 3.532565202)
5(3.088320325 3.200354442 3.313291783 3.420555377 3.53039378)
5(3.08662938 3.198580041 3.31139992 3.418509345 3.528173743)
5(3.084983195 3.196809462 3.309498308 3.416419154 3.525909669)
5(3.083378477 3.195050019 3.307555085 3.414277773 3.523614273)
5(3.081797061 3.193279093 3.305583099 3.412078664 3.521267956)
5(3.080224891 3.191487814 3.303554229 3.40979876 3.518796075)
5(3.078660533 3.189674539 3.301442806 3.407430637 3.516119201)
5(3.077093023 3.187816694 3.299249083 3.404966525 3.513286894)
5(3.075507729 3.185898868 3.296967997 3.402402969 3.510596348)
5(3.073891651 3.183903937 3.294608129 3.399745768 3.508371794)
5(3.072226844 3.181808279 3.292157593 3.397046089 3.506774583)
5(3.070484688 3.179618355 3.289533753 3.394510503 3.505531454)
5(3.068637792 3.177327768 3.286689022 3.392352971 3.504299973)
5(3.066651007 3.174916606 3.283592787 3.390688332 3.502788392)
5(3.064495936 3.172330619 3.280491742 3.389275064 3.500959371)
5(3.06216518 3.169483805 3.277661973 3.387806777 3.498856405)
5(3.059648538 3.166336388 3.275333969 3.38600625 3.496508417)
5(3.056927438 3.163125447 3.273339354 3.383833724 3.493798059)
5(3.053985957 3.160185754 3.271364201 3.381266423 3.490552435)
5(3.050837035 3.157783235 3.269167819 3.378282555 3.486603114)
5(3.047664538 3.155688667 3.266614185 3.374803511 3.481814676)
5(3.044715001 3.153608132 3.263621037 3.370676822 3.476067182)
5(3.042208084 3.151161273 3.260114353 3.365756157 3.469231537)
5(3.040104228 3.148289692 3.25596998 3.359898758 3.461071484)
5(3.03821753 3.144963125 3.251132508 3.352876305 3.451290579)
5(3.036369654 3.141153221 3.245505607 3.344518127 3.439596113)
5(3.034395176 3.136874325 3.23901407 3.334631834 3.425708725)
5(3.032110032 3.132110846 3.231553399 3.323037383 3.409351454)
5(3.029341657 3.126889295 3.223044415 3.309551563 3.390247987)
5(3.025953836 3.121221805 3.213399196 3.293998345 3.368122137)
)


60
(
5(3.174377382 3.295834318 3.373467818 3.475502153 3.568114064)
5(3.159696109 3.270820157 3.372432609 3.471575888 3.576180471)
5(3.150066519 3.256131384 3.366532685 3.465423533 3.57555613)
5(3.14228445 3.247107449 3.357866952 3.457979295 3.569085467)
5(3.133501584 3.23941082 3.348383117 3.450105365 3.559614057)
5(3.124627946 3.232063857 3.34005261 3.442862336 3.550356132)
5(3.117635678 3.225917878 3.333702109 3.437104905 3.543984184)
5(3.112166271 3.220461185 3.328854044 3.432383754 3.539654244)
5(3.107310501 3.215488041 3.32468754 3.428138226 3.535966128)
5(3.102573041 3.210799704 3.320472496 3.423952425 3.531989479)
5(3.097945426 3.206332448 3.316162798 3.419830386 3.527844866)
5(3.09349495 3.202107252 3.311950277 3.415877631 3.523803729)
5(3.089312259 3.19812199 3.307999157 3.41217285 3.52009456)
5(3.085416352 3.194359551 3.304356994 3.408696209 3.516689414)
5(3.081739319 3.190772669 3.300910483 3.405388048 3.51347668)
5(3.078217434 3.187349677 3.297593064 3.402218972 3.510363699)
5(3.074826663 3.184060268 3.294379916 3.399153651 3.507333985)
5(3.071563429 3.180900974 3.2912893 3.396188412 3.504394445)
5(3.068426309 3.177854757 3.288311377 3.393293399 3.501551797)
5(3.065411212 3.174914964 3.285447886 3.39049581 3.498800996)
5(3.062509616 3.172082338 3.282690178 3.387789144 3.496132448)
5(3.059713695 3.169336792 3.280015448 3.385202053 3.493537381)
5(3.05701647 3.166691917 3.277430632 3.382708462 3.49100386)
5(3.054411687 3.16414064 3.274913279 3.380275949 3.488518727)
5(3.051893666 3.161663968 3.272451598 3.377878339 3.486068999)
5(3.049457063 3.159268185 3.270053957 3.375474175 3.483642996)
5(3.047097157 3.156923011 3.267704194 3.373083303 3.481229915)
5(3.044809449 3.154637098 3.265395723 3.370737149 3.478818387)
5(3.042590012 3.152411597 3.263148842 3.368425412 3.476396242)
5(3.040435698 3.15023622 3.260922638 3.366113336 3.473952776)
5(3.03834356 3.148089941 3.258708599 3.363804545 3.471477574)
5(3.03630887 3.145978112 3.256498935 3.361455662 3.468964093)
5(3.034328902 3.143893269 3.254285947 3.359066102 3.466414929)
5(3.032400436 3.141813778 3.252046278 3.356637339 3.463842488)
5(3.03050328 3.139734991 3.249778831 3.354162891 3.461228521)
5(3.028622613 3.137654883 3.24747623 3.351615983 3.45849975)
5(3.026758694 3.13555016 3.245093071 3.348988703 3.455577698)
5(3.024900591 3.133418878 3.242632047 3.34627452 3.452510749)
5(3.023033507 3.131233542 3.240102124 3.343476833 3.449590587)
5(3.02114467 3.128976473 3.237502069 3.340593761 3.447135261)
5(3.019216355 3.126637887 3.234814208 3.337670894 3.445302786)
5(3.017220556 3.124211939 3.231972981 3.334923135 3.443825185)
5(3.015131154 3.12169013 3.22891238 3.332541378 3.442367421)
5(3.012912116 3.119060729 3.22562558 3.330668296 3.440642728)
5(3.010533343 3.116264151 3.222329398 3.329043011 3.438612411)
5(3.00798944 3.113218515 3.219314072 3.327360613 3.436318497)
5(3.005271684 3.109897945 3.216797088 3.325371849 3.433790955)
5(3.002361432 3.106508583 3.214599104 3.323017587 3.430915607)
5(2.999243264 3.103400112 3.212452403 3.320274652 3.427522846)
5(2.995930441 3.100823221 3.210087011 3.317161875 3.423447415)
5(2.992604149 3.098568721 3.207382068 3.313542108 3.418556491)
5(2.989506449 3.096309866 3.204254992 3.309314372 3.412732759)
5(2.9868532 3.093730242 3.200638588 3.304293736 3.405850499)
5(2.984606187 3.090740233 3.196380508 3.298386298 3.39767845)
5(2.98258275 3.087307876 3.191487025 3.291333753 3.387925188)
5(2.980609624 3.083421194 3.185823256 3.282983372 3.37630388)
5(2.978529037 3.079077634 3.179309035 3.273150681 3.362543705)
5(2.97616085 3.074284362 3.171877461 3.261655694 3.346376727)
5(2.973338724 3.069058599 3.163427613 3.248324977 3.327535786)
5(2.969939939 3.063424502 3.153891804 3.232998433 3.305753872)
)


60
(
5(3.150427908 3.268913458 3.342516439 3.439874591 3.530903758)
5(3.130896989 3.239101063 3.337763864 3.433155381 3.535612688)
5(3.118488708 3.221690276 3.329290903 3.425002331 3.53272373)
5(3.109099253 3.211115539 3.318884037 3.416109483 3.524745897)
5(3.099039963 3.202203269 3.308190841 3.407121032 3.514189543)
5(3.08900691 3.193714347 3.29887619 3.398896434 3.503995792)
5(3.080988026 3.186567852 3.291576903 3.392240617 3.496742044)
5(3.074573528 3.180189856 3.285830784 3.386683882 3.491580653)
5(3.068832088 3.174367771 3.280851008 3.38166616 3.487119954)
5(3.063275386 3.168889663 3.275878104 3.376758094 3.482432224)
5(3.057885389 3.16368451 3.270866958 3.371967213 3.477627077)
5(3.052717841 3.158761087 3.265980518 3.367374494 3.472964457)
5(3.047856148 3.154121235 3.261407395 3.363070264 3.468663134)
5(3.043313983 3.149727035 3.257153006 3.3590133 3.464691638)
5(3.03902043 3.145548895 3.253139283 3.355160888 3.460937564)
5(3.034909646 3.141550709 3.249263874 3.351457357 3.45730714)
5(3.030955234 3.137718045 3.245531257 3.347894851 3.453781506)
5(3.027151247 3.134029542 3.241924027 3.344434785 3.450365608)
5(3.023494249 3.130485567 3.238469506 3.341084594 3.447064491)
5(3.019978446 3.127053607 3.235127301 3.337823709 3.443871765)
5(3.016593914 3.12375643 3.231918119 3.334695686 3.440776702)
5(3.01333162 3.120558064 3.228807766 3.331678792 3.43776961)
5(3.010183514 3.117474529 3.225795562 3.328781676 3.434837792)
5(3.007142398 3.11450145 3.222872083 3.32595691 3.431967492)
5(3.004201747 3.111620012 3.220009035 3.323174327 3.429145155)
5(3.00135546 3.108829385 3.217230273 3.320413457 3.426358652)
5(2.998598167 3.106088775 3.21450123 3.317663352 3.423596808)
5(2.995924758 3.103431405 3.211840997 3.314966893 3.420847793)
5(2.993330748 3.100848674 3.20923982 3.312312379 3.418099114)
5(2.990812541 3.098311099 3.206666609 3.309681636 3.415340351)
5(2.988366795 3.09582499 3.204128577 3.307056917 3.412561367)
5(2.985988359 3.093386217 3.201603019 3.304396078 3.409754443)
5(2.983674608 3.090967664 3.199065774 3.301710531 3.406920189)
5(2.981422395 3.088574977 3.196534428 3.299002284 3.404070703)
5(2.979209498 3.086198338 3.193984021 3.296243975 3.401189087)
5(2.977020336 3.083817929 3.191392717 3.293431801 3.398203425)
5(2.974856855 3.08142853 3.188744846 3.290552503 3.395036195)
5(2.972708159 3.079018645 3.186020212 3.287589055 3.391734604)
5(2.970559285 3.076566072 3.183237518 3.284548023 3.388584827)
5(2.96839769 3.074053181 3.180394794 3.281435833 3.385898728)
5(2.966205865 3.071464218 3.177472096 3.27829779 3.383830989)
5(2.963956424 3.068798855 3.17440888 3.275327676 3.382118916)
5(2.961624516 3.066051309 3.17114103 3.27274161 3.38043487)
5(2.959173225 3.063202494 3.167656535 3.270646339 3.378497063)
5(2.95657075 3.060204576 3.164171802 3.268803301 3.376265452)
5(2.953813701 3.056959171 3.16096272 3.266915137 3.373780589)