/*--------------------------------*- C++ -*----------------------------------*\
| =========                 |                                                 |
| \\      /  F ield         | OpenFOAM: The Open Source CFD Toolbox           |
|  \\    /   O peration     | Version:  2.3.1                                 |
|   \\  /    A nd           | Web:      www.OpenFOAM.org                      |
|    \\/     M anipulation  |                                                 |
\*---------------------------------------------------------------------------*/
FoamFile
{
    version     2.0;
    format      ascii;
    class       dictionary;
    location    "constant";
    object      rCH3O;
}
// * * * * * * * * * * * * * * * * * * * * * * * * * * * * * * * * * * * * * //

rCH3O_table
60
(

60
(
5(6.568774504e-07 -1.499950251e-06 -1.416264893e-05 -7.272261955e-06 -5.093437907e-06)
5(1.413717177e-06 -2.131670961e-07 -1.931780156e-06 -9.009481773e-07 6.683371229e-07)
5(5.863758654e-05 7.536158616e-07 1.532650457e-06 6.371270248e-07 0)
5(0.0003804963698 1.379026781e-06 3.874554049e-06 1.180972503e-06 5.679753899e-06)
5(0.0004904866074 1.063965111e-06 3.287083796e-06 1.570998817e-06 2.506499852e-06)
5(0.0009704462824 7.203643046e-07 2.360780697e-07 1.208190195e-06 4.958632853e-07)
5(1.13643004e-06 7.215559285e-07 6.462648298e-09 5.603312294e-07 3.577938693e-06)
5(3.09171594e-07 1.029759561e-06 2.170086825e-06 1.386188143e-06 3.465806199e-07)
5(0.001140859429 1.25163915e-06 5.708777733e-06 1.729122826e-06 1.542579091e-06)
5(0.001857235738 3.827720891e-06 9.854537807e-06 1.396107848e-06 1.906749282e-06)
5(0.002042329629 2.960136777e-06 7.127326958e-06 1.746654506e-07 6.347715673e-08)
5(0.000620533071 -1.527763496e-06 7.667971348e-07 -1.746043115e-06 -2.611309201e-06)
5(-1.257784848e-06 -2.235186696e-06 -2.780036884e-06 -2.848242595e-06 -2.599359117e-06)
5(-1.960116759e-06 -2.115905381e-06 -2.941577721e-06 -1.731337428e-06 -1.764414552e-06)
5(-1.330348057e-06 -1.528051748e-06 -1.937323118e-06 -1.287672797e-06 -9.859666962e-07)
5(6.554693164e-05 -6.363092496e-05 -8.554033156e-06 -1.458939162e-05 -3.619303411e-06)
5(5.60657735e-05 -7.611532958e-05 -1.586271623e-05 -8.91198696e-06 -4.31277405e-07)
5(1.900910274e-05 -7.147404217e-05 -1.162374108e-06 -4.654722072e-07 -2.754349873e-07)
5(-3.366241214e-07 -3.806550211e-05 -6.776304188e-07 -3.70988269e-07 -2.13355922e-06)
5(-3.353502884e-07 -2.209117673e-07 -5.36618422e-07 -4.722854087e-07 -2.826605315e-06)
5(-3.230342728e-07 -6.834283357e-07 -2.340729062e-07 -3.9370132e-07 -3.075839187e-07)
5(-9.167485104e-08 -3.433645584e-07 1.655480265e-06 -3.256479962e-07 -8.719279518e-08)
5(-3.080959912e-07 -4.218667734e-07 7.565246505e-07 -2.100893708e-07 -3.022789269e-07)
5(-1.210046865e-07 -4.121250066e-07 7.027882611e-08 -2.724645363e-07 -1.060003436e-07)
5(3.430118369e-06 2.101430378e-05 -2.653414497e-07 -5.976702362e-09 3.384839702e-07)
5(2.492992221e-06 5.638470133e-05 6.03541508e-07 -6.037153053e-08 -6.228090556e-08)
5(-1.92393104e-07 4.148778013e-05 9.002751344e-07 -4.706240277e-07 -2.461029343e-07)
5(-1.879295047e-07 -3.274877981e-07 -4.904840193e-07 -7.896811935e-07 1.02593212e-07)
5(3.395881038e-07 -9.148290415e-08 -6.225697353e-07 -1.486366807e-06 2.279902234e-06)
5(-7.174958661e-07 2.962756166e-07 2.263637791e-06 -2.782494202e-06 7.215143387e-07)
5(-1.017991314e-06 9.975248715e-07 8.768742807e-07 2.802735924e-06 -2.511268805e-06)
5(4.767377913e-07 1.81124397e-06 -3.049176611e-06 4.886145709e-06 -6.639068021e-06)
5(-3.36467761e-06 3.024651501e-06 -9.271063158e-06 7.859224983e-07 -1.451259836e-05)
5(3.730420763e-08 3.047350865e-07 -1.804155434e-05 -1.869499412e-06 -4.834296167e-06)
5(1.144630436e-06 -6.678016943e-06 -3.317419576e-05 -6.55141491e-06 -0.0001003159356)
5(-1.206102239e-06 -5.553830963e-06 -2.006266293e-05 -1.279990373e-05 -0.0001380874876)
5(-9.968316926e-06 -9.363467433e-06 -1.52330257e-05 -5.702453169e-06 -4.364364912e-05)
5(-1.802678537e-05 -2.139997675e-05 -3.227258374e-05 -5.355296867e-05 -0.0001154754118)
5(-2.170787115e-05 -1.325623947e-05 -0.000144226594 -6.752303039e-05 -0.0002204989356)
5(-3.986612421e-05 -1.629861386e-05 2.30530209e-05 -5.706007772e-05 -1.630042742e-05)
5(-3.233635114e-05 -5.982658271e-05 0.0002164041716 -0.000219642569 -2.787954919e-05)
5(9.187659908e-06 -0.0001297183862 0.000157577223 -0.001800931223 5.967684217e-21)
5(2.452005114e-05 3.501973998e-06 -5.731473324e-05 -5.817637356e-20 -5.505204761e-20)
5(-8.647825369e-06 0.0001549075647 -0.0003231374288 1.107595027e-18 -7.573755299e-05)
5(-4.331848451e-05 0.0002269424 -0.0006617761915 5.034193906e-19 -7.410691509e-06)
5(-3.221289491e-05 -1.340909312e-05 -8.224533949e-05 -9.295548443e-18 -1.882785745e-18)
5(1.238350477e-05 -0.0004201556426 -0.0003903333974 -6.621016118e-06 5.221795543e-18)
5(2.229850835e-05 -3.205539502e-05 -9.701844503e-05 -3.96919617e-17 2.650556931e-19)
5(-2.317559562e-05 -1.289198668e-05 -7.328734264e-06 4.375532697e-17 2.160367293e-17)
5(-3.123419491e-05 -6.150844038e-06 -3.672325585e-17 1.01683923e-17 6.644487248e-17)
5(-5.515291692e-05 8.509453372e-18 8.094282177e-19 -2.487897353e-18 4.411248016e-16)
5(-0.0001010729634 9.544938207e-18 -4.416139179e-17 -4.440382104e-17 -1.150324106e-16)
5(-1.162300734e-06 3.1169063e-18 -1.974677819e-17 -7.17838619e-17 7.246184136e-16)
5(-1.691797812e-18 -2.951189719e-17 -1.049299451e-16 7.865031475e-16 -7.96127454e-16)
5(1.887595723e-17 -4.058250802e-16 -2.77592286e-16 -8.291685974e-16 -1.179095755e-15)
5(-1.316040851e-13 -3.451857872e-16 -6.037617218e-16 -2.602764961e-15 -5.584087558e-15)
5(-4.487396186e-13 -4.228144012e-16 -1.043496801e-15 -4.077799599e-15 -1.056705437e-14)
5(-5.372209428e-13 -5.836974608e-13 -4.28634231e-15 -1.813121879e-14 -8.477571659e-14)
5(-3.840646057e-13 -8.602513425e-13 -1.272838127e-12 -2.504098558e-14 -3.504171348e-14)
5(-1.032792763e-15 -3.696583664e-15 -1.227769283e-14 -4.09834227e-14 -9.146571931e-14)
)


60
(
5(5.137551236e-06 3.496365097e-07 -1.679146027e-05 2.084986612e-06 -2.028737795e-05)
5(2.334448572e-05 2.170271945e-05 2.53647177e-05 3.442434861e-05 3.751356172e-05)
5(2.55532916e-05 3.27913756e-05 3.248587155e-05 4.23536515e-05 3.900225704e-05)
5(2.830777711e-05 4.181143967e-05 4.180999856e-05 5.041956291e-05 4.27956435e-05)
5(3.524793043e-05 5.285948226e-05 5.844121443e-05 6.320592023e-05 5.297514024e-05)
5(4.767860986e-05 6.680968862e-05 7.845575457e-05 7.90256524e-05 6.642139843e-05)
5(5.983065516e-05 7.94608553e-05 9.386693189e-05 9.100122337e-05 7.756281039e-05)
5(6.467022489e-05 8.171907876e-05 0.0001004500922 9.262717115e-05 8.04663619e-05)
5(5.557120061e-05 6.135110336e-05 8.589102766e-05 7.230560375e-05 6.681740534e-05)
5(2.765190577e-05 1.104109711e-05 4.016755057e-05 2.055475668e-05 2.960589394e-05)
5(-3.251603976e-05 -6.43713779e-05 -3.790253998e-05 -5.769583468e-05 -3.26717551e-05)
5(-0.0001028101018 -0.0001447762675 -0.0001302422339 -0.0001384958403 -0.0001012625527)
5(-0.0001704746462 -0.0001984867203 -0.0002012707289 -0.0001862042755 -0.0001448149057)
5(-0.0001990141085 -0.0002093276652 -0.0002220652864 -0.0001896863349 -0.0001511144007)
5(-0.0001896390196 -0.0001804427225 -0.0001977339191 -0.0001567148947 -0.0001263972873)
5(-0.0001531254772 -0.0001379280858 -0.000153684792 -0.0001132853948 -9.018501367e-05)
5(-0.0001101812234 -9.806894094e-05 -0.000105828157 -7.529835505e-05 -5.61621067e-05)
5(-7.960647163e-05 -6.623791954e-05 -7.095758951e-05 -4.964556212e-05 -3.915801846e-05)
5(-5.593784673e-05 -4.678097344e-05 -4.865305715e-05 -3.425026238e-05 -2.556166804e-05)
5(-4.387435333e-05 -3.699870933e-05 -3.679947041e-05 -2.543464332e-05 -1.891349997e-05)
5(-3.151300427e-05 -2.907294307e-05 -2.77882811e-05 -1.986308917e-05 -1.267808055e-05)
5(-2.603274888e-05 -2.364974156e-05 -2.157155014e-05 -1.607965747e-05 -1.413929768e-05)
5(-3.540967241e-05 -2.092323997e-05 -1.877778072e-05 -1.399422608e-05 -1.101519439e-05)
5(-2.707841213e-05 -1.846623318e-05 -1.725055751e-05 -1.403137107e-05 -1.36286164e-05)
5(-2.059255765e-05 -1.818620307e-05 -1.803001395e-05 -1.542264633e-05 -1.285707062e-05)
5(-2.118106045e-05 -1.99313014e-05 -1.993209965e-05 -1.832016711e-05 -1.086690301e-05)
5(-1.705054287e-05 -2.397844192e-05 -2.374996111e-05 -2.305580728e-05 -1.23981118e-05)
5(-2.640583052e-05 -2.916200027e-05 -3.021308133e-05 -2.976898757e-05 -3.303156089e-05)
5(-2.852856662e-05 -3.647827962e-05 -3.929711383e-05 -3.935386093e-05 -2.966984027e-05)
5(-3.606716572e-05 -4.734400901e-05 -5.100215365e-05 -5.072335969e-05 -4.647400971e-05)
5(-3.832411406e-05 -6.207010044e-05 -6.804677906e-05 -6.593056249e-05 -5.371782286e-05)
5(-4.990907838e-05 -8.131638868e-05 -8.610248897e-05 -8.049213715e-05 -5.621022617e-05)
5(-7.378680932e-05 -9.977339611e-05 -0.0001042890116 -9.320258852e-05 -9.287496586e-05)
5(-8.303586493e-05 -0.000118937254 -0.0001185647417 -0.0001014264817 -9.611751406e-05)
5(-0.0001349830754 -0.0001353412012 -0.0001253276742 -9.446393915e-05 -6.567280689e-05)
5(-9.993952508e-05 -0.0001363241415 -0.0001174048654 -6.860575195e-05 -0.0001329124243)
5(-0.0002139257896 -0.0001147220749 -7.904968214e-05 -1.747323023e-05 -0.0001727273443)
5(-7.454770924e-05 -6.473886621e-05 -3.58060345e-06 5.553128729e-05 -0.000168711783)
5(1.947144792e-05 3.823028113e-05 0.0001109156862 0.000157123425 -9.320117411e-05)
5(1.435743497e-05 0.0001530113167 0.0002344367879 0.0002547077019 0.0001241782805)
5(5.789293222e-05 0.0003114672865 0.0003707004182 0.0003227433349 -6.043311653e-05)
5(-0.0002161637706 0.0004488521527 0.0004423763368 0.0003245535877 4.263508731e-05)
5(0.0002414770209 0.000533268204 0.0004536116451 0.0002501959303 -0.00018291023)
5(0.0004371723025 0.0005211282954 0.0003488602429 0.0001219221321 -0.0001724059457)
5(0.0003633312758 0.0003674251062 0.0001684373835 -1.65478799e-05 -0.0001905929712)
5(4.828469538e-05 0.0001631916229 -2.302829834e-05 -0.0001034361711 -6.852043657e-05)
5(-0.001387435505 -9.128875654e-05 -0.0001789218834 -0.0001284625412 -5.218072145e-05)
5(-0.001027202894 -0.0002601796267 -0.0002337119341 -0.0001051124848 -5.230797681e-05)
5(-0.001152889234 -0.0003090605054 -0.0001898135232 -6.267537021e-05 -1.828286512e-05)
5(-0.0005389306303 -0.0002493940847 -0.0001111800898 -2.791667142e-05 -8.010302646e-06)
5(-0.000395195175 -0.000142302981 -4.826082471e-05 -9.824775253e-06 -3.6061977e-06)
5(-0.0002689975577 -5.949345797e-05 -1.585946035e-05 -2.727892893e-06 -5.958670918e-07)
5(-0.000128768579 -1.807274684e-05 -4.025804557e-06 -6.262479526e-07 -2.679742026e-07)
5(-3.200593778e-05 -3.625595338e-06 -7.106061507e-07 -1.199917684e-07 -1.572224125e-08)
5(-3.906972987e-06 -5.773630609e-07 -1.022713779e-07 -1.919720454e-08 4.927959397e-10)
5(-9.696851557e-08 -4.452736377e-08 -1.139535239e-08 -2.284315055e-09 -2.939175764e-10)
5(-8.643475331e-09 -3.530878681e-09 -5.679833664e-10 -3.137543261e-10 -4.985779332e-11)
5(-3.506079858e-10 -1.252011284e-09 -1.929485246e-11 -2.579276533e-08 -1.136311107e-12)
5(-3.252977097e-12 2.196237732e-08 -5.06515039e-10 2.654223231e-08 -2.900639669e-12)
5(-2.409603304e-14 -5.170167698e-14 -3.410830484e-05 -1.79330943e-13 -4.566680468e-13)
)


60
(
5(1.027169889e-05 5.919681528e-06 -2.784830535e-05 -7.0664243e-07 -0.0001223114842)
5(8.131630248e-05 8.301022665e-05 9.417245398e-05 0.0001056724419 7.634256555e-05)
5(0.0001032431512 0.0001244282547 0.0001263801043 0.0001346564975 0.0001034811378)
5(0.0001200119285 0.0001548516412 0.0001535911191 0.0001517022644 0.0001109605576)
5(0.0001498218978 0.0001884273901 0.0001921293455 0.0001750331863 0.0001249461747)
5(0.0001890494545 0.0002273825 0.0002363273391 0.0002054035279 0.0001476858191)
5(0.0002252877339 0.0002605711474 0.0002724666655 0.0002296729667 0.0001723342607)
5(0.0002398369655 0.0002639729696 0.0002833834186 0.0002359594017 0.0001869012146)
5(0.0002085411236 0.0002031078247 0.0002437595877 0.0001959554329 0.000173011687)
5(9.523701926e-05 4.53157494e-05 0.0001191641593 8.51009966e-05 0.0001080966305)
5(-0.0001295163829 -0.0002048045027 -0.0001003689554 -9.98768126e-05 -1.266244279e-05)
5(-0.0004121926089 -0.0005014707787 -0.0003813630543 -0.0003137045718 -0.0001651071413)
5(-0.0006972241335 -0.0007472804213 -0.0006362168942 -0.0004893791174 -0.0002987695285)
5(-0.000890249398 -0.0008525680947 -0.0007705671834 -0.0005607222251 -0.0003680683597)
5(-0.0008918223031 -0.0008088029228 -0.0007458711822 -0.0005282051092 -0.0003459912171)
5(-0.0007659890212 -0.0006595833615 -0.0006190221578 -0.0004241276833 -0.0002844981064)
5(-0.0006024968033 -0.000496833006 -0.0004630215649 -0.0003087611751 -0.0002075146517)
5(-0.0004413165042 -0.0003516823713 -0.0003328584066 -0.0002155653217 -0.0001471328585)
5(-0.0003230953116 -0.0002512695951 -0.0002334807199 -0.0001521264172 -0.000103286118)
5(-0.0002353326446 -0.0001840560546 -0.0001656054508 -0.0001117883285 -7.646712425e-05)
5(-0.0002180799678 -0.0001448808877 -0.0001236592995 -8.63439018e-05 -5.907648114e-05)
5(-0.0001456769063 -0.0001161426333 -9.770917813e-05 -6.792343969e-05 -3.80273242e-05)
5(-0.0001602876691 -9.739708843e-05 -8.133116406e-05 -5.657373486e-05 -3.857914561e-05)
5(-9.896012379e-05 -8.377323917e-05 -7.063581351e-05 -5.1440897e-05 -3.603221845e-05)
5(-0.0001156433168 -7.572809972e-05 -6.500892554e-05 -5.066499648e-05 -3.875544435e-05)
5(-8.792260668e-05 -7.266351547e-05 -6.520282171e-05 -5.578492311e-05 -4.988608977e-05)
5(-8.036556762e-05 -7.534496259e-05 -7.171441401e-05 -6.398172778e-05 -4.698449504e-05)
5(-0.0001087106748 -8.154127035e-05 -8.117459114e-05 -7.841728544e-05 -7.697767333e-05)
5(-8.775657852e-05 -9.491964095e-05 -9.822095872e-05 -9.776779782e-05 -7.989631169e-05)
5(-0.000106203269 -0.000114045588 -0.0001240249175 -0.0001241083454 -0.0001006193116)
5(-0.0001181985787 -0.0001395504404 -0.0001545248179 -0.0001551653126 -0.0001337044109)
5(-0.0001470551736 -0.0001748308211 -0.000190703498 -0.0001906669362 -0.0001605238397)
5(-0.0001649937972 -0.0002127251154 -0.0002306920827 -0.0002290995264 -0.0001738597999)
5(-0.0001649708973 -0.0002502714737 -0.0002680382603 -0.0002461546276 -0.000255743989)
5(-0.0002366816141 -0.0002799300317 -0.0002922723031 -0.0002444202645 -0.0002212335016)
5(-0.0004780912068 -0.0002915230695 -0.0002796892189 -0.000208414686 -6.001115869e-05)
5(-0.0006450557201 -0.0002571008025 -0.0002201877448 -0.0001186438589 -0.0002906503695)
5(-0.0003373730895 -0.0001694116679 -8.890333616e-05 3.581827577e-05 2.17661021e-05)
5(-0.000352215992 -2.447910446e-05 0.0001410690361 0.0002530080069 0.0001951550064)
5(-0.0002361385902 0.0002125956566 0.0004102966256 0.0005004160003 8.214593731e-05)
5(-0.0002206587527 0.0005402642737 0.0007026691024 0.0007316867367 0.0002893288844)
5(0.0002396934646 0.0008439504479 0.0009816648512 0.0008838935807 0.0003838484364)
5(0.0005203137501 0.001093325362 0.001133770321 0.0008855995207 0.0001930760508)
5(0.0007307929302 0.001170411266 0.001038027195 0.0006568115685 -0.0004296944939)
5(0.0005296004638 0.001033601027 0.0007255381226 0.0003143813988 -0.0002337388365)
5(0.0009347945739 0.0006425779804 0.0002919965648 -3.747043204e-05 -0.0002222614878)
5(0.0003707478971 0.0001147684658 -0.0001860873021 -0.0003103266146 -0.0005083078476)
5(-5.028773451e-05 -0.0003579651581 -0.0004904376412 -0.0004068579114 -0.0003117542008)
5(-0.001242686376 -0.0006321434858 -0.0005830871805 -0.0003452407405 -0.0002008529778)
5(-0.0009733969238 -0.0006784096344 -0.0004689486543 -0.0002277657192 -0.0001152271803)
5(-0.0008892638413 -0.0005147177162 -0.0002850443824 -0.0001137105292 -2.640850232e-05)
5(-0.0002669456119 -0.0002901776906 -0.0001292541487 -4.184742664e-05 -1.300115251e-05)
5(-7.90408141e-05 -0.0001210241091 -4.272593254e-05 -1.193597255e-05 -2.745581908e-06)
5(-9.935478048e-05 -3.423042817e-05 -9.527824112e-06 -2.367706255e-06 -5.873351827e-07)
5(-1.677175181e-05 -6.470254397e-06 -1.553423697e-06 -3.953513728e-07 -7.98915501e-08)
5(-8.661946835e-06 -7.634465299e-07 -1.493596127e-07 -4.55392054e-08 -1.150761298e-08)
5(-5.256040299e-07 -2.993773541e-08 -1.021651812e-08 2.350252681e-09 -8.58147385e-10)
5(-1.353841841e-08 1.316201433e-06 -2.504557396e-09 1.252801208e-06 -1.055382999e-11)
5(-6.857039774e-11 -0.0002664313232 7.07245498e-09 -0.0001460044179 -6.643078049e-12)
5(-2.509058798e-13 -3.080526281e-13 -6.094278477e-05 -6.378112973e-13 -1.052774849e-12)
)


60
(
5(1.100649943e-05 8.934110367e-06 -8.129766147e-05 -8.197425208e-05 -0.0003943564393)
5(0.0002004992464 0.0002084593682 0.0002186648058 0.0002018830177 8.002580208e-05)
5(0.000274346641 0.0003142530608 0.0003043966393 0.0002780402157 0.00016944907)
5(0.000326730795 0.0003815119095 0.0003616715236 0.0003093013358 0.0001944965224)
5(0.0003946331692 0.000449253874 0.0004272484812 0.0003455056586 0.000223137147)
5(0.0004838331241 0.0005257556078 0.0004992124862 0.0003943149658 0.0002683116761)
5(0.0005637572136 0.0005956811897 0.0005650170124 0.0004478771061 0.0003216359655)
5(0.0005979489472 0.000611052281 0.0005983727303 0.0004788126955 0.0003628218907)
5(0.000519874329 0.0004988112628 0.0005408960244 0.0004379372197 0.0003647393725)
5(0.0002692564944 0.0001961781601 0.0003243355709 0.0002736934963 0.000286202317)
5(-0.0002130654033 -0.0003370802266 -9.972719609e-05 -3.606953198e-05 0.0001067158445)
5(-0.0009271569058 -0.001011650165 -0.0006739410438 -0.0004471050213 -0.00016048789)
5(-0.001682442825 -0.00165011594 -0.001241567195 -0.000844146868 -0.0004244332768)
5(-0.002272681747 -0.002042919545 -0.001634484297 -0.001096331486 -0.0006175512286)
5(-0.002416425736 -0.00210601758 -0.001725546089 -0.001149068325 -0.0006708548637)
5(-0.002260204853 -0.00190786448 -0.001562693418 -0.001025569598 -0.0006205028214)
5(-0.001858033128 -0.001515030828 -0.001248599567 -0.0008099655349 -0.0004913228052)
5(-0.001413228568 -0.001107071373 -0.0009208252061 -0.0005957269537 -0.0003804664243)
5(-0.001015401007 -0.0007986808863 -0.0006659611437 -0.0004257081495 -0.000268413126)
5(-0.0007991738619 -0.0005909155369 -0.0004847615971 -0.0003105919827 -0.0001944809872)
5(-0.0006329691975 -0.0004429275083 -0.0003620233394 -0.000236534696 -0.0001525307203)
5(-0.0003791312113 -0.0003487471117 -0.0002843332424 -0.0001865950713 -9.417284426e-05)
5(-0.0002862628974 -0.0002808967365 -0.0002290211667 -0.0001530249065 -0.0001053392918)
5(-0.000327839561 -0.0002353024339 -0.0001935776876 -0.0001326305351 -0.0001010030439)
5(-0.0002267719817 -0.00020716256 -0.0001713526128 -0.00012384295 -9.168348773e-05)
5(-0.0002297118987 -0.0001891524145 -0.0001594982021 -0.0001241823029 -0.0001052428841)
5(-0.0001967283618 -0.0001815610189 -0.0001610631393 -0.0001346973454 -0.0001313536106)
5(-0.0002775296265 -0.0001846096281 -0.0001725292603 -0.0001544081452 -0.0001280033667)
5(-0.0002246313386 -0.0001997705504 -0.000195723166 -0.0001867776251 -0.0002282153921)
5(-0.0002178144421 -0.000226704824 -0.000232850709 -0.0002289819928 -0.0002095843407)
5(-0.0002677152642 -0.0002645669588 -0.0002840437207 -0.0002832706275 -0.0003087166641)
5(-0.0002830873717 -0.0003176992497 -0.00034766017 -0.0003456057004 -0.0003154296909)
5(-0.0003035572322 -0.0003765677677 -0.0004165644641 -0.0004163353928 -0.0003945479224)
5(-0.0003822196236 -0.0004468222394 -0.0004831646364 -0.0004639694071 -0.000392329079)
5(-0.0004325736893 -0.0005130155684 -0.0005385755026 -0.000489752558 -0.0006655616699)
5(-0.0005502338032 -0.0005569829354 -0.0005439337819 -0.0004679109569 -0.0004130215473)
5(-0.0005867350029 -0.0005334894509 -0.0004938744722 -0.0003522777981 -0.0003375383722)
5(-0.0005273425683 -0.0004510571616 -0.0003171345924 -0.0001382596176 -0.0006794330186)
5(-0.0003174122879 -0.0002385756226 -2.479020728e-05 0.000189573113 0.0001626399785)
5(-0.000176226677 0.0001123529358 0.0003767556019 0.0006269792654 -0.0003112931516)
5(-0.0001826422456 0.0005350160438 0.0009024966911 0.001091788272 0.0006562266378)
5(0.0002901512983 0.001042154272 0.00142008939 0.001471839385 0.001221369874)
5(0.0005768073047 0.001530766582 0.001782998502 0.001636981186 0.0004893615783)
5(0.0007478647777 0.001861142622 0.001889125906 0.001508708276 -0.0001889506757)
5(0.001281084521 0.001840292955 0.001678256848 0.001039860203 -0.0007420047061)
5(0.001162874711 0.001472992991 0.001056056285 0.0004213152952 0.0002548957228)
5(0.001023505015 0.0009573241192 0.0002162050199 -0.0001921997228 -0.0008480085503)
5(-0.0003582789401 3.57303113e-05 -0.0004258323482 -0.0006734794576 -0.000644097832)
5(-0.0006022930994 -0.0007593465091 -0.0008849675145 -0.0008123160539 -0.0007137275064)
5(-0.0008922422291 -0.001104347512 -0.001013690443 -0.0006948976565 -0.0005768659985)
5(-0.001509688826 -0.001033354801 -0.0007741756068 -0.0004371189595 -0.0003607256568)
5(-0.001807444486 -0.0007581243571 -0.0004450800131 -0.0002085901811 -7.036112255e-05)
5(-0.0007355584168 -0.0004004852963 -0.0001872593698 -7.565731059e-05 -2.573669567e-05)
5(-0.0006960543272 -0.0001501070897 -5.401650603e-05 -1.945391087e-05 -2.921133602e-06)
5(-0.0001278046033 -3.710018947e-05 -1.014319749e-05 -3.373618727e-06 -6.38708113e-07)
5(-5.235871658e-05 -5.232342887e-06 -1.258857701e-06 -3.871638471e-07 -6.672405273e-08)
5(-2.539607534e-06 -4.857852931e-07 -6.642360992e-08 -6.483830986e-08 -6.342265233e-09)
5(-2.53775077e-07 -5.504425275e-06 5.959777933e-08 -8.094342543e-06 -4.005984453e-10)
5(-3.173185967e-09 0.001161060271 -1.082106936e-05 0.001260363237 -1.147452539e-11)
5(-4.943646442e-11 177.7620444 2.413691624e-09 177.8808132 -1.892046945e-10)
)


60
(
5(-4.693962211e-06 -8.575897966e-06 -0.0002411563386 -0.0003492717781 -0.0009265125427)
5(0.0004055759757 0.0004234768537 0.000393915314 0.0002853217025 1.534833125e-06)
5(0.0005837370974 0.0006394758799 0.0005793905826 0.0004630263156 0.000221440495)
5(0.0006953416551 0.0007540848187 0.0006791061376 0.0005275090058 0.0002963470316)
5(0.0008204421051 0.0008605505679 0.0007779018489 0.0005854805321 0.0003599447102)
5(0.0009749483395 0.0009938377504 0.0008851399492 0.0006699251926 0.0004480590862)
5(0.001111373095 0.00111494505 0.001000252526 0.0007697337027 0.0005512600575)
5(0.00118243773 0.00117195262 0.00108090374 0.0008543759715 0.0006366893859)
5(0.001077462749 0.001027270997 0.001027806924 0.0008442515625 0.0006750467105)
5(0.0006457376952 0.0005480622364 0.0007373422423 0.0006530857064 0.0005918851043)
5(-0.0002141628312 -0.0003077853706 0.0001105955637 0.0002177618488 0.0003669440488)
5(-0.001476001545 -0.00151204546 -0.0008163838839 -0.0004287468308 -2.61681213e-05)
5(-0.002979058186 -0.002756100666 -0.001864721447 -0.001136027423 -0.0004755522986)
5(-0.004269972324 -0.003701267372 -0.002689556636 -0.001703938878 -0.0008752963435)
5(-0.004916427468 -0.004082104182 -0.003110113189 -0.001972767075 -0.001090440937)
5(-0.004855124212 -0.00390790208 -0.003042744358 -0.0019097933 -0.001113516056)
5(-0.004225004581 -0.003328079589 -0.002602779254 -0.00163128022 -0.0009435272505)
5(-0.00331487732 -0.002587049394 -0.002039167633 -0.001288459132 -0.0007828327592)
5(-0.002539766649 -0.001942232807 -0.001535269025 -0.0009712447165 -0.0005893195075)
5(-0.001884600635 -0.001425602271 -0.001127524476 -0.000724035865 -0.000455099187)
5(-0.001393524423 -0.001068535295 -0.000842345827 -0.0005432473561 -0.0003260243743)
5(-0.001116413192 -0.0008244587082 -0.0006451717561 -0.0004239829233 -0.0002587651063)
5(-0.0009258842744 -0.0006574510354 -0.000516411232 -0.0003446084718 -0.0002569253551)
5(-0.0008232909642 -0.0005334992896 -0.0004259891074 -0.0002907701315 -0.0001555719836)
5(-0.0005361593353 -0.0004511629625 -0.0003630780662 -0.0002582651849 -0.000186493515)
5(-0.0006379069647 -0.0004076497915 -0.0003282514231 -0.000244377196 -0.000197442529)
5(-0.000460440749 -0.0003716511696 -0.0003163323237 -0.0002499237356 -0.0001728283496)
5(-0.0004053074139 -0.0003602529317 -0.0003201529614 -0.0002701501312 -0.0002172440432)
5(-0.0003283301921 -0.0003677306193 -0.000342765957 -0.0003120004604 -0.000260185945)
5(-0.0005117385314 -0.0003952776601 -0.0003879542748 -0.0003724406498 -0.0003479616228)
5(-0.0004978901318 -0.0004466672776 -0.0004577915932 -0.0004471837455 -0.0004186290032)
5(-0.0004448269533 -0.0005063696204 -0.0005373912353 -0.0005467585958 -0.000635957028)
5(-0.0005173890825 -0.0005894289964 -0.0006397871731 -0.000655504791 -0.000541669627)
5(-0.0006008524625 -0.0006955565255 -0.000758905131 -0.0007576917431 -0.0006854848347)
5(-0.0007706465127 -0.0007944761657 -0.0008423607674 -0.0008220908242 -0.0007783450817)
5(-0.0008452074457 -0.0008815981357 -0.0008898737543 -0.0008193904773 -0.0007106368522)
5(-0.0009268750838 -0.0008980712114 -0.0008720855265 -0.0007055623544 -0.0005768700628)
5(-0.001060907757 -0.0008265463598 -0.0007185010327 -0.0004682927891 -0.0003968067212)
5(-0.0009752190322 -0.0006540129894 -0.0004038028172 -4.623680945e-05 -8.232328492e-05)
5(-0.0007544959178 -0.0002777361406 0.000145664351 0.0005639770814 0.000739958091)
5(-0.0002043322062 0.000255358509 0.0008373084264 0.001247115735 0.0005463374044)
5(0.0002769102825 0.0009687769699 0.001608428386 0.001945615477 0.0003947591868)
5(0.000573628883 0.001709011762 0.002328559494 0.002454432193 0.001730847452)
5(0.0009450923531 0.002279748831 0.0027407783 0.002537559818 0.001769603443)
5(0.0008258317842 0.002615326228 0.002751616368 0.002194188207 0.00125177662)
5(0.00214735293 0.002432406873 0.002062095487 0.00136948279 -0.0004819499999)
5(0.00136365785 0.001758061748 0.0009809278172 0.0004833569766 -0.001163417313)
5(0.001122502233 0.0006861392394 -0.0002140368583 -0.0005772734521 -0.001501324555)
5(0.0007194764535 -0.0004707829626 -0.001164653504 -0.001220863833 -0.001725134964)
5(-0.0004266025346 -0.001253494898 -0.0016074409 -0.001294512112 -0.000670928938)
5(-0.001748267975 -0.001565986041 -0.001511104229 -0.001030643031 -0.0004727584069)
5(-0.003774074961 -0.001544503262 -0.001059237112 -0.0006170102156 -0.0001772062862)
5(-0.002699899839 -0.001035497017 -0.0005505114509 -0.0002814497894 -0.0001785150518)
5(-0.002229079075 -0.0005174323856 -0.0002102626954 -9.306475982e-05 -2.962957524e-05)
5(-0.0007219478868 -0.0001830687025 -5.458255336e-05 -1.981552998e-05 -4.986477612e-06)
5(-0.0003930409478 -4.193712004e-05 -8.303787121e-06 -2.775556681e-06 -9.317056454e-07)
5(-8.799066827e-05 -4.895922862e-06 -5.548295147e-07 -2.59061266e-07 -4.214094501e-08)
5(-7.872027618e-06 -4.542598196e-06 -1.167795182e-08 -4.782334152e-06 -3.047078685e-09)
5(-4.075143163e-07 0.0005883804755 -7.706562867e-09 0.0003645716074 -8.926044406e-11)
5(-4.425976215e-07 -2.548355991e-09 -0.0001598129629 -5.018679716e-12 -6.339541441e-12)
)


60
(
5(-5.130573185e-05 -8.10858604e-05 -0.0005982090371 -0.0009429289377 -0.001818423843)
5(0.0007190449205 0.000741437551 0.0005947714358 0.0003020097265 -0.0001964765546)
5(0.001064450487 0.001120352911 0.0009524748963 0.0006669375438 0.0002460158571)
5(0.001263772543 0.001304423383 0.001119851494 0.0008008281285 0.0004127431002)
5(0.001464959248 0.001454740116 0.001249741096 0.0009062226496 0.0005497187126)
5(0.001687662862 0.001633191612 0.001406255102 0.001054624813 0.0007064225558)
5(0.001911866643 0.001823143548 0.001588695808 0.001226375974 0.000888483022)
5(0.002029584605 0.001947669627 0.001744636046 0.001393535065 0.001032700256)
5(0.001920216149 0.001828664195 0.001742558152 0.001452241424 0.001120917143)
5(0.001304450492 0.001247153264 0.001427916152 0.001265983417 0.001060724257)
5(7.102824992e-05 4.257629092e-05 0.0006190863594 0.0007315772466 0.0007876641986)
5(-0.002013693242 -0.001742916056 -0.0007005782472 -0.0001664866152 0.0002621086242)
5(-0.004408774625 -0.003783871674 -0.002299647486 -0.001255360146 -0.0004106214713)
5(-0.006790134659 -0.005614193322 -0.003774048563 -0.002257042371 -0.001083552687)
5(-0.008183995637 -0.006711636089 -0.004711362013 -0.002906939436 -0.001517887349)
5(-0.008496626825 -0.006817475628 -0.004962946552 -0.003101018012 -0.001722647381)
5(-0.007815069118 -0.006093326505 -0.004583406786 -0.002846988435 -0.00157932475)
5(-0.006732805912 -0.004955859441 -0.003801084735 -0.002364687335 -0.00139940725)
5(-0.005308223314 -0.003832742672 -0.002943532077 -0.001845072737 -0.001051374788)
5(-0.00376343459 -0.002902480317 -0.002216912053 -0.001405575439 -0.0008992252616)
5(-0.002843245661 -0.002177080046 -0.001664932703 -0.001073717997 -0.0006870142353)
5(-0.002198671663 -0.00166577675 -0.001273672784 -0.0008420428975 -0.0004746171062)
5(-0.001821238911 -0.001310898118 -0.001005162392 -0.0006721799734 -0.0003902452649)
5(-0.001336872625 -0.001066917455 -0.0008205399469 -0.00055685405 -0.0003305625395)
5(-0.001129206086 -0.0008945823128 -0.000691474694 -0.0004866581796 -0.0002572444283)
5(-0.00100768306 -0.0007738659848 -0.0006120123558 -0.0004444654644 -0.0002958201494)
5(-0.001024483827 -0.000691735526 -0.0005658259945 -0.0004309600731 -0.0003085433922)
5(-0.0008853375497 -0.000648990316 -0.0005516545951 -0.0004455546823 -0.0003909201115)
5(-0.0006870291426 -0.000631867038 -0.0005633952723 -0.0004872310822 -0.0003961432124)
5(-0.0007616024556 -0.0006459713924 -0.0006113062566 -0.0005570582691 -0.0004896244157)
5(-0.0006735093314 -0.0006946841468 -0.0006909314833 -0.0006621118904 -0.0006017772206)
5(-0.0007989964056 -0.0007737179382 -0.0008024582627 -0.0007827149493 -0.0007547847964)
5(-0.0008943258506 -0.000885730455 -0.0009431914792 -0.0009292019016 -0.0008921917672)
5(-0.0008955945505 -0.001006265013 -0.001089699019 -0.001079554145 -0.0006423382544)
5(-0.001043681116 -0.001141390125 -0.001232174068 -0.001200737287 -0.001103187348)
5(-0.001089544569 -0.001273947285 -0.001333481797 -0.001260418955 -0.001266443517)
5(-0.00146764801 -0.001363247811 -0.001364994828 -0.001217832894 -0.001012092914)
5(-0.001468356712 -0.001384910436 -0.001258218775 -0.0009793382759 -0.0006146814458)
5(-0.001435651563 -0.001226499424 -0.0009352951001 -0.0005240970087 -0.0006051023455)
5(-0.001087335871 -0.0008463814488 -0.0003926095041 0.0001778187633 -6.267688403e-05)
5(-0.0006396285271 -0.0002900109111 0.0004405365048 0.00107210111 0.0009148019028)
5(-0.0004705690404 0.000512504239 0.001427831346 0.002139297702 0.001448401385)