/*--------------------------------*- C++ -*----------------------------------*\
| =========                 |                                                 |
| \\      /  F ield         | OpenFOAM: The Open Source CFD Toolbox           |
|  \\    /   O peration     | Version:  2.3.1                                 |
|   \\  /    A nd           | Web:      www.OpenFOAM.org                      |
|    \\/     M anipulation  |                                                 |
\*---------------------------------------------------------------------------*/
FoamFile
{
    version     2.0;
    format      ascii;
    class       dictionary;
    location    "constant";
    object      rCH4;
}
// * * * * * * * * * * * * * * * * * * * * * * * * * * * * * * * * * * * * * //

rCH4_table
60
(

60
(
5(5.15529342e-05 1.308888641e-05 9.358909589e-05 5.045112568e-05 0.0001442640811)
5(8.502608757e-06 2.044823537e-07 1.543564788e-05 9.431209215e-06 2.01011286e-05)
5(0.001073425859 -2.270239482e-06 -2.231975796e-07 7.058506057e-08 0)
5(0.008518813336 -7.016281475e-06 -5.638877583e-06 -7.131710347e-07 -2.16272105e-06)
5(0.01078182895 -1.03999188e-05 -1.022436646e-05 -4.796629862e-06 -2.48808017e-06)
5(0.006186437155 -1.341539966e-05 -4.969537508e-06 -8.547951536e-06 -2.767830616e-06)
5(-2.449297713e-05 -1.752504985e-05 -1.027402148e-05 -8.183751389e-06 -1.292955802e-05)
5(-1.675286522e-05 -2.556325613e-05 -2.798145548e-05 -1.62280448e-05 -4.236902506e-06)
5(0.006220455079 -3.953508271e-05 -3.507932e-05 -2.562653862e-05 -1.310816137e-05)
5(0.01261101495 -7.128607002e-05 -6.76950918e-05 -3.291222848e-05 -2.194446462e-05)
5(0.01282452324 -0.0001050765852 -9.15918624e-05 -4.900777231e-05 -3.260605784e-05)
5(0.001492263666 -0.00011309248 -0.0001016257116 -6.717006027e-05 -4.015830866e-05)
5(-0.000119521764 -0.0001564959517 -0.0001294075878 -0.0001050764516 -6.235902925e-05)
5(-0.0001939286202 -0.0002159923698 -0.0001821614965 -0.0001202938281 -7.764604993e-05)
5(-0.0002226389196 -0.0002697540062 -0.0002285796177 -0.0001795891413 -0.0001041500306)
5(-0.0003960004839 -0.0004757724824 -0.0003517292346 -0.0002607812406 -0.0001488154523)
5(-0.000529324449 -0.0005894710759 -0.0004842020448 -0.0003425143234 -0.0002167188417)
5(-0.0006026306732 -0.0007236544292 -0.0005827141693 -0.0004757259527 -0.0003038775248)
5(-0.000703024279 -0.000886487132 -0.0007752312121 -0.0006279002822 -0.0004330252586)
5(-0.0009785774975 -0.001193410901 -0.001089691527 -0.0009383671967 -0.0005718935932)
5(-0.001264908788 -0.001500936307 -0.001367083176 -0.001220218056 -0.0007414332129)
5(-0.001679221921 -0.001961809474 -0.001895196323 -0.001334688043 -0.0008679557498)
5(-0.002338523762 -0.002669123501 -0.00248739455 -0.002041431281 -0.001344573392)
5(-0.003019902065 -0.003768237276 -0.003333270913 -0.002736298801 -0.001769398517)
5(-0.004152725121 -0.00513675987 -0.00459313427 -0.003887645085 -0.002504916674)
5(-0.005543045554 -0.006959662725 -0.006563367292 -0.005591963959 -0.003322148112)
5(-0.007445995156 -0.008886762148 -0.008237726167 -0.00759194019 -0.004418450491)
5(-0.009739307869 -0.0114036286 -0.01128469105 -0.009977665312 -0.005640539492)
5(-0.01351956146 -0.01523363677 -0.01414594265 -0.01224535309 -0.007095742876)
5(-0.01776139569 -0.02011164547 -0.01754798095 -0.01385480699 -0.008061367622)
5(-0.02342965475 -0.02545054184 -0.02218367345 -0.01674685069 -0.008909063386)
5(-0.02917788994 -0.02941578901 -0.02402420642 -0.01566883873 -0.006415388019)
5(-0.03429037771 -0.03249758611 -0.02528030117 -0.01363239176 -0.005696482077)
5(-0.03833123308 -0.03221696718 -0.02292966797 -0.007255748652 5.889025233e-05)
5(-0.03828743697 -0.02414032491 -0.0118140774 0.003507532546 0.006831186949)
5(-0.0303873664 -0.007796112304 0.00635046498 0.01907797737 0.01564569539)
5(-0.01136796053 0.02253565878 0.03355314056 0.03359968548 0.01937692541)
5(0.0216975347 0.06374350494 0.06444270971 0.04969043753 0.0120301866)
5(0.06952204521 0.1097325938 0.09826152001 0.05172978839 0.02091814048)
5(0.1319077004 0.1539918716 0.1230566243 0.04660224929 0.0007903844315)
5(0.1910354772 0.1690539174 0.09814208974 0.03375219153 0.001259653171)
5(0.2263103476 0.1572418563 0.06353621382 0.07748784672 -7.901522051e-19)
5(0.2291330818 0.09745264918 0.01157010209 -1.702626024e-21 -4.443047885e-21)
5(0.1865694816 0.03201156594 -0.0180124117 -2.97651206e-21 0.005757605421)
5(0.1011257569 -0.04368812257 -0.04031477849 -5.369304083e-21 0.0004259686463)
5(-0.0109504189 -0.08565498081 -0.04205014651 -2.30762559e-20 -6.481815751e-20)
5(-0.0979120453 -0.0736979881 0.009432193829 0.001283358346 -1.216347975e-19)
5(-0.1087543976 -0.02831829909 0.00427607242 -1.922724386e-19 -4.161894612e-19)
5(-0.1134134459 -0.01672909562 0.0005376109205 -3.832014755e-19 -1.7525069e-18)
5(-0.07131030658 7.12910987e-05 1.497353138e-20 -5.885086003e-19 -2.323758471e-18)
5(-0.03282566298 -5.330101204e-20 -1.176246882e-19 -7.097896556e-19 -3.037051684e-18)
5(-0.00165329605 -4.959253302e-20 -8.57924711e-20 -6.004117726e-19 -3.203784526e-19)
5(-2.290619549e-05 1.550512365e-19 -3.402285983e-19 -1.654342687e-18 -1.076757449e-17)
5(-3.399222648e-20 1.030384508e-19 3.967724931e-20 -1.422606186e-18 1.037703979e-17)
5(-7.687409375e-20 9.018834423e-19 -9.845926158e-20 -2.660796215e-18 8.144428338e-19)
5(4.89405352e-16 4.647960912e-19 -5.458802248e-19 6.848412372e-18 -9.495770255e-19)
5(1.735469816e-15 3.548557409e-19 1.835891472e-19 2.718503588e-18 -2.208546403e-17)
5(2.123873815e-15 3.222655704e-15 1.226319774e-17 4.992202613e-17 2.928805789e-16)
5(1.521880133e-15 4.840366261e-15 1.017479276e-14 5.460232636e-17 -8.693959217e-16)
5(-3.766697588e-19 -1.590751688e-18 -5.91886653e-18 -2.310494569e-17 -4.69188689e-17)
)


60
(
5(0.0001585306768 8.217681482e-05 0.0002919715083 0.0002265164522 0.0005161665223)
5(6.080226436e-05 4.240976263e-05 0.0001036114794 0.000102810131 0.000167359205)
5(1.584475017e-05 3.642575818e-06 3.839071486e-05 4.749305668e-05 7.447290775e-05)
5(-2.214638746e-05 -4.580785374e-05 -4.496753303e-06 5.194425333e-06 3.884610001e-05)
5(-7.896697365e-05 -0.0001194542487 -6.635370223e-05 -5.511429273e-05 3.082971847e-06)
5(-0.0001746950577 -0.0002314689698 -0.0001726420733 -0.0001552334993 -6.810435752e-05)
5(-0.0003153349005 -0.0003931936194 -0.000330322372 -0.0003037234952 -0.0001943088477)
5(-0.0005070088472 -0.0006236945504 -0.0005432019682 -0.0005162424347 -0.0003786226381)
5(-0.0007713170971 -0.0009521554788 -0.0008367000393 -0.0008222751586 -0.000639828388)
5(-0.001141283064 -0.001413401316 -0.00126385448 -0.001265335728 -0.001025194877)
5(-0.001687477245 -0.00205290706 -0.001884169778 -0.001897688241 -0.001592862398)
5(-0.002431823439 -0.002940659574 -0.002758688036 -0.002780231833 -0.002390425224)
5(-0.003464839003 -0.004147008297 -0.003959212112 -0.003980411948 -0.003468866965)
5(-0.004859548225 -0.005777974899 -0.005577736004 -0.005581183393 -0.004902817083)
5(-0.006737088633 -0.007970674888 -0.00774883247 -0.007723264384 -0.006819068735)
5(-0.009234348824 -0.01087581389 -0.01064051373 -0.01057152923 -0.009367316391)
5(-0.01262664746 -0.01471163392 -0.0144700273 -0.01432794147 -0.01274552991)
5(-0.01711550077 -0.0197773899 -0.01954095738 -0.01928866774 -0.01723841239)
5(-0.02302291516 -0.02644485838 -0.02620194186 -0.02579081827 -0.02309730094)
5(-0.03079001686 -0.03510562453 -0.03486207638 -0.03422393059 -0.03067553629)
5(-0.04091806968 -0.04626194865 -0.04602197456 -0.0450241097 -0.04047684811)
5(-0.05408423953 -0.0604745227 -0.06026478167 -0.05856663542 -0.05287708134)
5(-0.07089827213 -0.07850778341 -0.07821571996 -0.07543911502 -0.06817064436)
5(-0.09185021117 -0.1010367643 -0.1005131041 -0.09626415839 -0.08700549724)
5(-0.1185319341 -0.1288350933 -0.1278736009 -0.1214641877 -0.1093735618)
5(-0.1511397689 -0.1625618133 -0.1605879858 -0.1512331832 -0.135340384)
5(-0.1909688515 -0.2026930708 -0.199111659 -0.1854080848 -0.1644815393)
5(-0.2389449284 -0.2492395149 -0.2433095975 -0.2232096351 -0.1962010553)
5(-0.2950736264 -0.3015858444 -0.2918188303 -0.262797993 -0.226892452)
5(-0.358701856 -0.3587435423 -0.3422274975 -0.3009976403 -0.2542960652)
5(-0.4287183724 -0.4175715733 -0.3905376132 -0.3326662852 -0.2727403273)
5(-0.5019888208 -0.4725802969 -0.4307530686 -0.351037644 -0.2746724657)
5(-0.5730000321 -0.5167484451 -0.4532775056 -0.3456539612 -0.2495741396)
5(-0.6326335854 -0.5384111428 -0.4453583246 -0.304297567 -0.190076255)
5(-0.6695015817 -0.5227989748 -0.3917920344 -0.2149861992 -0.08412733797)
5(-0.6665118562 -0.4557210503 -0.2783065953 -0.06835074521 0.06849209175)
5(-0.608177319 -0.3208017427 -0.09442850416 0.1379125121 0.2634718364)
5(-0.4778831636 -0.1107171667 0.1583169947 0.3910333005 0.4806399849)
5(-0.2650662559 0.1688913215 0.4619497381 0.657177676 0.6767330083)
5(0.02285987457 0.4949897458 0.774434502 0.8843717237 0.7906259008)
5(0.3621926467 0.8136117558 1.02874325 1.00512737 0.7733316343)
5(0.6900742119 1.057743921 1.149252858 0.958500431 0.6072178486)
5(0.9447317321 1.145294053 1.072743469 0.7260204325 0.3323298759)
5(1.042227378 1.024367204 0.7851803774 0.3642544585 0.03096464532)
5(0.921317953 0.6972528423 0.3458202952 -0.02980843003 -0.2074979225)
5(0.5959417005 0.2375303094 -0.1187385956 -0.3288493443 -0.3172322973)
5(0.1500767459 -0.2381071539 -0.4772384257 -0.4584958813 -0.297500641)
5(-0.2912525743 -0.5754529498 -0.6237823392 -0.4245566817 -0.2042802124)
5(-0.5801973374 -0.6861695984 -0.562750345 -0.2952873197 -0.1083789003)
5(-0.6680596118 -0.5929258822 -0.3812791553 -0.1595590057 -0.04570597414)
5(-0.5477883118 -0.3886803551 -0.2006262987 -0.06705553224 -0.01546602638)
5(-0.3424991359 -0.1939695269 -0.08037463159 -0.02230085798 -0.004289742625)
5(-0.1588212594 -0.072898976 -0.02492879443 -0.005840290538 -0.0009746042067)
5(-0.05175843698 -0.01938921665 -0.005564379833 -0.001204335404 -0.0001922751293)
5(-0.01120421948 -0.00376095496 -0.0009041311254 -0.0001901640716 -2.999768337e-05)
5(-0.001385153608 -0.0004022789069 -0.0001039957891 -2.17189797e-05 -3.732783514e-06)
5(-9.610672898e-05 -3.123117606e-05 -6.014162708e-06 -1.638823271e-06 -2.670508479e-07)
5(-2.856930907e-06 -9.319142974e-07 -1.956776795e-07 9.767068805e-09 -8.99312139e-09)
5(-1.179307293e-08 -7.922083458e-08 2.628152878e-08 -7.591670071e-08 -6.032079754e-11)
5(-1.00754005e-15 -4.692319221e-15 9.443591515e-05 -1.216634722e-14 -1.942585297e-14)
)


60
(
5(0.0003757298224 0.0002396162479 0.0007302104188 0.0006799165566 0.00141151554)
5(0.0001885825248 0.0001537369355 0.0003316821939 0.0003829677075 0.0006111161723)
5(6.907147595e-05 4.729640882e-05 0.0001606943825 0.000232071988 0.0003630142622)
5(-5.34791483e-05 -0.0001042337466 2.802195567e-05 0.0001056405351 0.0002648955391)
5(-0.0002413197629 -0.0003400538811 -0.0001722003631 -8.284303548e-05 0.0001512492081)
5(-0.0005603879717 -0.0007148902176 -0.000521654797 -0.0004132452706 -9.159202005e-05)
5(-0.001047520772 -0.001283205186 -0.001066271729 -0.0009432287457 -0.0005535273636)
5(-0.001745379177 -0.002121721136 -0.001861659345 -0.001742265795 -0.001259359126)
5(-0.002733894645 -0.003337257808 -0.003005502902 -0.002912920502 -0.00229135869)
5(-0.004180382669 -0.005085499467 -0.004687456791 -0.004612728863 -0.003757604941)
5(-0.006279479326 -0.007564098098 -0.007110743204 -0.007028397539 -0.005889143007)
5(-0.009241041105 -0.01101919726 -0.01053217957 -0.01037400872 -0.008837301276)
5(-0.0133006307 -0.01571775353 -0.01522362388 -0.01489750927 -0.0127855557)
5(-0.01887560269 -0.02206723766 -0.02152381211 -0.02093233229 -0.01802247674)
5(-0.02637547815 -0.03061306931 -0.02992579109 -0.02894939548 -0.02487943454)
5(-0.0366142667 -0.04201721137 -0.04113686638 -0.03954321612 -0.03407117204)
5(-0.05004753878 -0.05713658289 -0.055953785 -0.05339949815 -0.04608956891)
5(-0.06801597548 -0.07696036612 -0.07542708576 -0.0715407608 -0.06214616374)
5(-0.09173481395 -0.1027307782 -0.1006836586 -0.09516084441 -0.08290185719)
5(-0.1225982101 -0.136074026 -0.1333235506 -0.1255734417 -0.1095457202)
5(-0.1632690104 -0.1787278051 -0.1750436598 -0.1641355426 -0.1430488385)
5(-0.214103545 -0.232576958 -0.2276497232 -0.2120854579 -0.1852893291)
5(-0.2796264442 -0.2999549352 -0.2927419722 -0.2705821881 -0.2367928955)
5(-0.3611055043 -0.3830881583 -0.3722482996 -0.3411296645 -0.2981333483)
5(-0.4630381646 -0.4840895582 -0.4678404536 -0.4246579018 -0.3694560029)
5(-0.5852794961 -0.604460929 -0.580491084 -0.5204408619 -0.4510841432)
5(-0.7324516647 -0.7449972801 -0.7095512986 -0.6276593607 -0.5375372292)
5(-0.9081398004 -0.9036598052 -0.8525294987 -0.7418548316 -0.6294714942)
5(-1.102997182 -1.079503437 -1.005121935 -0.8584874783 -0.7145105798)
5(-1.324779355 -1.266418981 -1.159093257 -0.9680115328 -0.7888513808)
5(-1.561182534 -1.45391486 -1.305620493 -1.060055184 -0.8409685441)
5(-1.806708694 -1.632714955 -1.431046631 -1.120258018 -0.852302387)
5(-2.042491219 -1.786807747 -1.514063656 -1.12861621 -0.8121734303)
5(-2.251776302 -1.889620604 -1.532201758 -1.068823014 -0.6940119159)
5(-2.40879751 -1.918153409 -1.462997721 -0.9173804358 -0.4947669687)
5(-2.496578685 -1.846852256 -1.282533795 -0.6576952262 -0.1934986242)
5(-2.44096937 -1.651684311 -0.9720472927 -0.2854496774 0.1892941732)
5(-2.268909471 -1.312834144 -0.5337987163 0.1842705539 0.6300885193)
5(-1.918217953 -0.8323828898 0.009160253288 0.7073823812 1.064181925)
5(-1.420397382 -0.2506815669 0.6067956526 1.208163806 1.41535381)
5(-0.8157604879 0.3692402939 1.165247259 1.582919039 1.56665975)
5(-0.1318078685 0.9343843642 1.562472664 1.72559253 1.465652177)
5(0.47301175 1.318234344 1.684746909 1.561425542 1.098213613)
5(0.8916083036 1.413712915 1.4624274 1.087912572 0.5417814054)
5(1.029901378 1.171105153 0.9174735026 0.4203893036 -0.05986877031)
5(0.8443348975 0.6324038984 0.1918587425 -0.2596934106 -0.5398552058)
5(0.367839311 -0.05255858084 -0.5212459108 -0.7732901436 -0.7719377666)
5(-0.2134111427 -0.6843413552 -0.9942784129 -0.9829845823 -0.7488277138)
5(-0.7208977742 -1.04818265 -1.130441423 -0.8843278907 -0.5562764624)
5(-0.9916692311 -1.08994016 -0.9581915036 -0.634220783 -0.3270359092)
5(-0.9632030083 -0.8679881713 -0.6316555045 -0.356459232 -0.1516132726)
5(-0.7133855641 -0.5353009288 -0.3254793473 -0.1564540976 -0.05606226102)
5(-0.3990126102 -0.2528593675 -0.127271501 -0.05303251105 -0.01632197258)
5(-0.1595248578 -0.08554554119 -0.03567960411 -0.01311751694 -0.003616558987)
5(-0.04369188856 -0.01998060955 -0.007090110382 -0.00243976463 -0.0006433459402)
5(-0.006993275574 -0.002996121553 -0.0008673862561 -0.0003090356203 -7.693665274e-05)
5(-0.0006163894844 -0.0002032762899 -6.58328773e-05 -2.189172505e-05 -5.608747e-06)
5(-1.63650191e-05 -8.011655329e-06 -2.084150922e-06 -3.757329863e-06 -2.28809175e-07)
5(-1.253018423e-07 -0.0007502009883 -6.288039597e-08 -0.0005426335068 -1.16130624e-09)
5(-1.866362881e-11 -1.214911183e-14 3.578929408e-05 -2.367075938e-14 -5.53113065e-14)
)


60
(
5(0.0007691195183 0.0005680959187 0.001597696884 0.001703997133 0.003258415182)
5(0.0004570046781 0.0004236643752 0.000857582648 0.001089886223 0.001684503296)
5(0.0002129241065 0.0002070322219 0.000504549964 0.0007688240695 0.001158749639)
5(-6.934774729e-05 -0.000129431346 0.0002091698022 0.0004857210749 0.000927844554)
5(-0.0005103714523 -0.0006744584709 -0.000260455089 3.644023784e-05 0.0006267935855)
5(-0.001260244976 -0.001568338657 -0.001103173153 -0.0007748576672 -1.205718919e-05)
5(-0.002435252201 -0.002954043804 -0.002466178511 -0.002120930913 -0.001213501682)
5(-0.004164501512 -0.005055467904 -0.004526204674 -0.004210116716 -0.003086388784)
5(-0.006706918899 -0.008159112939 -0.007551251835 -0.007286539392 -0.005792568443)
5(-0.01041971463 -0.01263622861 -0.01199628341 -0.01173820032 -0.009649827774)
5(-0.01575429059 -0.01900192616 -0.01840733456 -0.01804088423 -0.01516257203)
5(-0.02337018097 -0.02785978862 -0.02739206178 -0.02672197522 -0.02268010394)
5(-0.03393737002 -0.03998920693 -0.03963740793 -0.03834997836 -0.03257274028)
5(-0.04826017958 -0.05639757711 -0.05602621398 -0.0538078963 -0.0459658906)
5(-0.06750129117 -0.07838836711 -0.07777127344 -0.0743238187 -0.06316725583)
5(-0.09351955021 -0.1075097409 -0.1065787667 -0.1013125642 -0.08629622256)
5(-0.1284159784 -0.1458811393 -0.1445856245 -0.1365784486 -0.1165857842)
5(-0.1739181173 -0.1961615979 -0.1944014318 -0.1826452939 -0.1565138209)
5(-0.2345376228 -0.2614069763 -0.2590549308 -0.2425311193 -0.2086791941)
5(-0.3125681771 -0.3457608456 -0.3422727494 -0.3192553385 -0.2750828573)
5(-0.4137716731 -0.4535281581 -0.4478368401 -0.416159938 -0.3593923362)
5(-0.5441105956 -0.5889767807 -0.5806780505 -0.5365964478 -0.4653667101)
5(-0.7084191019 -0.7582563421 -0.7457347501 -0.6833147886 -0.5943513649)
5(-0.9102643155 -0.9668987565 -0.9471942169 -0.859607463 -0.7481210959)
5(-1.161567368 -1.219107889 -1.186809988 -1.067668965 -0.9219600406)
5(-1.467305777 -1.517445251 -1.466404999 -1.306769137 -1.122791297)
5(-1.830646422 -1.864083085 -1.785763058 -1.572180763 -1.341328443)
5(-2.25780559 -2.257042832 -2.140275501 -1.857483726 -1.560799484)
5(-2.740277266 -2.690160126 -2.518342442 -2.149670925 -1.789687738)
5(-3.276808726 -3.152673424 -2.904294437 -2.429890354 -1.975713591)
5(-3.857367298 -3.626178222 -3.2806361 -2.679276867 -2.131557068)
5(-4.455857161 -4.086533667 -3.618477632 -2.871326334 -2.201797328)
5(-5.039742684 -4.499358192 -3.877062484 -2.969230737 -2.182545581)
5(-5.583906704 -4.821964655 -4.017726118 -2.94658844 -2.027750271)
5(-6.014584461 -5.013916203 -4.003913852 -2.760821458 -1.721479859)
5(-6.303190548 -5.020409146 -3.801250922 -2.385640271 -1.256909155)
5(-6.385000684 -4.814485187 -3.373958195 -1.819320306 -0.6284071265)
5(-6.186600281 -4.353159922 -2.716980783 -1.07317962 0.1135199418)
5(-5.719385169 -3.636642916 -1.845998428 -0.1986242105 0.9060681603)
5(-4.938559846 -2.701315642 -0.832390936 0.7046971471 1.616219848)
5(-3.864076032 -1.611552443 0.1943322574 1.500520568 2.109092469)
5(-2.687784008 -0.5101648744 1.076854909 2.030929234 2.268490469)
5(-1.442022706 0.4281210491 1.639894272 2.151172687 1.97420186)
5(-0.3818811921 1.034376156 1.747400859 1.800420475 1.315536616)
5(0.3665348908 1.185919458 1.365106616 1.041534464 0.4264831094)
5(0.6366730474 0.8673397484 0.5809789512 0.08309080125 -0.4785532776)
5(0.4421924726 0.2133256917 -0.3661262603 -0.8049249673 -1.140541166)
5(-0.08167141535 -0.6004603094 -1.148910192 -1.40938023 -1.402004828)
5(-0.6961127515 -1.256496691 -1.586205406 -1.564951217 -1.26828132)
5(-1.191755064 -1.532407886 -1.607128651 -1.340812058 -0.9139954268)
5(-1.376242841 -1.407970757 -1.231781223 -0.8957766726 -0.5265432598)
5(-1.207374107 -1.030699617 -0.7502265572 -0.478611667 -0.2398384994)
5(-0.8309050879 -0.5749627179 -0.3509609573 -0.1986371176 -0.08499122703)
5(-0.4296255633 -0.2379669544 -0.1199758834 -0.06119293496 -0.02290560916)
5(-0.1580937174 -0.06846644766 -0.02777251666 -0.01313130343 -0.004454902758)
5(-0.03608387382 -0.01190090064 -0.004201391882 -0.001824634048 -0.0006349345694)
5(-0.003588946559 -0.001245147372 -0.0003063152335 -0.0001513211769 -4.566263916e-05)
5(-0.0002791404936 -4.291052164e-05 -1.192481489e-05 1.251546461e-05 -1.718767646e-06)
5(-4.274214706e-06 0.00399110655 -4.200609777e-05 0.004389547303 -1.566336247e-08)
5(-9.392451972e-08 -0.01948370368 0 -0.0003719347589 2.203682777e-13)
)


60
(
5(0.001419089557 0.001181706257 0.003150064955 0.003721281814 0.006624181337)
5(0.0009555855551 0.0009832678033 0.001919158793 0.002600146941 0.003879683503)
5(0.0005327885248 0.0006209633244 0.001297320968 0.002009127093 0.002887234008)
5(-8.5522347e-08 7.386417196e-06 0.0007486400421 0.001471199308 0.002381352886)
5(-0.0008471563919 -0.001025161243 -0.0001536814711 0.0005760202407 0.001734970789)
5(-0.002293951111 -0.002755230123 -0.001824113868 -0.001091193131 0.0003332016733)
5(-0.004609821659 -0.005512734013 -0.004608652474 -0.003903963617 -0.002215343329)
5(-0.008083703159 -0.009753625824 -0.008899156645 -0.00826938031 -0.006182224353)
5(-0.01322223729 -0.01607042182 -0.01527367606 -0.01473704461 -0.0118735518)
5(-0.02080137709 -0.02526497858 -0.02461053266 -0.02408967907 -0.02012000062)
5(-0.03168602158 -0.03827356289 -0.03795636522 -0.03719076357 -0.0313794875)
5(-0.04714111485 -0.05639193064 -0.05653820121 -0.05505813363 -0.04684248517)
5(-0.06851007357 -0.08110604226 -0.08177029988 -0.07896868214 -0.06735318332)
5(-0.09795379753 -0.1143242287 -0.1154462496 -0.1107194923 -0.09440200263)
5(-0.1368577104 -0.1586080727 -0.1601634717 -0.1525575856 -0.1302148356)
5(-0.1890865748 -0.2172305293 -0.2192399102 -0.2074834329 -0.1776184694)
5(-0.2588653151 -0.2943805048 -0.2964983935 -0.2796179959 -0.2393393773)
5(-0.3505121139 -0.3949679906 -0.397227704 -0.373736474 -0.3215740662)
5(-0.470340465 -0.5253378179 -0.5280157121 -0.4951649082 -0.4276810866)
5(-0.6261740822 -0.6933808456 -0.6958611687 -0.6506384255 -0.5652547687)
5(-0.8265959656 -0.9077004891 -0.9091557754 -0.8474596931 -0.7377962162)
5(-1.081560887 -1.177823182 -1.177464804 -1.093379316 -0.9565823445)
5(-1.404790622 -1.515062268 -1.510490617 -1.394805215 -1.221648457)
5(-1.809156246 -1.929638395 -1.915662396 -1.757525514 -1.536353289)
5(-2.302514287 -2.431719608 -2.399716894 -2.18474855 -1.904586178)
5(-2.904356765 -3.029001138 -2.968253877 -2.677507151 -2.325636918)
5(-3.614712179 -3.721638636 -3.620147349 -3.229827742 -2.777567964)
5(-4.452348397 -4.511402525 -4.346379761 -3.829345412 -3.25781638)
5(-5.405980392 -5.391501752 -5.127966805 -4.450684628 -3.740306322)
5(-6.478560678 -6.335317134 -5.941185711 -5.0672779 -4.196080678)
5(-7.626307409 -7.309872676 -6.751472876 -5.642262187 -4.578709607)
5(-8.814482364 -8.280175389 -7.508047989 -6.126973253 -4.858910632)
5(-10.00474819 -9.183905937 -8.14272431 -6.466299109 -4.94912176)
5(-11.12474426 -9.95949868 -8.588652973 -6.608035521 -4.84310288)
5(-12.10575334 -10.5141807 -8.79187361 -6.494423515 -4.486933094)
5(-12.8212658 -10.76801944 -8.675872075 -6.081554537 -3.862022656)
5(-13.16128133 -10.67966752 -8.186158166 -5.346327949 -2.961776089)
5(-13.07946993 -10.15702261 -7.307863709 -4.280011426 -1.832046083)
5(-12.46834997 -9.156142657 -6.051435307 -2.949440517 -0.5453574714)
5(-11.33554035 -7.760546049 -4.498569572 -1.472847239 0.7409084962)
5(-9.728167602 -6.034008692 -2.780951431 -0.01531915758 1.841233753)
5(-7.726853331 -4.148390302 -1.111253704 1.200227863 2.523053092)
5(-5.538862984 -2.317964865 0.2572239793 1.95418369 2.632178374)
5(-3.46739984 -0.7817357352 1.100975983 2.087368431 2.141262665)
5(-1.700945347 0.2167295231 1.284994221 1.576880304 1.134734558)
5(-0.5234733274 0.5505117612 0.810538471 0.5719924258 -0.09068035295)
5(0.01569089294 0.2577144906 -0.121421805 -0.5809837387 -1.209766485)
5(-0.04627111361 -0.458417691 -1.171714109 -1.611163938 -1.936046108)
5(-0.5493628802 -1.277645801 -1.961242275 -2.158751737 -2.117646577)
5(-1.187542234 -1.84511716 -2.232270236 -2.128347582 -1.799917113)
5(-1.653935012 -1.993292524 -1.98499073 -1.672441135 -1.226135936)
5(-1.762285704 -1.746370457 -1.406275817 -1.05323867 -0.6770123876)
5(-1.506120625 -1.17376517 -0.7775936516 -0.5197553295 -0.2833605654)
5(-1.026756229 -0.6167389959 -0.3225201601 -0.1921927091 -0.09501756261)
5(-0.5412984037 -0.2363946404 -0.09526239285 -0.04930142066 -0.02197910201)
5(-0.2076739656 -0.06028616854 -0.01734638098 -0.008327038055 -0.00293201077)
5(-0.05236566355 -0.008701837881 -0.001551039173 -0.0008318246321 -0.0002909877131)
5(-0.00643602585 -0.0005897740087 -7.414441044e-05 -1.976481249e-05 -1.120487967e-05)
5(-0.0004911010697 0.002527583495 4.084399272e-07 0.00183125117 -9.492228582e-08)
5(-0.000440989324 -2.88581811e-06 -0.001129210688 -6.317457584e-12 -1.788523854e-13)
)


60
(
5(0.002417019619 0.002227590233 0.005709680462 0.00730107481 0.01220962687)
5(0.001793383062 0.002005452499 0.003830967728 0.005414099936 0.007793165825)
5(0.00112490907 0.001477596625 0.002856913785 0.004412799826 0.006043968303)
5(0.0002481666746 0.0004939122912 0.001959950878 0.003479680044 0.005217245131)
5(-0.001174410121 -0.001228799957 0.0004129538708 0.00188996619 0.003967145116)
5(-0.003650149783 -0.004197156529 -0.002516000472 -0.001105418088 0.00127096691)
5(-0.007622054815 -0.008996888704 -0.007510731815 -0.00622175477 -0.003351466364)
5(-0.01373536429 -0.01645613107 -0.01531029462 -0.01422282681 -0.01083671585)
5(-0.02281554065 -0.02763569993 -0.02691511746 -0.02604878314 -0.02143932913)
5(-0.03625203537 -0.04390213322 -0.04383244182 -0.04302947464 -0.03628498791)
5(-0.05553733828 -0.06698455455 -0.06788887842 -0.06663144503 -0.05693550588)
5(-0.08285372111 -0.09897083888 -0.1012039117 -0.09870828319 -0.08461567175)
5(-0.1205669406 -0.142471865 -0.146182527 -0.1413924176 -0.1216271559)
5(-0.1715715685 -0.2008649329 -0.2059768731 -0.1977843549 -0.1699679455)
5(-0.2402909045 -0.2784427303 -0.28493972 -0.2719871511 -0.2339515114)
5(-0.3315668091 -0.3806478392 -0.3888989282 -0.3694697638 -0.3181696137)
5(-0.4523884157 -0.5144093708 -0.5250050282 -0.4968471333 -0.4295963245)
5(-0.6117166062 -0.6887018316 -0.7021591728 -0.6625659587 -0.5763514033)
5(-0.8177323356 -0.9143072244 -0.9310702098 -0.8770502432 -0.7660945119)
5(-1.085632996 -1.204284707 -1.224875818 -1.152710826 -1.014380341)
5(-1.429788917 -1.573522825 -1.598375747 -1.50231474 -1.325863288)
5(-1.86538968 -2.039201497 -2.067926169 -1.939249798 -1.716708004)
5(-2.420765312 -2.620692558 -2.650864164 -2.475493944 -2.19593566)
5(-3.108341707 -3.336662187 -3.36292439 -3.123196303 -2.772452065)
5(-3.951317636 -4.203705582 -4.217848172 -3.892702125 -3.447724948)
5(-4.979180908 -5.236017601 -5.225513808 -4.784666433 -4.220642611)
5(-6.211268121 -6.443774723 -6.385409577 -5.792247566 -5.075551299)
5(-7.642239476 -7.828574417 -7.682924632 -6.899678765 -5.999368354)
5(-9.267842622 -9.371342695 -9.096368809 -8.071085069 -6.930266904)
5(-11.10769851 -11.04307747 -10.59169975 -9.2574706 -7.842948903)
5(-13.10050175 -12.80803901 -12.1079153 -10.40602417 -8.676997545)
5(-15.20064718 -14.59533672 -13.55852792 -11.44128716 -9.341477199)
5(-17.31203125 -16.29256973 -14.86281698 -12.27273124 -9.763598327)
5(-19.31285696 -17.81668912 -15.9063906 -12.80698818 -9.883901802)
5(-21.13524794 -19.03262765 -16.58218274 -12.95758618 -9.588402226)
5(-22.51947499 -19.81415514 -16.77402532 -12.64501962 -8.885123732)
5(-23.44669509 -20.04260114 -16.38479681 -11.80930086 -7.734205284)
5(-23.60765684 -19.57320748 -15.37730798 -10.43923379 -6.165568802)
5(-23.0264922 -18.37693064 -13.71187555 -8.585778455 -4.24802812)
5(-21.54680748 -16.49003645 -11.45616628 -6.371357707 -2.143445374)
5(-19.23905366 -13.95319402 -8.822494206 -3.98924269 -0.2476418748)
5(-16.2119072 -10.9945201 -6.0340863 -1.7361415 1.440403844)
5(-12.81726045 -7.893378356 -3.442880498 0.0923820506 2.320941511)
5(-9.269055745 -4.962199723 -1.343871646 1.211612947 2.463406729)
5(-5.982215633 -2.580059055 -0.03393251552 1.447319378 1.731017956)
5(-3.356538817 -1.011715925 0.3557522558 0.8476012047 0.4713975248)
5(-1.728721478 -0.3511473387 -0.0841458101 -0.3120975338 -0.9967295588)
5(-0.6815342783 -0.5046195507 -1.033360139 -1.567158558 -2.250491771)
5(-0.5666456049 -1.157148677 -2.022307955 -2.535308607 -2.884533507)
5(-1.088747273 -1.875149411 -2.719843436 -2.938129659 -2.842728858)
5(-1.609338898 -2.412099454 -2.811708626 -2.643408417 -2.250549206)
5(-2.073129747 -2.401845329 -2.322349023 -1.904364209 -1.41565407)
5(-2.19967227 -2.054966696 -1.523360203 -1.096709385 -0.7144655896)
5(-1.87595383 -1.390571971 -0.7817853594 -0.4881842961 -0.2796942761)
5(-1.345261783 -0.7336444368 -0.2962540334 -0.1556509113 -0.07551223593)
5(-0.7939255048 -0.2845802893 -0.06840977889 -0.03210587634 -0.01369545639)
5(-0.3422421394 -0.08154460485 -0.01153169793 -0.003725130627 -0.001254722136)
5(-0.1161132303 -0.01117812136 -0.0008160354308 -0.0002033567558 -6.869021324e-05)
5(-0.02965773077 -0.001099093103 -2.685982912e-05 -1.305243005e-06 -4.990531496e-07)
5(-0.03279534705 -0.001449490774 -0.004708424685 -2.037728758e-08 -0.0002799014957)
)


60
(
5(0.003870724251 0.003880678297 0.009678269065 0.01313509303 0.02085949177)
5(0.00309603638 0.003700942125 0.006977876606 0.01016850165 0.01416076748)
5(0.002148507681 0.003019346871 0.005568747622 0.008587241714 0.01137452254)
5(0.0008088826652 0.001573004101 0.004224621351 0.007065141651 0.009709972275)
5(-0.00137741422 -0.001066070543 0.001806954056 0.004426423001 0.007591021154)
5(-0.005258438704 -0.005718771294 -0.002929002325 -0.0005489552476 0.002945724399)
5(-0.01154562942 -0.01338511047 -0.01109286117 -0.00899522973 -0.004904257192)
5(-0.02133401747 -0.02540052601 -0.02391875536 -0.02215997669 -0.01749878871)
5(-0.03599429432 -0.04344383085 -0.04301710849 -0.04162698496 -0.03505454788)
5(-0.05772384948 -0.06974933374 -0.07077414082 -0.06945566112 -0.05932867824)
5(-0.088932932 -0.1069654629 -0.110000208 -0.1079712385 -0.09325396162)
5(-0.133076291 -0.1584404252 -0.1640717744 -0.1599443384 -0.1387170078)
5(-0.1933546081 -0.228166303 -0.2366752001 -0.2289938889 -0.199005311)
5(-0.2752173744 -0.3213173382 -0.3329745791 -0.3199679857 -0.2779250639)
5(-0.3845722604 -0.4446011594 -0.4596857582 -0.4392822604 -0.3817334107)
5(-0.5297430612 -0.6067965956 -0.6259857429 -0.595668129 -0.5181194464)
5(-0.721765463 -0.8186750734 -0.8428899152 -0.7997507578 -0.6985209932)
5(-0.97091687 -1.093671805 -1.124569611 -1.065087054 -0.9358513503)
5(-1.297236166 -1.448434626 -1.488118321 -1.408423271 -1.247955156)
5(-1.716767425 -1.903934453 -1.954583955 -1.849966527 -1.645751528)
5(-2.256934793 -2.483996351 -2.547649226 -2.410585924 -2.157286118)
5(-2.940705948 -3.215944321 -3.293999185 -3.112911203 -2.801287501)
5(-3.798288434 -4.128996511 -4.221486982 -3.978758723 -3.585644557)
5(-4.879190092 -5.252193253 -5.355994687 -5.028613853 -4.541638587)
5(-6.201681672 -6.615855698 -6.721732543 -6.277348558 -5.671272467)
5(-7.794511715 -8.246345677 -8.335668748 -7.732736637 -6.958700395)
5(-9.717041063 -10.15895655 -10.20177823 -9.396344708 -8.412363709)
5(-11.95004586 -12.35749309 -12.3102872 -11.24599969 -9.999912182)