/*--------------------------------*- C++ -*----------------------------------*\
| =========                 |                                                 |
| \\      /  F ield         | OpenFOAM: The Open Source CFD Toolbox           |
|  \\    /   O peration     | Version:  2.3.1                                 |
|   \\  /    A nd           | Web:      www.OpenFOAM.org                      |
|    \\/     M anipulation  |                                                 |
\*---------------------------------------------------------------------------*/
FoamFile
{
    version     2.0;
    format      ascii;
    class       dictionary;
    location    "constant";
    object      rETA1;
}
// * * * * * * * * * * * * * * * * * * * * * * * * * * * * * * * * * * * * * //

rETA1_table
60
(

60
(
5(1.303569246 -4.094504618 0.6546289991 -2.161410049 19.79149218)
5(-2.51077061 -0.4086834322 -0.8655840555 -1.707844664 -24.55220475)
5(113.1759976 -0.06785863643 -0.6494300485 -1.279127086 -0.01719950056)
5(233.5442658 0.1147362897 -0.4716011117 -0.3667402141 0.224789451)
5(138.36078 0.07455894062 -0.574886366 -0.1862244897 -1.376429393)
5(64.09251308 0.01896021488 -0.2710706595 0.06599325594 -0.00738332063)
5(0.1608673879 0.01182072108 0.1971944463 0.1216960343 1.268774573)
5(-0.07675559054 0.05963310349 0.4475859833 0.2768788901 0.0713855349)
5(39.29899692 0.1297389744 1.231547264 0.3168217954 0.5058179817)
5(37.2380341 2.686855973 1.796787611 0.5506521105 0.8818268851)
5(28.61574417 3.879114564 1.492786888 1.049915516 1.165702761)
5(18.15786623 0.3949633192 0.8235584594 0.7820225171 2.024738224)
5(0.04723043677 0.5084434298 0.738968242 1.375186331 2.350361703)
5(0.1749201597 0.6767215841 0.997538118 1.155364135 2.533696261)
5(0.04121823349 0.6655645599 1.012342535 1.771049247 2.802999354)
5(1.491425305 3.295893515 2.499651867 3.103174174 3.947226133)
5(1.302160828 2.736569213 3.054798743 3.069382176 4.86563359)
5(0.6018373958 2.282548123 2.218006116 3.626801552 6.053929168)
5(0.2500331375 2.011945739 2.665158814 4.335600814 7.649661752)
5(0.4971513765 2.471150109 3.721078723 6.422192557 9.044346979)
5(0.6250046605 2.728656058 4.193358413 7.618343099 11.09185651)
5(0.9431920415 3.532607863 5.700205704 7.227722066 11.74861665)
5(1.598292905 4.881869774 7.284204179 11.21945815 17.26775264)
5(2.10069545 7.066595948 9.774612826 14.08216838 20.59879693)
5(3.12657539 8.81785816 13.20421108 18.825167 26.41795096)
5(4.371028288 10.70853138 18.41623434 25.29927885 31.75090354)
5(6.166664604 13.37008477 21.13616177 31.48976379 37.87638182)
5(7.976292212 17.41799908 27.4129046 37.88287037 43.37043577)
5(11.39702659 22.19000215 31.81274232 42.74774149 49.70763556)
5(14.7320152 28.24290613 37.0561737 45.29187637 53.44157443)
5(19.53069448 35.00316107 45.91022471 53.92998472 60.37552649)
5(24.47712016 40.56237049 50.30877102 54.37569264 52.5402474)
5(29.73179026 48.17940412 58.78577803 59.39657399 67.14030489)
5(36.71971029 57.60230402 70.16149271 62.95962158 56.2737272)
5(44.99984505 64.92790951 75.30831047 66.5394341 58.19372696)
5(53.44877571 78.30817598 94.61197496 71.99099912 57.14530126)
5(63.49861079 79.80790364 81.94365183 65.78573286 59.47210567)
5(72.96281277 92.83159527 85.482767 71.89037142 34.39513605)
5(85.0044417 98.64417869 94.32182908 67.00930955 54.6952905)
5(102.1586259 107.2779088 106.7597242 75.39035581 -9.366623657)
5(112.4766554 105.9369033 94.65673486 53.68854504 -20.43709791)
5(116.2824048 107.5756581 90.97311204 -140.1706376 0.1034563326)
5(123.226208 100.0501374 81.80358046 0.06518174012 0.1152035359)
5(129.96439 105.3663635 111.8949311 0.09435646285 -19.84728628)
5(136.6196575 101.191532 77.68705768 0.08987547388 -2.113824212)
5(127.6577974 98.56617064 64.78654556 0.08019861075 0.1667035797)
5(121.9727065 63.5439278 -166.6805853 -1.752640626 0.180319912)
5(81.17159473 41.93425609 -27.21349372 0.02274581083 0.1716888469)
5(96.75125496 41.31674431 -1.514018047 0.01967965152 0.08647890258)
5(79.61306668 -8.893780903 -0.0110086616 0.04777054228 0.08181976842)
5(-1.909013609 -0.01936128471 0.09618526368 0.05319454827 -0.06841490993)
5(-207.2288935 0.01880620508 0.04575536812 0.1105756604 0.07900670264)
5(-36.9690151 -0.2693446603 0.08136905164 0.1286923332 0.0591283773)
5(0.03352813302 -0.08263512105 -0.03512395776 -0.009823907562 -0.07723863498)
5(-0.0146904776 -0.1332614863 0.04154173292 0.07177214909 0.04777380686)
5(-47.74218834 -0.006205565431 0.06139936364 0.02134396275 0.07261528092)
5(-103.5018237 0.008613640449 0.03226804787 0.05774746653 0.1158448148)
5(18.00698871 5.299040686 0.01366992502 0.2534179639 0.7265228165)
5(226.1616139 117.1137933 46.93850639 -0.07946833486 -4.366380468)
5(-0.4905276823 -0.7978995819 -1.0265895 -1.137632013 -1.164176243)
)


60
(
5(5.280392767 2.521050027 20.22154646 19.97443918 113.1783558)
5(2.052309838 -0.1981348996 5.095047363 8.554633348 28.65945231)
5(-0.02708905608 4.027787734 4.271183814 8.350518205 5.239075433)
5(-0.2007926686 7.065504971 8.79405105 12.48106252 25.93717223)
5(2.074536381 9.866893999 14.03962899 22.49549339 34.76477812)
5(5.330250819 13.29183237 18.54569745 31.84158722 50.28832014)
5(8.03693396 17.38727327 26.21126963 40.33501784 69.36993392)
5(9.759479752 22.11391863 34.54542541 50.51379736 78.65661535)
5(12.28844462 27.39701459 41.50994174 60.55945156 93.08740159)
5(14.76887818 33.18482795 50.10091571 70.48605183 108.4117307)
5(18.17018174 39.47034115 59.03116797 81.74510648 124.0620267)
5(22.15887727 46.51605512 68.29617532 93.9621138 140.4901839)
5(26.53736822 54.27425853 78.83106588 107.7996413 160.0408532)
5(31.60658963 62.96027415 90.58378539 121.402946 179.1639816)
5(36.65648906 72.37685158 103.0288893 138.1203199 200.7301047)
5(42.67181164 83.31811702 117.7686788 156.6313755 225.711979)
5(49.97501872 96.1125015 134.8218426 178.3658397 255.647166)
5(58.5298929 111.4341114 155.3968496 204.7476739 289.7033087)
5(68.87575224 129.9658546 180.0183121 235.345633 329.7597108)
5(81.77133 152.7706405 210.3973478 273.474259 376.7419804)
5(97.462904 179.341076 245.8506721 316.9378566 432.3709895)
5(116.9672155 211.797126 289.3728364 366.0141915 494.7320587)
5(140.906411 250.7942095 340.6643785 426.9796655 569.3358383)
5(169.7990394 297.0303628 401.3397686 495.1612025 651.1628588)
5(205.6559397 350.9743171 471.4483451 572.4709037 742.4226165)
5(248.090909 413.2714433 551.9077664 658.998026 841.3614334)
5(299.2097434 485.1700126 643.068559 753.6786463 947.237813)
5(359.4975025 566.95294 743.9065048 856.3275886 1057.682666)
5(429.8049868 658.4793046 856.3793477 966.1219123 1169.518618)
5(511.5709265 759.8361288 978.7627696 1084.341219 1284.909385)
5(605.7605174 871.8292634 1107.714559 1201.513019 1395.43818)
5(714.3823605 997.5257805 1249.956837 1331.330776 1517.614315)
5(839.0210529 1132.423122 1394.84295 1456.719413 1603.848998)
5(978.5568399 1277.344423 1542.709117 1583.296053 1712.14057)
5(1135.3888 1436.173549 1700.121357 1703.695175 1785.45455)
5(1309.884206 1595.93574 1839.400203 1813.699442 1841.337422)
5(1504.261648 1782.891922 2022.035566 1925.205728 1874.20029)
5(1711.655139 1950.594609 2164.806532 1997.890483 1944.338372)
5(1931.10762 2128.524346 2281.104914 2065.910963 1881.05837)
5(2146.390581 2287.921739 2367.92011 2093.631476 1984.740311)
5(2370.34895 2445.177003 2459.082727 2108.791572 1856.554696)
5(2579.59814 2563.608775 2502.592151 2144.788122 1692.275297)
5(2759.354822 2658.957947 2520.718122 2173.654856 1497.07534)
5(2897.520398 2657.275295 2417.591366 2007.618283 1297.285109)
5(2972.146648 2634.852269 2366.213141 1780.59341 1113.562174)
5(2983.882945 2545.046439 2271.125852 1536.940023 941.3940814)
5(2901.623218 2448.987299 2217.208882 1296.725002 780.2675797)
5(2749.745567 2350.326057 1959.087416 1076.497308 632.0782779)
5(2552.226992 2106.852645 1636.700225 878.3797321 520.598603)
5(2264.746076 1974.095043 1326.774855 714.9379297 423.3922717)
5(2001.757289 1587.172682 1053.669449 574.6687917 337.7442684)
5(1751.509275 1227.657032 817.2384526 463.2090358 288.2571809)
5(1442.719789 944.0189253 643.5116058 368.1914159 209.3461019)
5(1098.549735 690.0123518 503.3477669 293.7334994 193.9626081)
5(755.7341353 526.468529 383.300927 229.7265363 154.9609945)
5(515.6188174 368.5222181 277.991614 168.4413478 120.7507097)
5(293.5833838 232.0444091 184.3352915 108.0618054 81.93270057)
5(113.1282649 96.93477166 87.54766942 46.46230187 49.07707354)
5(10.84243228 -34.44858301 -48.48059897 38.1767325 7.169752963)
5(-169.778531 -188.6073246 106.8294539 -221.9493637 -205.316757)
)


60
(
5(11.26239455 12.62073052 53.99580371 76.54852248 270.222789)
5(8.104983073 14.47171884 33.07523241 57.13785728 133.193041)
5(8.423227711 19.49558135 30.28277619 57.14676828 100.1970575)
5(10.48545329 25.69273527 38.0513532 68.60698031 109.741625)
5(14.07857195 33.17739413 51.81073591 86.45736943 136.3742006)
5(19.16432521 42.28789983 69.2272542 107.6139934 172.6352074)
5(25.01125369 52.63027518 87.22448359 129.4369685 205.8852682)
5(31.12603371 63.84870351 104.3585391 150.9535325 234.8248029)
5(37.55555857 76.1185889 121.363473 172.6937795 261.8116128)
5(45.04501736 89.49882023 139.5458998 195.6769095 290.7666233)
5(53.57906197 104.1834576 159.9314309 220.9900852 324.0187069)
5(63.45292672 120.3145081 182.7042599 248.7151954 360.7991858)
5(74.17830254 138.0286103 207.7180054 278.94675 400.4544743)
5(86.07565969 157.7423151 234.9721301 312.0324813 442.7754334)
5(99.59607689 179.7205899 265.0730226 348.7299778 489.7613743)
5(114.9866263 204.5245683 298.8910163 389.7942629 541.6028315)
5(132.2893328 232.6736151 337.427446 436.447857 600.5908368)
5(152.3428589 264.8424763 381.6252626 489.8297028 667.2742594)
5(175.7212163 301.8117261 432.5030591 550.4189439 742.1884342)
5(203.0270942 344.1454105 490.6330835 618.8184151 825.7415588)
5(234.605495 392.1844413 556.8396985 695.7294116 918.48029)
5(271.4656361 446.9194781 631.5205043 780.0674631 1020.133436)
5(313.6443917 508.1375842 715.0326532 873.1659079 1128.991505)
5(362.3904036 576.1467506 807.6417926 974.1862698 1244.716897)
5(417.546077 650.9225085 909.5626585 1081.545063 1367.23018)
5(479.5801125 732.7689131 1018.921172 1196.156055 1494.425573)
5(549.5116562 821.3515438 1136.750513 1316.850469 1624.681375)
5(626.7966048 916.2118313 1263.182183 1444.135952 1758.741353)
5(712.5814227 1018.824748 1396.817764 1575.621503 1889.922096)
5(807.6165088 1128.515116 1537.996893 1712.644459 2026.861964)
5(911.209555 1247.204301 1688.362244 1855.250802 2158.136926)
5(1026.041151 1375.887571 1847.080922 2001.799385 2292.997035)
5(1153.49339 1514.644436 2014.841088 2158.229456 2425.216499)
5(1293.197186 1668.326405 2195.504925 2321.257917 2556.022255)
5(1450.3064 1836.811103 2385.950706 2491.761231 2678.388528)
5(1620.090449 2023.538997 2588.563625 2668.702785 2798.372856)
5(1813.14877 2228.973463 2803.794193 2850.531102 2903.149616)
5(2020.834845 2451.018197 3027.716036 3027.651925 2997.965495)
5(2247.812624 2694.992118 3255.30913 3196.812611 3077.673097)
5(2492.671868 2940.290129 3473.359685 3353.332018 3121.576369)
5(2741.35462 3194.634355 3677.987828 3485.4618 3117.080101)
5(2989.893182 3422.045313 3841.324375 3575.881005 3042.889799)
5(3215.04293 3619.031226 3956.612582 3597.642608 2894.552233)
5(3400.403106 3761.963381 4011.863256 3522.688624 2678.131266)
5(3530.015104 3808.230721 3989.912235 3349.934483 2442.08372)
5(3566.603722 3764.015849 3877.242844 3090.918757 2175.93278)
5(3482.844602 3635.334492 3664.580514 2780.237624 1904.232217)
5(3293.487553 3426.399479 3341.323894 2450.378204 1648.019247)
5(2996.297939 3118.778002 2947.43915 2117.029604 1409.275792)
5(2659.313238 2759.550187 2539.746586 1799.577813 1194.336048)
5(2275.101521 2359.547629 2136.694243 1513.398892 1017.07559)
5(1886.865041 1949.050269 1769.347002 1263.072252 855.5002525)
5(1517.782713 1575.309941 1447.085746 1041.837493 730.2162319)
5(1182.301558 1252.779018 1164.523103 861.1259785 575.8940375)
5(907.1263968 957.3914949 920.4299356 706.2408892 508.7898465)
5(651.9163807 712.213758 710.2929128 562.3069316 417.0233346)
5(433.9268102 496.6275314 521.7997887 434.9608071 334.7571378)
5(242.8309964 305.8188653 358.0735359 311.3658065 249.0880469)
5(59.52291195 139.7144326 222.9337164 200.8191075 161.2718139)
5(-256.6778466 -215.4621625 47.57071684 -20.86943272 -17.75351384)
)


60
(
5(18.56813724 24.68914806 101.0123707 163.6484318 484.0346304)
5(15.50152388 29.23770284 72.98609068 130.4826993 290.716073)
5(17.42644351 39.46237907 70.92813248 130.0161966 235.8162745)
5(21.66904229 51.04241357 84.87035069 147.9888347 243.7830348)
5(28.52631883 64.19785086 107.7553708 175.5107693 279.705887)
5(37.83261113 79.73230777 135.8129092 208.3687943 329.8368308)
5(48.2853096 97.09536479 164.8452335 242.3856496 377.7100823)
5(59.09587072 115.4994998 192.4089303 275.1830224 419.1282694)
5(70.44418414 135.0089354 219.2538488 307.77978 457.9825537)
5(83.22917213 155.9168965 247.4870671 341.936942 498.8797204)
5(97.58387907 178.5338428 278.3121019 378.7490972 544.5115153)
5(113.4158942 202.9149692 312.2782278 418.5132846 594.174922)
5(130.8034704 229.3540206 349.2263672 461.5882488 648.6991573)
5(149.5554876 258.2024315 388.9957592 508.7170419 706.841711)
5(170.6064995 289.9463088 432.4192983 560.3195445 769.718804)
5(194.023502 325.2919709 480.879765 617.6947884 840.0265173)
5(220.3738718 365.0578056 535.3867359 682.1406208 918.9573551)
5(250.1268042 409.813481 596.9626318 754.3885976 1007.643233)
5(284.5040317 460.176558 666.3470656 836.1172935 1106.688522)
5(322.9063645 516.9075322 744.357954 926.3629773 1215.364814)
5(367.2829514 579.6641509 831.3924424 1026.730413 1335.18553)
5(417.7245352 649.5411993 928.3924929 1135.578871 1464.052228)
5(473.8953406 725.7278425 1033.306123 1251.467618 1600.421906)
5(535.1955618 807.8334594 1146.413195 1374.864054 1742.275311)
5(604.408258 894.8338952 1267.176045 1503.829813 1889.664562)
5(678.1459023 986.0076799 1395.025246 1636.754094 2041.62002)
5(758.2399462 1082.186787 1528.126849 1774.93051 2193.628401)
5(843.3462479 1179.318155 1664.861182 1914.064228 2348.424025)
5(932.4088695 1279.738936 1806.728103 2058.686846 2498.834879)
5(1026.269057 1382.91446 1950.834827 2202.191456 2652.285189)
5(1123.909009 1487.763257 2100.528223 2353.35376 2804.324864)
5(1226.627864 1597.958205 2255.692061 2508.411395 2957.49673)
5(1333.668463 1715.818818 2418.406866 2674.083254 3121.190186)
5(1444.860055 1836.785287 2596.001651 2853.193213 3286.631279)
5(1563.517944 1974.733668 2787.172642 3048.455165 3456.622017)
5(1696.315595 2130.251716 2994.804475 3262.345157 3631.026278)
5(1832.042533 2305.169329 3224.556105 3494.82462 3812.086107)
5(1980.174224 2502.245134 3479.172543 3747.305003 3988.453194)
5(2140.311054 2729.535694 3760.350768 4013.222017 4180.83343)
5(2311.735873 2977.711747 4050.939463 4292.164805 4351.317038)
5(2495.516343 3242.190914 4344.112142 4568.976254 4482.92521)
5(2658.714091 3494.75787 4621.428739 4814.440407 4529.411025)
5(2811.812807 3731.913129 4852.763874 4999.133082 4463.113819)
5(2929.156085 3918.031648 5025.596027 5063.327556 4284.817245)
5(2987.412681 4024.324904 5118.34982 4974.004673 4008.990476)
5(2976.786624 4016.531424 5077.345484 4733.075285 3677.253815)
5(2850.825642 3888.202145 4880.808548 4360.991014 3290.09939)
5(2634.182986 3647.412483 4523.918717 3908.187763 2869.934917)
5(2301.415499 3311.272481 4029.833262 3427.454005 2490.864489)
5(1923.420147 2874.134838 3477.273565 2941.065185 2102.219822)
5(1514.95811 2395.91663 2920.962558 2477.136453 1760.407052)
5(1101.895097 1913.766736 2397.791936 2071.421931 1518.025598)
5(728.9405441 1489.810856 1934.835808 1709.848266 1256.314642)
5(449.2427302 1119.766707 1530.419365 1389.894151 1023.331846)
5(229.2839981 808.3093066 1172.570167 1106.150188 840.3296891)
5(89.36320887 536.8772285 863.8213015 840.2527473 683.4759545)
5(-79.3799231 293.8728681 587.3237305 620.6069649 518.4814975)
5(-256.2577022 67.81357208 332.5648625 398.6191279 356.2043592)
5(-517.4320022 -216.2694507 70.22276525 188.3054192 201.1107479)
5(-859.7825248 -1309.632498 -479.2850905 251.7665578 145.7806648)
)


60
(
5(27.91652485 40.87021962 163.9021633 286.3506074 757.0962591)
5(25.58564383 49.41594048 128.6131048 234.4906672 503.1145937)
5(30.17510607 66.87462157 128.1832647 231.7887378 419.6954761)
5(37.66752948 85.41657659 149.0760205 255.5918702 420.3408049)
5(48.50716922 105.3079648 182.056847 292.4282272 461.9331762)
5(63.03104865 128.2891689 221.4132983 335.7539115 521.9247516)
5(79.18074588 153.3277608 261.5425787 380.5204659 581.5028099)
5(95.6760688 179.3288761 299.708117 423.8713449 632.721878)
5(112.856184 206.5709839 336.2174381 466.3153563 680.3063174)
5(131.5260897 235.0090237 373.5330395 509.4759029 728.9007125)
5(152.1546874 265.1771692 413.9247207 555.6667143 783.6907091)
5(174.7466059 297.3896973 457.5935955 605.4273535 843.1100215)
5(198.9265316 331.6707534 504.5165621 658.8555555 907.3983084)
5(225.0937426 368.6723651 554.768044 716.3344743 976.466538)
5(253.2105139 409.0771033 609.001705 779.5229896 1051.629257)
5(284.3521506 453.4248013 668.5475991 849.2235187 1135.09955)
5(319.5445905 502.4514189 734.8081754 926.9871738 1228.583167)
5(358.2450246 556.9730875 809.8839052 1013.577698 1332.57894)
5(402.3108057 617.942394 892.9876693 1109.887104 1449.818886)
5(451.6504075 685.6274006 985.5236024 1217.457007 1577.700474)
5(507.0299705 760.0264748 1087.378793 1333.931393 1717.199843)
5(568.965334 840.7177702 1199.143833 1460.170943 1866.290633)
5(636.872228 927.5128842 1318.310259 1592.067643 2021.475505)
5(710.6638926 1018.518254 1445.154649 1728.89868 2183.250609)
5(790.7417746 1112.844574 1575.895965 1869.575871 2346.669765)
5(874.5980157 1207.549606 1709.654629 2011.96056 2512.900628)
5(961.9670068 1302.498812 1844.029271 2153.827191 2678.360263)
5(1052.130543 1395.072106 1978.942921 2293.131342 2838.623413)
5(1143.697538 1482.759229 2110.197208 2431.394351 3000.996854)
5(1231.617526 1565.328676 2238.095928 2565.665826 3153.677768)
5(1317.884751 1642.17691 2363.599107 2698.792822 3310.272481)
5(1400.715578 1713.012791 2491.498809 2834.686925 3462.196135)
5(1477.599693 1783.528534 2611.060153 2974.515219 3626.722539)
5(1551.332371 1846.351502 2741.938288 3132.778542 3795.353194)
5(1615.265896 1911.984481 2880.023167 3304.741776 3984.445076)
5(1674.442841 1980.918071 3035.797426 3497.700375 4179.086523)
5(1725.895192 2065.995696 3219.119898 3723.370656 4396.279104)
5(1769.331627 2164.568291 3422.303073 3981.889318 4645.502938)
5(1802.900032 2282.903576 3662.999655 4284.63205 4912.664897)
5(1829.045752 2421.593985 3933.435498 4622.76553 5218.722263)
5(1833.852963 2571.585798 4220.788314 4999.66173 5491.638005)
5(1827.045347 2727.093475 4527.283039 5381.231566 5692.673489)
5(1784.133874 2865.712159 4802.007041 5725.047839 5792.998199)
5(1718.086747 2981.632119 5049.203668 5974.18108 5740.362113)
5(1615.833888 3022.553354 5205.189546 6047.496973 5546.395412)
5(1475.988767 2984.960697 5259.705813 5919.906269 5213.120727)
5(1273.911323 2855.713864 5121.11882 5594.714023 4768.629371)
5(1025.270351 2604.050467 4775.636203 5083.666956 4251.678663)
5(747.9692753 2241.077432 4250.262737 4483.738631 3700.672529)
5(364.3702083 1789.316735 3594.945347 3849.595871 3160.507254)
5(-3.183603574 1312.117761 2917.448639 3214.246682 2661.925551)
5(-393.9291103 811.2398734 2281.324801 2629.776621 2226.737207)
5(-769.4310474 411.5918994 1731.342117 2113.213337 1770.240817)
5(-1055.648641 101.6575206 1278.760501 1672.762369 1496.740311)
5(-1193.055216 -116.2437943 901.1949705 1286.283385 1185.019403)
5(-1222.067766 -288.7111139 567.9135435 932.7519882 891.1192443)
5(-1221.873893 -446.5002454 256.9691252 598.0033284 632.2491058)
5(-1284.808512 -645.3112681 -44.33754126 281.8436784 373.6105519)
5(-1569.60619 -1012.492404 -474.9976343 -74.44606155 109.7087972)
5(-1812.719081 -1379.077522 -1075.894921 -660.140647 -414.6769913)
)


60
(
5(39.87138986 62.72567448 244.9610931 449.9173013 1091.739841)
5(39.08532964 76.45769517 201.832438 372.2418736 768.2438528)
5(46.90160907 103.153092 203.6922218 364.3987551 648.5693668)
5(59.00726945 129.9769963 232.3064537 392.4248187 642.851634)
5(75.32670933 157.7241665 275.8042274 437.4497535 684.1332635)
5(96.15628761 189.1152073 326.6637782 490.4933617 748.949106)
5(119.4675906 222.8532426 377.8953903 545.0697982 817.3564174)
5(142.5487169 257.4316116 426.3624403 597.2799911 874.0514414)
5(166.6979224 292.9774989 472.2881819 647.8297125 926.7277709)
5(192.2428778 329.8171577 518.6613332 698.9716372 980.7954796)
5(220.4072195 368.1655289 567.7034668 752.8304239 1040.838239)
5(250.047409 408.5476896 620.4212195 810.2897686 1106.385643)
5(282.3909424 451.2481009 676.219837 871.731734 1177.516354)
5(316.8264574 496.7233488 735.4935181 937.6143881 1253.872909)
5(353.9198034 545.668273 798.8304237 1009.357211 1337.63941)
5(394.1186581 599.0453923 868.3601143 1088.385927 1430.405095)
5(438.6709289 657.8928239 945.153362 1175.92653 1534.41947)
5(488.6026439 723.1047759 1030.346301 1274.22792 1650.760252)
5(544.1492112 795.3230071 1125.809363 1382.369072 1780.928896)
5(606.824065 875.2551878 1230.874366 1502.140347 1923.36035)
5(676.813841 963.0422916 1345.965145 1632.256823 2077.551622)
5(753.8886466 1057.725548 1470.906725 1771.057123 2241.58855)
5(839.9383874 1159.563425 1604.126356 1916.158514 2412.420561)
5(933.363832 1266.149147 1742.736045 2065.23635 2587.720014)
5(1033.345797 1375.642418 1884.900596 2215.139029 2764.353365)
5(1139.938785 1485.700754 2028.302612 2363.3235 2940.407466)
5(1249.958347 1593.657686 2168.013899 2507.136629 3110.08572)
5(1363.437586 1696.935347 2305.141114 2645.181811 3272.625033)
5(1476.795031 1794.820812 2430.519838 2770.485136 3429.01209)
5(1588.657707 1881.469495 2548.091187 2891.56467 3576.588192)
5(1694.615429 1955.661024 2653.646531 2997.365309 3720.068322)
5(1796.04857 2018.776398 2752.784574 3101.078864 3861.115322)
5(1884.678916 2066.099047 2841.213272 3199.512616 3999.011599)
5(1959.582992 2106.435182 2916.843672 3308.223085 4152.199684)
5(2021.22719 2131.531705 3005.338523 3426.681404 4315.537375)
5(2062.438007 2140.058203 3083.40682 3565.298042 4499.085251)
5(2075.118952 2159.476962 3184.506036 3740.953806 4708.341608)
5(2060.15759 2162.383722 3307.05347 3946.339142 4963.904675)
5(2007.147599 2161.972543 3446.885142 4201.721375 5269.679021)
5(1912.792137 2171.267105 3628.529483 4515.072597 5633.007361)
5(1774.39138 2165.725731 3821.91754 4900.943607 6028.076543)
5(1590.323217 2163.35936 4035.149309 5329.428593 6381.516787)
5(1366.526828 2131.986132 4271.251723 5770.373142 6641.822176)
5(1108.180836 2063.313476 4468.624875 6140.104431 6753.080057)
5(848.8592315 1979.571762 4620.72295 6369.145639 6693.947523)
5(551.1991294 1837.396208 4668.512116 6385.894497 6471.181005)
5(260.6354561 1605.073479 4561.613236 6158.597675 6055.501216)
5(-30.01737496 1350.637506 4257.205337 5696.444008 5492.290022)
5(-304.5934203 1001.254937 3730.13936 5041.365673 4835.839363)
5(-608.3021203 582.0539861 3023.802924 4262.591517 4149.494827)
5(-925.969637 116.5835256 2255.025557 3466.548634 3418.369003)
5(-1325.522255 -348.4150238 1526.306475 2713.320359 2818.23029)
5(-1735.411919 -824.7011548 906.2604072 2057.221015 2269.666593)
5(-2089.172817 -1163.795188 434.037509 1514.920223 1784.64902)
5(-2350.127521 -1365.316526 93.04347433 1060.323034 1356.951179)
5(-2428.842973 -1460.944004 -173.7149374 661.855462 931.0154598)
5(-2452.399559 -1498.681648 -420.8157932 283.1060833 608.1005543)
5(-2410.461163 -1610.206974 -694.9607034 -85.23600374 247.1767721)
5(-2742.869306 -2010.566631 -1251.659313 -582.8734119 -144.2159779)
5(-2885.933983 -2454.112263 -1997.365218 -1305.511214 -858.7004607)
)


60
(
5(55.08204353 91.5446384 347.2962364 658.9924069 1492.825688)
5(56.66148152 111.859519 295.0652376 547.7804122 1088.898673)
5(69.59261089 150.0083319 299.3749911 531.8737417 929.2287228)
5(87.01979932 186.8369846 336.551798 561.7174349 902.3823218)
5(110.2275787 223.7891773 391.3046388 612.66918 942.0252713)
5(138.5816328 265.0922622 453.9713365 674.038358 1009.161125)
5(170.2840524 308.7743633 517.055891 737.7982612 1081.781339)
5(201.8260456 353.2849828 576.1600426 798.524566 1143.229939)
5(233.9600133 398.8134499 632.2279541 856.3986939 1198.050375)
5(268.4395836 445.1355134 687.5361415 913.9152286 1255.418605)
5(305.1684709 493.319765 746.1293823 974.4756538 1317.176489)
5(344.2689495 543.3848194 807.5402879 1038.332866 1385.94859)
5(386.4871045 596.1272261 873.1511032 1106.207924 1460.303731)
5(431.3498764 651.8600314 941.6441665 1178.460561 1540.969468)
5(479.3822875 711.7710029 1014.869121 1257.269899 1629.161863)
5(531.5122567 776.8344506 1094.17388 1343.629757 1727.791906)
5(589.0199357 848.2774155 1182.268934 1439.901354 1838.358351)
5(653.0183745 927.2849785 1279.770976 1546.712389 1963.345908)
5(725.2982599 1015.240863 1388.575425 1666.180673 2101.567002)
5(805.5526685 1112.710481 1508.627471 1796.916083 2254.480623)
5(895.9168179 1220.427247 1640.852043 1939.897222 2418.48296)
5(997.7261845 1337.948442 1783.678805 2091.697956 2593.204749)
5(1110.256181 1464.908271 1936.999898 2251.030563 2772.411303)
5(1235.693814 1600.077975 2097.687276 2412.266275 2956.194859)
5(1370.783028 1741.968654 2262.849063 2573.558449 3137.232735)
5(1517.720004 1887.856457 2428.480099 2730.370267 3314.980812)
5(1674.598943 2035.085904 2591.644543 2879.135006 3484.278064)
5(1840.339273 2181.342353 2748.751358 3020.323842 3638.848503)
5(2006.933547 2321.565542 2897.67459 3142.802043 3779.345064)
5(2181.273627 2451.470682 3029.924192 3248.621007 3903.841592)
5(2353.969658 2576.474357 3150.543266 3335.770603 4011.482139)
5(2524.088782 2687.879714 3250.391768 3407.220843 4113.16274)
5(2684.806788 2776.910353 3341.056367 3468.749842 4200.866402)
5(2830.645766 2856.814249 3405.040951 3517.147829 4290.932184)
5(2961.479831 2909.517726 3468.199246 3570.00512 4389.891246)
5(3064.242134 2950.731094 3519.865533 3631.900179 4507.404025)
5(3133.443295 2969.311115 3554.412915 3710.099418 4642.539852)
5(3149.834858 2952.978513 3616.285481 3827.047439 4835.324722)
5(3109.92633 2909.900005 3676.060513 3988.246706 5090.870878)
5(2993.655038 2853.158175 3739.933124 4218.541525 5424.694061)
5(2803.072779 2741.738233 3825.341419 4500.67721 5859.709836)
5(2546.874019 2606.361402 3892.91135 4876.177869 6274.899151)
5(2238.949529 2423.524225 3995.795717 5294.120499 6647.93566)
5(1875.896457 2180.140603 4057.810006 5691.586515 6909.941084)
5(1503.390505 1916.570701 4112.885392 5985.433999 7004.576672)
5(1133.858405 1637.458686 4096.846705 6090.417699 6903.003294)
5(814.8282438 1353.728291 3966.08071 5937.171878 6604.498845)
5(453.4678718 1063.103983 3641.914519 5536.99684 6096.996673)
5(174.2112283 739.5296677 3142.792088 4873.389868 5378.127185)
5(-43.38787447 385.0341577 2437.287063 4019.931143 4564.834877)
5(-344.3832736 -47.11343948 1620.729329 3070.577895 3727.162482)
5(-662.8224094 -562.9913065 775.3519491 2157.138582 2897.144592)
5(-1073.743887 -1117.091086 49.09097558 1346.042204 2198.26656)
5(-1457.727918 -1565.801296 -580.7071538 731.9113018 1581.960644)
5(-1877.171284 -1956.925734 -935.6433227 257.5661727 1074.114028)
5(-2266.15485 -2228.926737 -1179.60251 -109.0104207 648.553046)
5(-2503.001504 -2364.510392 -1375.152336 -432.6341074 217.0851539)
5(-2698.393851 -2512.978692 -1611.751292 -786.5345959 -198.6967583)
5(-3296.92593 -3007.937407 -2257.573839 -1390.675527 -762.4119743)
5(-3896.854222 -3370.856971 -2585.646843 -2320.815244 -1630.581157)
)


60
(
5(73.89847934 128.9812534 471.774111 916.2342216 1964.410827)
5(78.92089749 157.259221 409.6943879 763.2356994 1466.213515)
5(98.11766738 209.2099823 417.5696944 736.1209035 1261.972242)
5(122.3902873 257.9333079 464.5610011 766.779964 1213.47746)
5(153.5063401 305.3756939 531.5510659 823.7502951 1244.981201)
5(191.3733459 357.8260042 606.9705468 892.9033328 1311.192268)
5(232.3147908 413.3551978 682.879534 965.6035622 1385.568955)
5(273.4729402 469.3874599 754.4997879 1034.88775 1450.368627)
5(315.3595479 526.4135076 822.4308764 1101.095123 1506.876688)
5(359.8986499 584.5603086 888.8374523 1166.539633 1563.799226)
5(407.3127209 644.5049676 958.5418374 1234.937743 1627.724765)
5(457.9004375 706.79119 1031.717643 1306.172939 1698.350144)
5(511.1758907 772.0005066 1109.015296 1382.543219 1776.692657)
5(567.9586981 840.764105 1189.685796 1463.169087 1860.527165)
5(629.1782161 914.4340567 1276.221898 1551.332415 1953.679549)
5(695.0934627 994.352251 1369.339076 1647.462446 2057.701525)
5(769.1217081 1082.363873 1472.980779 1755.699893 2175.442831)
5(849.5325293 1179.702673 1588.493707 1875.370756 2309.274023)
5(941.8052616 1288.072892 1717.340528 2010.858889 2459.128421)
5(1044.076831 1409.591379 1860.914727 2159.933993 2624.464143)
5(1159.750549 1544.664744 2020.098893 2325.719329 2802.913276)
5(1290.752717 1694.906 2195.331556 2502.573773 2993.69184)
5(1436.809128 1858.852906 2384.690522 2689.98885 3192.820651)
5(1601.888229 2037.572051 2587.096918 2883.691617 3394.725142)
5(1782.603987 2227.784801 2800.734438 3081.174116 3596.658729)
5(1982.373372 2431.77908 3020.974006 3277.801903 3790.229021)
5(2197.383055 2641.166786 3246.529562 3467.747959 3975.746936)
5(2425.580251 2860.541405 3470.105807 3649.736088 4146.323716)
5(2672.992396 3082.03551 3691.66889 3819.871964 4297.320506)
5(2930.883088 3303.945151 3905.714372 3965.932879 4427.957314)
5(3195.095489 3525.383969 4115.460813 4103.008562 4533.165272)
5(3463.946134 3731.652498 4296.333235 4214.536145 4621.771915)
5(3730.599381 3934.666334 4474.0716 4306.157679 4692.830565)
5(3987.581046 4119.585952 4637.944915 4382.809368 4757.200075)
5(4223.801659 4289.685358 4771.064424 4457.939128 4811.337298)
5(4432.853279 4429.368891 4911.351701 4518.440015 4870.249134)
5(4593.072721 4538.687765 5014.325605 4593.802842 4955.178997)
5(4694.788484 4610.438191 5108.871185 4663.339535 5067.778388)
5(4722.996385 4612.903427 5194.576029 4799.874706 5263.106753)
5(4659.618361 4563.646056 5253.342433 4973.892263 5536.967766)
5(4494.183693 4430.34561 5314.379693 5181.709197 5910.20071)