/*--------------------------------*- C++ -*----------------------------------*\
| =========                 |                                                 |
| \\      /  F ield         | OpenFOAM: The Open Source CFD Toolbox           |
|  \\    /   O peration     | Version:  2.3.1                                 |
|   \\  /    A nd           | Web:      www.OpenFOAM.org                      |
|    \\/     M anipulation  |                                                 |
\*---------------------------------------------------------------------------*/
FoamFile
{
    version     2.0;
    format      ascii;
    class       dictionary;
    location    "constant";
    object      rH2O;
}
// * * * * * * * * * * * * * * * * * * * * * * * * * * * * * * * * * * * * * //

rH2O_table
60
(

60
(
5(1.625512637 0.88809947 4.504697162 3.569529951 9.663472499)
5(0.5998220953 0.1357483299 1.355011454 1.19674319 2.228731234)
5(0.2706997325 0.2394058065 0.4469346944 0.378828005 0.002371520946)
5(1.352901971 0.2723176524 0.4375123641 0.08890628307 0.63275272)
5(2.03769449 0.2381076612 0.4558005366 0.3325317276 0.3725409524)
5(2.901446678 0.2118016931 0.163986402 0.3751303414 0.2818468146)
5(0.2292799682 0.2035565178 0.2337155988 0.2650978853 0.7264910236)
5(0.1189665629 0.2289330427 0.4325012868 0.3798020152 0.2096912715)
5(4.453836218 0.285361862 0.4655353546 0.4731250211 0.4576675959)
5(7.495641814 0.4793697108 0.7189365079 0.5276681953 0.6342614795)
5(8.898473216 0.6382494889 0.8110592364 0.6860240634 0.7929330842)
5(3.133821281 0.527077294 0.7780794863 0.8077380444 0.8946272004)
5(0.3586714401 0.6548991879 0.8748802097 1.115788774 1.187682467)
5(0.5217476455 0.8190345852 1.108357483 1.190747159 1.364563311)
5(0.5466247913 0.9382582205 1.275371592 1.595921464 1.677031116)
5(1.037844739 1.63484509 1.813060694 2.134645497 2.176550433)
5(1.229769819 1.805903322 2.277578988 2.513317428 2.78685129)
5(1.178383998 1.971379448 2.42114297 3.081648823 3.465346461)
5(1.194772768 2.128779305 2.87982911 3.621355807 4.422942074)
5(1.494155051 2.500456223 3.553940711 4.624957093 5.098264621)
5(1.723883064 2.786695943 3.935556165 5.221329914 5.584249625)
5(2.014612369 3.154293139 4.70265594 5.076498969 5.710339235)
5(2.426623402 3.648654917 5.22699608 6.267960882 6.986843527)
5(2.684462583 4.291064731 5.781281539 6.880321674 7.510994789)
5(3.125822311 5.00263173 6.475215513 7.769254574 8.376484054)
5(3.458676424 5.876527367 7.379172368 8.728134455 8.726606479)
5(3.775005749 6.004416425 7.484023514 9.300860798 9.063488866)
5(4.015532735 5.713556702 8.075790956 9.660066827 9.182187356)
5(4.498692534 6.139934933 8.151389556 9.593469685 9.354710815)
5(4.795959071 6.599510256 8.294384728 9.153094361 9.004861221)
5(5.202822956 6.997278135 8.72555692 9.612293335 8.846062685)
5(5.491121975 7.131851556 8.480214013 8.950096062 7.33523908)
5(5.717267696 7.465337582 8.645284077 8.80713308 8.063122408)
5(6.112551248 7.859954191 8.954291751 8.51154222 6.718969912)
5(6.559332145 7.988108807 8.791073338 8.330946872 1.275192262)
5(7.019096293 8.67334303 9.788047432 8.309456784 -2.077531924)
5(7.553653881 8.519064722 8.751976355 7.746375006 5.727587986)
5(8.059391259 9.231050343 8.757353244 7.424571724 1.166082832)
5(8.790261675 9.589585908 8.502175331 6.862122326 0.6049044893)
5(9.939582055 10.02420808 10.03125584 6.919274572 -4.60642512)
5(10.63908529 9.538614748 10.21735708 -5.959079927 -10.37449972)
5(11.03838835 8.984824939 8.647485624 -105.3476662 0.02288667773)
5(11.18633772 8.793861945 6.916256081 0.01745115484 0.02407758726)
5(10.93341486 9.718347465 4.960491097 0.02116325832 -9.267658664)
5(10.28113221 10.00335014 -6.345729274 0.02141417566 -0.9402277612)
5(9.072973231 7.393285216 3.015160795 0.008788094991 0.02850383818)
5(8.477141205 -5.200916278 -93.47011345 -0.7797124169 0.03279921328)
5(-4.290853735 2.592502085 -12.84967809 -0.02042859226 0.02360067235)
5(5.354881086 3.068744598 -0.7113549306 -0.02470055716 -0.0206364782)
5(4.886292196 -5.117983296 -0.02849041235 -0.007020793094 -0.02152338389)
5(-30.08321445 -0.01628267679 0.02486633858 -0.01205712954 -0.1133869212)
5(-96.74688498 0.0004863766998 0.003031274867 0.0209203129 -0.02876745243)
5(-14.63286824 -0.1395439476 0.02823817765 0.04335553811 -0.01713151292)
5(0.01236135914 -0.05320090348 -0.04636839956 -0.0486074515 -0.1321173989)
5(-0.004995834308 -0.09400481493 0.01100305026 0.02945204343 -0.007332965325)
5(-25.4085388 -0.01216901829 0.04212804271 -0.03971008375 0.04842012881)
5(-83.06339371 0.001714817056 0.03424106235 0.04296773687 0.1082512736)
5(-95.18002392 -38.58510679 -0.020406378 0.04867862259 -0.001545321317)
5(-65.35714041 -54.15616439 -32.0514669 -0.1935215335 -1.783050025)
5(0.09238531451 0.1347377472 0.1848683093 0.2297677992 0.3075012245)
)


60
(
5(3.277323758 3.23699273 9.847681183 11.07668047 24.03199783)
5(2.13398721 2.777465116 5.521032903 7.159126386 11.45511407)
5(1.68068091 2.626986943 4.033432079 5.784876858 7.444452762)
5(1.587484256 2.687841805 3.835664574 5.667496596 6.841985494)
5(1.729791926 2.932967381 4.329326945 6.253042837 7.913072436)
5(2.009378232 3.324721084 5.086814059 7.195033046 9.653718173)
5(2.328311158 3.82988156 5.847190232 8.274842876 11.19324619)
5(2.674810623 4.455437574 6.686954123 9.511444276 12.60003109)
5(3.099335116 5.229064589 7.685323431 10.99239415 14.2414048)
5(3.666565122 6.207138081 9.004052758 12.88825098 16.47991072)
5(4.384495541 7.416439416 10.7019748 15.23723224 19.39843063)
5(5.293228507 8.883461023 12.81632623 18.06915855 22.98535147)
5(6.387987046 10.65505702 15.32498067 21.42288751 27.13098349)
5(7.69799824 12.75192446 18.26220073 25.39538652 31.94326746)
5(9.256237028 15.22404252 21.69223108 29.96594157 37.50238901)
5(11.11548279 18.12522026 25.72180481 35.23566198 43.88887725)
5(13.29685649 21.46969257 30.37983188 41.26196697 51.11337248)
5(15.82772542 25.30107497 35.65462494 47.95074362 59.02513484)
5(18.73805589 29.56719422 41.52040235 55.26023856 67.48981267)
5(21.998774 34.2828101 47.87224948 63.01006622 76.35395504)
5(25.6156839 39.36787484 54.63371012 70.92225217 85.03799415)
5(29.51043617 44.70358242 61.54727455 78.80575408 93.32819668)
5(33.59865223 50.1276942 68.42356677 86.18968216 100.9401664)
5(37.89513701 55.51828783 75.06338792 92.73592084 107.1445673)
5(42.14202188 60.58977658 81.00654548 98.29584414 111.872234)
5(46.30776732 65.19926025 86.26464727 102.5954874 114.7910885)
5(50.1814323 69.03991827 90.26922594 105.3045716 115.5290284)
5(53.5468153 72.24652788 92.86647624 106.128684 113.6333598)
5(56.40162998 74.52704031 94.10484472 105.0104215 110.5945713)
5(58.64438784 75.59688014 93.82310198 102.2827502 104.7727141)
5(60.16576543 75.60796568 92.15239115 97.99195906 98.10757474)
5(60.93179322 74.74207574 88.89126495 92.47301616 89.81872558)
5(60.95962924 72.95010221 85.01917501 86.10491523 80.97738754)
5(60.5469985 70.60033921 80.2743368 79.52000815 71.66794565)
5(59.54925379 68.42032668 75.88085667 72.96694196 63.85966068)
5(59.59372537 66.234974 71.48199538 67.03224612 55.29832829)
5(58.76700581 64.94084901 68.41957244 61.40686114 48.22674664)
5(60.62847819 65.52752431 67.44402221 58.28901601 43.18452529)
5(63.92192155 65.79604022 67.42996282 57.06819993 39.53517183)
5(67.70471111 69.37704977 67.48837844 55.64952255 37.02208451)
5(73.43992752 71.05250697 64.93043454 54.39721759 31.70839806)
5(76.22545966 77.93874734 66.94666017 54.56733776 28.75977832)
5(85.55290263 80.70802571 66.74781127 54.27228259 23.02514446)
5(90.1887325 74.29676417 64.44567022 45.15207538 19.50165331)
5(90.08158834 72.44268655 57.77075631 32.86407257 16.86494781)
5(80.2900294 65.90728102 52.72303985 23.27142916 17.66244862)
5(65.50105627 59.26666275 47.72426257 17.74557297 17.55063427)
5(52.79495483 52.50655481 38.34554923 16.15509555 15.16491653)
5(56.04634776 54.72038964 31.08141792 16.18109781 18.25396681)
5(45.24583736 54.88209462 28.6721468 20.18755533 18.0158367)
5(54.31001948 45.14916968 28.96105695 21.5868301 14.26295188)
5(48.37975112 40.93016174 27.43013811 23.70871823 19.10640056)
5(64.5799449 44.63445499 31.97432403 23.21385258 4.65544942)
5(68.46831341 39.40718676 35.45090428 24.95509395 18.87424274)
5(56.19979035 49.09651571 35.82130477 26.62644629 18.43582197)
5(56.52905005 46.86556951 34.46236357 26.39508481 20.48839455)
5(48.49950712 43.02161984 34.88675773 25.607227 16.21334087)
5(49.77754865 37.78779695 30.61545317 21.86508612 22.19643571)
5(13.37277512 23.92646723 32.70476143 31.1166088 13.97006475)
5(41.21837594 43.62913628 3.745380752 44.64020331 40.07287534)
)


60
(
5(5.318000394 6.307694671 17.1843854 22.54483828 45.53941425)
5(4.034411635 5.848853007 11.38745377 16.49640235 26.81745618)
5(3.515334826 5.77520497 9.388889395 14.38545949 20.38356389)
5(3.475853325 6.016862583 9.31513406 14.38994122 19.51498151)
5(3.802521998 6.59086632 10.32947088 15.65263196 21.47505362)
5(4.375267506 7.462271237 11.85184468 17.56966574 24.53877212)
5(5.057522469 8.557985621 13.50725088 19.7751069 27.37593452)
5(5.840804711 9.909393757 15.33099851 22.29868427 30.16268461)
5(6.799268052 11.56311726 17.50601004 25.32264189 33.44434094)
5(8.015312257 13.57878642 20.22714382 29.03652477 37.81131444)
5(9.521786362 16.01913291 23.62273564 33.55314729 43.2642824)
5(11.37144137 18.92350007 27.69602648 38.92196603 49.85399885)
5(13.58272437 22.37256399 32.49883698 45.23217887 57.57338365)
5(16.18673965 26.42550963 38.08618974 52.58517115 66.49787864)
5(19.27339415 31.15644256 44.60231465 61.07626441 76.78585612)
5(22.88601364 36.65173621 52.11910398 70.81545679 88.47043452)
5(27.11525052 42.94064809 60.75777218 81.83315194 101.5711205)
5(31.96376415 50.09946014 70.44622767 94.01779003 115.7254511)
5(37.49278691 58.09354677 81.20891274 107.2017175 130.8164101)
5(43.6844103 66.84749817 92.79260538 121.129877 146.3353748)
5(50.44489368 76.26485136 105.0467124 135.3635076 161.8605293)
5(57.88823447 86.16621717 117.5836705 149.3773675 176.5904118)
5(65.61046322 96.28337318 130.1048164 162.7489924 189.8784566)
5(73.61546629 106.2531579 142.0762585 174.7635415 201.1164234)
5(81.54074493 115.7140679 153.0015708 184.9427404 209.7790002)
5(89.31936144 124.3477649 162.3622213 192.9255996 214.8335026)
5(96.49213351 131.6945218 169.6085967 197.7975481 216.9393062)
5(102.5831153 137.570446 174.377511 199.5589404 214.4898829)
5(107.9342281 141.4526578 176.4110717 197.7222232 208.927901)
5(111.5672764 143.2121582 175.7656718 192.7657637 199.2630096)
5(113.9526053 142.972159 172.0802391 184.5353862 186.4639493)
5(114.4866576 140.5078977 165.5320562 173.6932787 171.2186266)
5(113.5645048 135.9245604 157.0684021 161.0534096 153.4448912)
5(111.4306735 130.2140217 147.0684704 146.5562911 135.2721303)
5(107.7670705 123.4762329 136.0229507 131.6433254 116.8165132)
5(101.7613586 116.5915842 125.5578321 117.5711647 101.7202267)
5(99.13557986 110.0914525 116.2636409 105.1959137 85.36621218)
5(97.22580793 105.5967678 108.5081484 95.47127418 74.80719807)
5(98.15174831 104.1519457 102.3315989 88.30745729 64.35459307)
5(100.0368035 104.1982783 99.18657381 83.19099596 55.9079792)
5(102.5386409 106.6085812 99.55275682 79.65816758 48.89938545)
5(115.3529882 112.6229957 98.90873006 76.21594819 43.15862619)
5(123.9776476 117.0804026 97.13170811 69.66727127 35.40897554)
5(135.1702467 118.2684428 92.03265336 60.16977187 23.97499049)
5(140.8066835 111.8151906 81.76770439 49.24554722 21.77591675)
5(143.5216946 105.8977168 71.97375939 37.05243717 15.95706752)
5(138.1392501 95.97518646 60.5517703 30.28712038 12.30661503)
5(128.1776022 83.65087362 48.48024841 27.3739881 15.45592687)
5(115.867777 70.30966967 42.35226645 27.39241172 20.40344888)
5(112.9466056 73.40921832 47.49242554 31.74049401 25.98877527)
5(117.0539008 77.96872452 56.49575941 39.14568925 34.54692299)
5(129.6296562 86.44596439 67.70394277 47.21693389 37.71536217)
5(146.0246468 102.8230752 79.58182717 51.89172809 45.35797683)
5(149.8938907 118.2425195 87.30845204 59.36637845 30.84971359)
5(170.3221803 122.0866275 91.80402094 66.23043024 49.69246653)
5(155.9459697 126.4615268 93.51366352 68.20073276 51.26142932)
5(151.0787096 123.2300817 90.16078729 70.78185377 56.135903)
5(137.0131082 115.1403413 91.47787458 70.50638506 58.92407179)
5(132.3094541 111.1644018 96.64701667 76.32934956 56.26372349)
5(130.2258043 122.7634445 98.78026998 110.7179221 95.67223463)
)


60
(
5(7.823038892 10.33090938 26.826178 38.72489709 75.02989184)
5(6.409339136 9.926159297 19.37132621 29.89631627 49.043659)
5(5.868966696 9.992353403 16.84656017 26.80715406 39.68327917)
5(5.923096101 10.46908464 16.96950634 26.83524005 38.14194125)
5(6.496783391 11.4464255 18.59211029 28.6977969 40.57171668)
5(7.44044136 12.88916199 20.9508846 31.54076191 44.57361084)
5(8.573467701 14.69208744 23.57852853 34.8328144 48.39385124)
5(9.886805729 16.87391743 26.49313838 38.60597871 52.31356395)
5(11.4703433 19.49372679 29.91610176 43.10789903 57.06233431)
5(13.44208282 22.64950365 34.11303124 48.58981023 63.32065222)
5(15.85100539 26.39280308 39.21199767 55.18062816 71.17470199)
5(18.73092272 30.81546199 45.28201549 63.00493511 80.72120042)
5(22.13507593 35.99146688 52.39309184 72.21982515 91.95537499)
5(26.12953778 42.03027375 60.6496584 82.94843865 104.9017695)
5(30.81717744 49.03743511 70.22601397 95.30149797 119.8745433)
5(36.27112141 57.1404992 81.27358299 109.4189482 136.7727506)
5(42.57492999 66.41802535 93.853915 125.3343811 155.558608)
5(49.82213187 76.90378341 107.95357 142.8494963 175.9800212)
5(58.0260792 88.60527592 123.5201191 161.8377298 197.4568934)
5(67.17259041 101.4108408 140.2868871 181.7892223 219.6648608)
5(77.27538778 115.1811023 158.0322712 202.2847455 241.7741717)
5(88.17437123 129.6808808 176.177936 222.5314711 262.870987)
5(99.64669069 144.4507551 194.2709708 241.9540774 282.0565088)
5(111.4781744 159.1222254 211.5683028 259.6637025 298.5899442)
5(123.4364663 173.223346 227.567683 274.8738216 312.1310245)
5(134.9012335 186.2295151 241.4312593 286.8366963 320.5296909)
5(145.6114933 197.4271418 252.5028329 294.9391169 324.0692626)
5(155.0852086 206.4508993 260.0392982 298.4486889 322.9470622)
5(163.014224 212.8325504 263.7174145 297.0909026 314.6718987)
5(168.7770786 216.0742264 263.2528881 290.8781654 303.082719)
5(172.2057561 215.936605 258.3908582 279.7873283 284.6005487)
5(173.2574279 212.5124976 249.2300685 264.3573755 263.4384806)
5(171.606731 205.8267107 236.8112487 245.4766079 237.8302742)
5(167.3681017 196.6522912 221.3504116 223.5135795 210.6712882)
5(161.313397 185.5528957 203.9167482 200.601836 181.0461785)
5(153.3970336 173.464344 185.5092786 178.2286722 154.7557205)
5(145.286345 160.8305693 167.9407122 157.0496677 130.4408497)
5(139.1350083 150.2116878 152.4510259 138.6842291 105.3385238)
5(134.5978143 142.0124887 140.9164303 124.0598463 90.55446916)
5(132.6118737 137.5657053 134.4084015 112.737756 70.18015825)
5(135.9986514 139.5032437 130.1908872 104.6021848 64.37107977)
5(143.6938694 145.0572685 127.8725279 98.59984856 55.75170657)
5(156.8821372 151.6865276 126.1868527 91.78516863 42.25615352)
5(171.9184176 156.8010122 122.4527744 80.87898517 29.5396551)
5(189.7156768 159.5042753 114.4308698 66.41640747 15.88028955)
5(202.8439109 156.5121087 99.37292713 49.35791535 12.83186364)
5(206.4161618 145.9760568 83.63517945 34.2169982 4.510987265)
5(207.5257276 135.2654923 64.3942824 26.7927208 -1.889775927)
5(183.8289967 126.4198997 56.70708331 27.0207692 11.25498535)
5(195.1622883 121.6276986 63.4007228 35.47131581 13.98980007)
5(195.6309921 124.0527371 79.1183699 47.76563986 22.9182347)
5(191.2066298 143.3864583 103.6809868 71.84658466 57.79791193)
5(221.3248146 175.4054387 128.1489616 92.21725735 64.55764358)
5(248.1161088 206.6898862 149.650249 108.2646198 67.48119261)
5(294.0516561 227.0361917 164.2300337 122.2231832 81.48675016)
5(287.7720401 243.8874653 177.2731677 124.1917387 99.5858991)
5(306.9070355 241.7816677 182.6272663 139.7507302 106.4695186)
5(306.0019052 245.2855726 184.2932462 142.1636964 113.6744059)
5(291.6710877 247.8343272 199.7233278 143.8424141 127.9854868)
5(272.6707502 683.4595298 216.0703872 -249.6080548 -392.4696687)
)


60
(
5(10.84080458 15.45127915 39.02403543 60.1800916 112.9303526)
5(9.335663399 15.16805629 29.72823963 47.82625586 78.64568496)
5(8.817353367 15.41562702 26.60570962 43.35533848 65.47148579)
5(8.995002743 16.14616839 26.89911744 43.14046932 62.52311619)
5(9.849719342 17.56708262 29.15306188 45.3792613 64.8671475)
5(11.23185716 19.651172 32.35295941 48.92693425 69.22489089)
5(12.88302374 22.21041111 35.946239 53.10403533 73.56841511)
5(14.79719815 25.27754286 39.93754607 57.96998726 78.26815945)
5(17.09012009 28.91369193 44.58135105 63.77005927 84.20561399)
5(19.87842216 33.20656762 50.20083309 70.84256206 92.13135883)
5(23.24236261 38.28126901 56.97801318 79.3762596 102.2345092)
5(27.21342239 44.19549826 64.99234447 89.56176019 114.5678657)
5(31.86355603 51.0822112 74.35965066 101.5220189 129.1378513)
5(37.25519773 59.09379818 85.1975403 115.4791753 146.0722438)
5(43.55883917 68.35241954 97.74907184 131.5740674 165.4780767)
5(50.85783288 79.01478059 112.1544037 149.9495588 187.3883687)
5(59.28226298 91.17450968 128.5955848 170.5449324 211.7076729)
5(68.87632802 104.9383453 147.0038614 193.2052227 237.9815199)
5(79.75814384 120.2785876 167.228381 217.8312053 265.7949816)
5(91.89508213 137.0683191 189.0913061 243.7575295 294.4818403)
5(105.235309 155.1256392 212.2165238 270.4223538 323.246108)
5(119.7494039 174.1716576 235.9676195 297.002137 350.9130848)
5(134.9228198 193.7343213 259.6658473 322.5628681 376.6490527)
5(150.7807928 213.356534 282.6353395 346.1360648 399.4806763)
5(166.7515714 232.3739957 304.0672722 366.906756 417.5902968)
5(182.2641261 249.948128 323.0096724 383.8352965 430.659302)
5(197.0009919 265.4836021 338.4590528 395.966045 438.037751)
5(210.1715148 278.2795538 349.5233351 402.478266 438.4030073)
5(221.6613321 287.6489488 355.7239775 402.9974563 431.3345395)
5(229.7610865 293.2305586 356.6202365 396.970184 417.0799799)
5(235.5891732 294.6668084 351.8447407 384.4534157 396.2091546)
5(238.093861 291.2704533 341.2156361 366.1871174 367.9550382)
5(236.5855505 283.5354143 325.7132933 342.4459454 337.1960107)
5(231.7457627 271.8292409 305.9952624 314.2074571 300.4708379)
5(223.4520754 256.7905684 282.2694061 283.0349588 261.6749262)
5(213.1603546 239.4870507 256.7244375 250.3370336 222.8590536)
5(201.522651 220.7479906 231.5157184 218.0963388 186.2734652)
5(188.8098939 203.2135145 207.9635155 189.2776797 154.0355113)
5(179.5150714 189.567512 187.9734075 164.7256164 123.731142)
5(174.0691884 180.0571603 171.98059 144.9337601 102.3746327)
5(175.8945013 176.6584464 161.8900389 130.7985913 83.5879714)
5(183.4198853 178.3227517 156.6158433 120.1310661 59.89518152)
5(197.2090504 184.6860847 153.9017597 110.8925962 52.20720207)
5(216.4513301 195.2657167 151.9962655 98.37877559 37.43035594)
5(238.7906001 204.2734042 149.5967464 82.4793112 23.84885371)
5(271.6200255 210.4232562 139.0717693 63.0608018 2.684587637)
5(288.2133877 213.6541907 122.0914553 41.96724156 -11.20264239)
5(302.6766492 208.9779091 103.4813253 24.27863322 -16.9827367)
5(304.3895047 200.9109378 90.42492698 23.5960546 -13.33579241)
5(298.2805572 190.5807123 90.44804917 30.11866541 4.974510587)
5(290.2237723 190.6578461 108.7636532 50.04144414 33.16979514)
5(286.7286739 207.3619582 142.3978722 80.472928 64.04529953)
5(306.4499966 246.3543752 185.3799431 118.7579008 57.91843737)
5(328.1118888 296.206602 235.0754788 159.4719114 122.6875103)
5(374.2907417 345.8757236 275.8689766 192.9443314 144.2791781)
5(419.9390893 390.6745797 303.1463961 219.7898421 156.0975772)
5(460.7729805 414.4591482 332.7857942 239.7018003 176.7783198)
5(486.4678982 434.5451827 340.6030462 257.2276588 192.4402898)
5(482.5092273 431.4104951 354.5305662 282.4277544 202.7115789)
5(442.3133243 423.8210644 402.6778069 335.543521 299.9575629)
)


60
(
5(14.40626396 21.79927255 53.97049454 87.32278222 159.5199442)
5(12.86505558 21.67109912 42.638015 70.56222634 115.6116075)
5(12.36807187 22.10917937 38.84256636 64.14863612 97.59435832)
5(12.71923879 23.12169163 39.25332607 63.30268706 92.67257684)
5(13.91939569 25.00751579 42.04549752 65.61207147 94.11940626)
5(15.78555524 27.74577143 46.01373615 69.5891559 98.1910377)
5(18.02552064 31.08732595 50.4887708 74.40152212 102.5706075)
5(20.58534176 35.06465394 55.48900774 80.0962908 107.6496161)
5(23.63765112 39.72258884 61.27677733 86.99938363 114.4597905)
5(27.29012712 45.1865298 68.25710458 95.4899961 123.8528985)
5(31.63682034 51.54412787 76.59904028 105.8106907 135.9744898)
5(36.71551167 58.93991293 86.47236407 118.1722387 150.9573935)
5(42.62189493 67.49975371 97.97999125 132.7615377 168.6790556)
5(49.47586919 77.41485726 111.3361675 149.8054052 189.4028456)
5(57.37927662 88.86700512 126.7773642 169.4828385 213.0837131)
5(66.49710156 102.0161535 144.5213683 191.9085096 239.9288138)
5(76.99615854 117.0256469 164.675034 217.0180326 269.4624516)
5(88.9888564 133.9448779 187.1992788 244.7492615 301.5097191)
5(102.5450761 152.8191296 212.0218934 274.7212545 335.5551857)
5(117.6059441 173.5326432 238.8181623 306.4267766 370.7104875)
5(134.3080698 195.8681337 267.1654195 339.1469464 406.1799396)
5(152.2299502 219.4694305 296.4619114 371.9623537 440.5054718)
5(171.3841235 243.8683236 325.9626156 403.8653579 472.9220022)
5(191.2290906 268.4518493 354.7981462 433.8521224 502.0960217)
5(211.479717 292.4918802 381.9727271 460.7573618 527.0004616)
5(231.3028446 315.2201278 406.375718 483.3301925 545.1747903)
5(250.411823 335.6179773 426.8445208 500.4695225 556.6437713)
5(267.7375108 353.0283568 442.6255468 511.0990767 560.1607143)
5(283.1640691 366.5189352 452.6420457 514.5715674 555.2767968)
5(295.2335168 375.5049122 456.2744052 510.4157511 541.649015)
5(304.1296065 379.215986 453.1379712 498.3806908 519.359336)
5(308.7045894 377.5539849 443.2313935 478.2711873 488.2865344)
5(309.1217931 370.5895404 426.6605134 451.0095859 450.2343585)
5(305.1307121 357.9630115 403.3940829 417.5373917 409.7944689)
5(297.6510761 340.4183019 374.7879433 379.1353994 359.9040071)
5(286.0393543 319.2390262 342.9191031 337.9030759 308.9689629)
5(270.7257179 296.2676636 309.9897565 296.6360294 260.2915601)
5(256.5288328 273.8599436 277.7402379 256.8436039 215.1296307)
5(242.7783965 252.8045899 248.2354874 221.5203771 172.2484561)
5(234.8313522 235.5087785 224.3756159 192.4439541 138.9413726)
5(232.4775585 226.1287833 206.8255432 169.9525684 110.0508938)
5(237.056987 224.3726273 196.2296492 152.4875606 86.06753808)
5(254.1102813 230.9184482 191.0029777 138.6026781 66.07068886)
5(277.9683887 246.745567 192.6506205 124.9931274 46.09869924)
5(308.9330893 264.831849 194.9171843 108.7312524 22.36792826)
5(348.7742681 283.5720345 191.2892933 89.03913821 2.864902004)
5(383.9112302 299.4072935 178.3926465 67.86921063 -23.46204681)
5(410.0662409 307.0929737 161.4344255 47.61950498 -39.59811742)
5(421.2399651 303.3608118 148.2933806 36.51408757 -35.39148174)
5(423.8984745 288.4836407 142.0222898 41.50113102 -12.88374264)
5(416.4392814 279.4994139 154.411625 63.84169722 -1.525448946)
5(395.9879355 275.0273863 190.0633578 103.608811 55.28742118)
5(396.5644032 308.2960755 241.9119142 163.3807276 105.409718)
5(404.6465088 357.1630496 316.0835244 217.4263331 158.0036207)
5(426.9792603 420.6455819 392.569852 287.5966293 202.6657727)
5(472.1185394 500.1262856 466.0628887 343.2969443 201.5447956)
5(531.1239695 558.3636343 511.4210981 388.8396327 284.7681876)
5(556.4601518 614.925164 544.7295818 419.9236569 307.9763636)
5(609.277128 633.4100991 566.1101231 463.5940861 339.3082426)
5(535.0408865 602.7463243 641.4717568 524.2614261 466.3325806)
)


60
(
5(18.55962071 29.44799135 71.85623963 120.4292214 214.8670109)
5(17.0345149 29.49952194 58.18022541 98.37563782 159.9866328)
5(16.62980443 30.18407206 53.59305655 89.41674731 136.2288268)
5(17.15142751 31.46657857 54.03425972 87.44734343 128.0966865)
5(18.74441743 33.82076267 57.29517522 89.38077333 127.989118)
5(21.13933204 37.23346969 61.90502541 93.42875254 131.1701788)
5(24.00874446 41.36970743 67.15551018 98.57605918 135.1362049)
5(27.27724582 46.25450915 73.05730925 104.876257 140.2252285)
5(31.12660189 51.9365685 79.89222014 112.643859 147.635719)
5(35.68586729 58.52890031 88.11912017 122.3507888 158.2222444)
5(41.04797857 66.16076131 97.9434735 134.2603624 172.1506511)
5(47.252547 74.99449872 109.5716276 148.633915 189.5119453)
5(54.45347942 85.19327451 123.1404071 165.6584852 210.280396)
5(62.73869454 96.99528091 138.9138622 185.6109624 234.4640498)
5(72.28539086 110.5767976 157.118186 208.6586755 262.3235952)
5(83.27110086 126.1822548 178.0377217 234.9280147 293.6548374)
5(95.87437069 143.9325513 201.7704189 264.3959457 328.3643837)
5(110.2392264 164.0022736 228.3120924 296.921278 366.0021742)
5(126.4756951 186.3896408 257.5454188 332.0980933 406.0187814)
5(144.5570544 210.9816965 289.1342488 369.4292473 447.4963922)
5(164.5283294 237.5771117 322.695755 408.1440538 489.4857584)
5(186.1447387 265.6901701 357.5210257 447.2622461 530.9337973)
5(209.1598177 294.9757522 392.8414592 485.7488097 570.0995883)
5(233.4856054 324.7647001 427.6229861 522.3391352 606.143318)
5(257.8574637 354.1031736 460.8132074 555.9478323 637.0227887)
5(282.5577089 382.0409439 491.2499689 585.1660012 662.679311)
5(306.5327166 407.9191119 517.7778848 608.4606627 679.6080418)
5(329.2444444 430.7005452 539.3106338 624.5646588 687.5908677)
5(349.2139138 449.3089591 554.2036041 632.8288954 687.1583577)
5(365.1050733 462.8042332 561.8771024 632.5213045 674.9303398)
5(377.7805627 470.7147182 561.9487969 622.3798862 654.9886244)
5(386.8384037 472.5278647 554.0052558 602.7541707 625.2535679)
5(390.4245745 467.6162629 537.9049292 574.4593425 581.0038654)
5(388.4375191 455.8641506 514.022235 538.1694608 531.8897492)
5(381.8941066 437.8926005 483.6741332 495.2841717 477.849588)
5(371.3235967 415.0738684 447.8217143 447.7492861 417.99521)
5(357.5158069 389.2685641 408.5942864 397.9742719 357.670216)
5(341.6922566 361.9244715 368.8885622 347.6330807 297.6137709)
5(327.5034916 335.9375858 331.5861671 299.9889988 244.9040925)
5(315.5605694 314.6673004 299.1480047 258.9152642 194.702344)
5(312.4903086 301.1200748 273.2130098 225.9666722 151.907675)
5(317.9357938 296.6166171 256.7701453 200.2567517 116.2231036)
5(334.176678 302.1114889 252.4544359 181.2852958 84.97137434)
5(361.8124375 319.3849095 255.0937369 165.3494896 64.54273286)
5(398.0837423 346.1976734 261.0719509 149.2198698 32.4689688)
5(441.1182573 376.1744979 266.5216491 132.4114448 16.97021892)
5(487.9333104 403.2325151 266.9886248 113.4263018 -19.1441252)
5(531.2549942 425.8749113 260.9302985 92.53879 -28.75541045)
5(555.4574737 433.3152803 246.4135201 76.51593165 -54.96649208)
5(564.4858718 425.3721288 231.7585123 71.34982692 -38.80960237)
5(569.5344635 407.2812542 226.3515549 87.27155611 -1.710322804)
5(553.7615736 391.4465954 240.4841082 127.012474 50.88002168)
5(523.9821114 390.6101125 274.4636622 198.9937562 124.3900753)
5(496.1907249 404.9794658 356.7435269 287.1561053 181.5158283)
5(483.1522482 445.5735312 440.6313256 393.4379221 265.6742539)
5(492.3093979 520.7138102 555.0286859 493.7598552 369.4634374)
5(521.0884139 603.5041214 662.0408309 571.7762457 400.2080291)
5(570.0964574 685.0160657 728.9879868 641.5357828 492.8380537)
5(607.2831174 735.5522775 780.5493843 683.5057813 571.548948)
5(533.0953772 599.6137142 573.7019011 752.4341606 701.3409034)
)


60
(
5(23.31226801 38.46965944 92.68794571 159.5234028 278.9947306)
5(21.86877126 38.75108081 76.48867724 131.2048525 211.7583522)
5(21.57906543 39.68894507 70.97994828 119.0924417 181.2100085)
5(22.32943309 41.23158354 71.31286386 115.4979835 169.0707858)
5(24.34501196 44.04376344 74.85608564 116.6543011 166.5299609)
5(27.32856852 48.14113297 79.97195855 120.386536 168.1788392)
5(30.85391921 53.0715806 85.91381444 125.5746449 171.1759772)
5(34.87706659 58.84870267 92.59981373 132.1906413 175.9563571)
5(39.55601074 65.52495076 100.4100208 140.6421882 183.6277727)
5(45.06168291 73.23625791 109.7634774 151.3668256 195.1756656)
5(51.46229514 82.13749902 121.008146 164.7256254 210.6538057)
5(58.86527965 92.39817152 134.2962088 180.926556 230.2430706)
5(67.34063423 104.2339114 149.8713181 200.2732031 253.7102368)
5(77.09244506 117.8944385 167.9616542 222.9729163 281.2756781)
5(88.2957124 133.6245947 188.9188626 249.2571394 312.9184941)
5(101.187655 151.6590903 212.9452326 279.211072 348.685383)
5(115.9836622 172.2269452 240.249767 312.8352448 388.1977601)
5(132.7889154 195.4183104 270.7254785 349.9465954 431.3555938)
5(151.7737629 221.3136464 304.3151655 390.1905842 477.0386827)
5(172.9218549 249.7451888 340.6883917 433.0143708 524.6235575)
5(196.150609 280.5343069 379.4607314 477.6420645 573.1446272)
5(221.5222888 313.2626301 419.8784298 523.0493046 621.5228425)
5(248.8934963 347.5061984 461.1058673 568.2390183 668.8203843)
5(277.30873 382.472741 502.1282625 611.8206164 711.9225971)
5(306.661915 417.3521663 541.807711 652.4687458 750.6753866)
5(336.4654633 451.4123151 578.7803471 688.5575336 782.6467107)
5(365.2935957 483.5476342 611.7480797 718.6984314 807.6133166)
5(393.4675678 512.3530212 639.3529038 741.7794967 822.1849672)
5(418.0010314 536.5328212 660.2634826 756.4610559 828.6103999)
5(441.1912503 555.4064022 673.5981974 761.1845622 821.7027358)
5(458.939732 568.6397321 678.7350388 755.2973639 804.045322)
5(472.3486586 574.9729032 674.8321781 738.9715037 771.9528782)
5(480.5817097 573.7674632 661.5850109 712.3138691 730.5160066)
5(483.2671403 565.1941703 639.0899454 675.6308813 675.9383277)
5(481.0578358 549.6782701 608.3750217 630.4478047 616.3367996)
5(473.7100095 528.2102442 570.7604574 578.170133 550.228447)
5(462.2030079 502.2398371 528.6211255 521.1606281 479.3722632)
5(451.2080812 473.8630586 484.8637166 462.7586234 412.8888682)
5(435.6139884 445.6296723 442.1096873 407.4004419 347.8016355)
5(428.4944698 421.0841999 402.7345316 357.6556039 274.6505644)
5(421.9575832 403.2963923 369.9506561 313.6564047 224.0620477)
5(429.5128723 396.4880269 348.5979608 278.2875229 176.3162412)