/*--------------------------------*- C++ -*----------------------------------*\
| =========                 |                                                 |
| \\      /  F ield         | OpenFOAM: The Open Source CFD Toolbox           |
|  \\    /   O peration     | Version:  2.3.1                                 |
|   \\  /    A nd           | Web:      www.OpenFOAM.org                      |
|    \\/     M anipulation  |                                                 |
\*---------------------------------------------------------------------------*/
FoamFile
{
    version     2.0;
    format      ascii;
    class       dictionary;
    location    "constant";
    object      rHCO;
}
// * * * * * * * * * * * * * * * * * * * * * * * * * * * * * * * * * * * * * //

rHCO_table
60
(

60
(
5(7.669988964e-06 2.246558107e-06 1.323204364e-05 8.910568471e-06 4.213113475e-05)
5(-3.258552153e-06 -2.880449607e-06 -1.215210204e-05 -1.17285573e-05 -4.803755152e-06)
5(-0.02252451829 5.108883965e-06 1.80199806e-05 5.872282977e-06 0)
5(-0.06761199233 9.888304571e-06 4.144224264e-05 8.907882053e-06 5.192630653e-05)
5(-0.07191836659 5.086884718e-06 2.39641695e-05 1.139731042e-05 2.858702673e-05)
5(-0.04770172451 -1.012278626e-06 -1.121900314e-06 -2.8895603e-06 -3.491765069e-06)
5(-2.582988736e-06 -2.793675657e-06 -1.659952461e-05 -7.495399174e-06 -3.646442482e-06)
5(-1.91218964e-06 -1.677506429e-06 -9.428138204e-06 -5.910806714e-06 -4.814357921e-06)
5(-0.0449627904 -2.031631529e-07 -1.098492992e-05 4.13149357e-07 4.23263791e-06)
5(-0.06462690053 -8.705391867e-05 -2.120762122e-06 4.197418182e-06 1.505371091e-05)
5(-0.06339698571 -0.0001497407801 2.25317393e-06 1.296091162e-06 1.169792175e-05)
5(-0.02495380449 -1.841820003e-07 -5.58324246e-07 -2.387571341e-07 9.08445142e-07)
5(-6.900847553e-07 -8.003957398e-07 -2.726791425e-06 -3.929952922e-06 -9.054206576e-06)
5(-5.376083539e-07 -6.973534885e-07 -1.14378083e-06 -1.065464542e-06 -1.232394296e-05)
5(-2.996762973e-07 -6.785918034e-07 -7.691149763e-07 -1.106880576e-06 -4.156112808e-07)
5(-0.002388649487 -0.000183464302 -7.328913719e-05 -1.393717845e-05 2.221848218e-06)
5(-0.002078377155 -0.0001357729935 -9.974574451e-05 -3.848745736e-06 -2.915781876e-06)
5(-0.0008032097546 -8.616359333e-05 -7.951065135e-06 -2.538979673e-08 -1.822836469e-06)
5(-1.023740726e-06 -3.411039704e-05 -3.956144942e-06 -3.354326881e-06 1.730303931e-05)
5(-4.13565722e-06 -5.050690084e-06 -5.339218152e-06 -7.479572386e-06 2.280040723e-05)
5(-5.758977597e-06 -1.032691047e-05 -9.858364699e-06 -5.20787949e-06 4.675198699e-07)
5(-9.3581935e-06 -8.123729344e-06 -4.53874527e-05 -1.302655819e-05 -3.730466924e-06)
5(-5.378658157e-06 -1.518028016e-05 -2.755431742e-05 -2.328727874e-05 -2.483606876e-05)
5(-8.227885159e-06 -1.795650012e-05 -2.223186558e-05 -1.820855566e-05 -8.990132379e-06)
5(-9.551923296e-05 -0.00040895819 -2.146541734e-05 -2.283872033e-05 6.348725729e-06)
5(-8.727200658e-05 -0.001055101146 -3.900447546e-05 -3.56604765e-05 -2.039222129e-05)
5(-2.5992754e-05 -0.0007391316513 -5.999005185e-05 -7.576287439e-05 -4.772650119e-05)
5(-4.390643891e-05 -7.001723088e-05 -8.627973834e-05 -0.000102070414 -3.490017985e-05)
5(-0.0001577057447 -0.0001312390016 -0.0001304335309 -0.0001632303811 -2.615953341e-05)
5(-0.000144622687 -0.0001562623551 -0.000150192086 -0.0002790912701 -3.88772278e-05)
5(-0.000230650435 -0.0002424463101 -0.0002313330291 0.0001042645623 -0.000247137417)
5(-0.0002206075101 -0.0001746059778 -0.0003542061236 0.0003222971606 -0.0005868015694)
5(-0.0005287946851 -0.0005637936443 -0.0009140825182 -1.468281638e-05 -0.001349267818)
5(-0.000719042209 -0.0008508500065 -0.001688897688 -0.0001929688846 -0.000300744019)
5(-0.0008727625194 -0.0006205866665 -0.002840873056 -0.0004924407733 -0.007789803544)
5(-0.0009681988371 -0.0004064432512 -0.001671296324 -0.0009941413318 -0.01242838611)
5(-0.00124624195 -0.0005887770458 -0.001104408479 -0.0002394233107 -0.003563227383)
5(-0.001427845312 -0.001533199876 -0.002425569807 -0.004211727029 -0.008865292383)
5(-0.001577355081 -0.0005006785899 -0.01177071853 -0.005310147071 -0.01716431436)
5(-0.002922209084 -0.0006593138217 0.003041220468 -0.004518959677 -0.001324478875)
5(-0.00211046837 -0.004426199391 0.01753850642 -0.02186133097 -0.002271804239)
5(0.002234325187 -0.01072083583 0.01088813212 -0.1637302533 5.754229652e-09)
5(0.002858327766 0.0002525593515 -0.004418659105 3.591691774e-09 4.511757112e-09)
5(-0.0006188684152 0.01185524108 -0.02534149777 3.512755721e-09 -0.01116304476)
5(-0.00424080376 0.01678405002 -0.05069204813 1.360138688e-08 -0.0009778951866)
5(-0.003846162547 -0.00187799125 -0.006120696085 5.360057983e-08 5.742512103e-08)
5(0.0001980975565 -0.03276427022 -0.03647518275 -0.002242701026 7.072641894e-08)
5(-0.0366855057 -0.002443679058 -0.01076871591 2.481263304e-07 2.341769802e-07)
5(-0.003849292122 -0.001014292006 -0.001174367636 3.205033863e-07 8.065505807e-07)
5(-0.002861193017 -0.0005604118795 -1.20873936e-07 3.502423362e-07 6.647656187e-07)
5(-0.005898054957 9.891402183e-08 7.376520651e-08 2.066360379e-07 3.492730527e-07)
5(-0.009670172014 4.146241866e-08 -2.524351996e-08 3.217253743e-08 -4.145717429e-07)
5(-0.0001542058494 -3.52546182e-07 1.216266568e-07 2.842463974e-07 1.222837832e-06)
5(3.794419716e-08 -1.985970159e-07 -1.984928789e-07 2.468733428e-08 -1.610690118e-06)
5(9.868487859e-08 -6.859576343e-07 -1.161415497e-07 1.630215793e-07 -2.000923917e-07)
5(-0.0002131789585 -2.782840799e-07 2.136777716e-08 -1.23975125e-06 -8.230285087e-08)
5(-0.0007115984839 -1.119234329e-07 -3.351476464e-08 -5.076105816e-07 2.454080167e-07)
5(-0.0008302616833 -0.0005857710503 -1.445947007e-06 -6.482273557e-06 -3.153430965e-05)
5(-0.0005768307055 -0.0008401466928 -0.0008358284144 -7.599863559e-06 2.941959959e-07)
5(1.444011806e-07 3.519191645e-07 8.058064754e-07 1.821806454e-06 3.13784937e-06)
)


60
(
5(7.456302858e-06 -2.770352513e-06 3.537852293e-06 -1.035634714e-05 3.966457931e-05)
5(-3.222548087e-06 -2.963787647e-06 -7.357793853e-06 -1.233657496e-05 -8.223880171e-05)
5(-2.074081459e-06 -2.519299299e-06 -4.791947183e-06 -6.884998841e-06 -3.894417769e-05)
5(-2.216905054e-06 -2.5130387e-06 -1.177863371e-06 -2.71987067e-06 -4.625055151e-05)
5(-1.700882883e-05 -3.913842803e-06 -1.090534031e-05 -2.033237903e-05 -4.945537552e-05)
5(-1.291873835e-05 -7.173605049e-06 -1.716102755e-05 -7.652379143e-05 -7.808599958e-05)
5(-1.33205285e-05 -6.841216048e-06 -2.641907403e-05 -4.921553093e-05 -9.362549693e-05)
5(-2.408933015e-05 -8.341286912e-06 -2.344681317e-05 -2.776256112e-05 -0.000123607456)
5(-4.104944503e-05 -1.473065256e-05 -1.82153336e-05 -4.445140266e-05 -0.0001893332973)
5(-1.599594217e-05 -1.511244125e-05 -1.623249575e-05 -2.892602274e-05 -0.0004202446882)
5(-6.511514766e-05 -1.469598737e-05 -2.662215954e-05 -2.102618148e-05 -0.0003505493904)
5(-3.364130173e-05 -1.983521185e-05 -1.979687257e-05 -3.482221893e-05 -0.0001196226354)
5(-3.163479758e-05 -1.902612225e-05 -2.169447403e-05 -7.274873151e-05 -0.0002686615361)
5(-5.308707511e-05 -2.443041406e-05 -4.216255176e-05 -8.62229367e-06 -0.0001816269203)
5(-7.610396703e-05 -3.954510998e-05 -6.714327723e-05 -1.924062082e-05 -0.0001806976978)
5(-3.314061563e-05 -3.697552795e-05 -5.22207628e-05 -1.662850589e-05 -0.0002239134718)
5(-0.0001419608262 -4.321855814e-05 -3.609020504e-05 1.367803901e-05 -0.0002486649131)
5(-0.0001796861986 -5.832511305e-05 -4.298024417e-05 -1.571728629e-05 -0.0003172886222)
5(-0.0001958927964 -0.0001050356401 -7.605295985e-05 -6.038251727e-05 -0.0004136938315)
5(-0.0002494129134 -0.0001342437797 -0.0001185650582 -0.0001311590996 -0.0001121254161)
5(-0.0003773246199 -0.0002017518552 -0.0002124865685 -0.0003027806638 -0.0006687777139)
5(-0.0006524254114 -0.0002907731404 -0.000413603187 -0.0004315267653 -0.001071574657)
5(-0.0008144303207 -0.0004607383473 -0.0006548106479 -0.0007493133596 -0.001009613552)
5(-0.000660960315 -0.0007455194585 -0.001044459646 -0.001359286908 -0.001782747231)
5(-0.001368278706 -0.001135430426 -0.001626921107 -0.00204384594 -0.002388247608)
5(-0.001331363059 -0.001800287227 -0.002343961425 -0.00298413376 -0.003361635463)
5(-0.001875129616 -0.002826022509 -0.003544758566 -0.004324848267 -0.005009132154)
5(-0.002704162991 -0.004178026169 -0.005277340898 -0.006169464922 -0.008234189812)
5(-0.004600952054 -0.00600002386 -0.007555038621 -0.008602678612 -0.008022000404)
5(-0.005108230268 -0.008530456248 -0.01044898625 -0.01131652536 -0.01290540057)
5(-0.008558142726 -0.01187953592 -0.01418721569 -0.01442682845 -0.01257285087)
5(-0.01263544137 -0.01584473861 -0.01810083935 -0.01722195101 -0.01356541726)
5(-0.01709904438 -0.01973656367 -0.02150629208 -0.01901605576 -0.01946542999)
5(-0.01846939135 -0.02317946148 -0.02347444996 -0.01881018868 -0.01696814535)
5(-0.02687124214 -0.0250799019 -0.02276160025 -0.01491648906 -0.009752834174)
5(-0.02040342174 -0.02369899876 -0.01813437663 -0.006902940442 -0.01333834965)
5(-0.04069836135 -0.01686008376 -0.007125494468 0.00618024645 -0.01316238804)
5(-0.01615617463 -0.003688093211 0.01116982962 0.02295649149 -0.006882261194)
5(0.004541423494 0.01827653997 0.03516718265 0.04205942465 0.006829621339)
5(0.01349845381 0.04314177815 0.05882912329 0.05781419209 0.03230714623)
5(0.02993088118 0.07303539312 0.08056538845 0.06395881283 0.006597892482)
5(-0.004991560813 0.09525305978 0.08935014911 0.05740062013 0.01195095161)
5(0.07388423178 0.1049525163 0.08383993064 0.03857394919 -0.02121835458)
5(0.09153306837 0.09422336913 0.05626265213 0.01082160854 -0.02375832909)
5(0.07334079659 0.05986287386 0.01699224046 -0.01306849816 -0.02767270408)
5(-0.003789146518 0.0150301689 -0.02146158749 -0.02528544106 -0.01332674553)
5(-0.1990346802 -0.0318916017 -0.04492134468 -0.02617127142 -0.009656680829)
5(-0.1795164199 -0.06027176339 -0.04862649731 -0.01951843401 -0.007831717005)
5(-0.1774347922 -0.06489232116 -0.03657971346 -0.01096817574 -0.002879490448)
5(-0.1099136481 -0.04940223088 -0.02050804189 -0.004690296119 -0.001305922986)
5(-0.07527194302 -0.02770297415 -0.008715845841 -0.001585636024 -0.0009612297092)
5(-0.04767681413 -0.01124668966 -0.002786661129 -0.0004392941342 -0.0002327579256)
5(-0.02276893451 -0.003392865685 -0.0007111148081 -0.0001101216074 -0.001053961974)
5(-0.005965888802 -0.0007112431207 -0.0001357910343 -2.640909704e-05 -0.000121508634)
5(-0.001820926143 -0.0001248629914 -3.161317244e-05 -1.179989723e-05 -0.0001262628826)
5(-0.0006195000486 -2.761645376e-05 -1.544178873e-05 -1.014269744e-05 -3.381430546e-05)
5(-0.0005525219641 -1.63694824e-05 -1.228019342e-05 -1.165388596e-05 -0.0003090949524)
5(-8.861325519e-05 -1.47526356e-05 -1.000373735e-05 -1.205329943e-05 -3.603878274e-05)
5(-0.0011855482 -2.247329225e-05 -1.411102638e-05 -1.399090523e-05 -0.0008438526575)
5(-8.393488123e-06 -1.235380144e-05 -0.007840429729 -2.674434764e-05 -7.478695023e-05)
)


60
(
5(1.207661291e-05 -9.778415793e-06 4.647875756e-06 -4.716629249e-05 0.0001311185241)
5(-1.517383361e-05 -1.719442421e-05 -1.950733659e-05 -6.785990069e-05 -0.0003772813031)
5(-7.248391975e-06 -1.564271972e-05 -3.748592175e-05 -8.740914327e-05 -0.0002475877135)
5(-1.916273628e-05 -1.676396337e-05 -4.561345379e-05 -0.0001019259103 -0.0004081069615)
5(-1.930559095e-05 -2.315710204e-05 -7.117249486e-05 -0.0001590959063 -0.0002628298265)
5(-1.944348877e-05 -3.407712926e-05 -0.0001020174584 -0.0002384533617 -0.000338822036)
5(-3.003682593e-05 -4.682710243e-05 -0.0001031911877 -0.0001948111078 -0.0003426447337)
5(-6.042872112e-05 -5.504782696e-05 -9.37619593e-05 -0.0001812921273 -0.0004761028008)
5(-4.011996635e-05 -6.025576966e-05 -9.665959303e-05 -0.0001747406943 -0.0008175824584)
5(-5.39380104e-05 -7.017111668e-05 -0.0001293266727 -0.0001995883357 -0.0004052139561)
5(-8.798268555e-05 -9.518274098e-05 -0.0001517615348 -0.0002034058482 -0.0003231495091)
5(-0.0001752513123 -0.0001197032044 -0.000162185371 -0.0002348079826 -0.000296588052)
5(-9.984969472e-05 -0.0001107972556 -0.0001567028271 -0.0001883051543 -0.0001340035157)
5(-0.0001042961563 -0.0001117196799 -0.0001391321132 -0.0001394458369 7.000531531e-05)
5(-0.0001461453847 -0.0001200899335 -0.0001460895645 -7.654200007e-05 0.0001763413717)
5(-0.0004787064377 -0.0001620459175 -0.0001643750176 -5.802847954e-05 0.0001488663212)
5(-0.0002916692257 -0.0001976412971 -0.0001539012711 3.551307406e-05 0.0005177692222)
5(-0.0002814451222 -0.0002571528063 -0.000135477085 9.542135648e-05 -0.0001867741471)
5(-0.0003614166312 -0.0002871081854 -0.000131800495 2.157911747e-05 -0.0005231977955)
5(-0.0004093009778 -0.0003632675411 -0.0002439327693 -0.0001587465742 -0.0009018279912)
5(-0.00103503071 -0.00041271361 -0.000459972568 -0.0005136640804 -0.000720519047)
5(-0.0007265536187 -0.0005411594167 -0.0008201423845 -0.001101506162 -0.001974995228)
5(-0.0007887413164 -0.0008092815937 -0.001223348233 -0.001806034852 -0.00305426773)
5(-0.001421483582 -0.001305369308 -0.001926393784 -0.002907827794 -0.004313694369)
5(-0.002342629753 -0.00211029718 -0.003125711824 -0.0045516095 -0.005921256758)
5(-0.002489254142 -0.003438374565 -0.005061924655 -0.007066598416 -0.01026026035)
5(-0.003790770644 -0.005447680409 -0.007877930171 -0.01021845803 -0.01244478713)
5(-0.008893086941 -0.008208643918 -0.01147685452 -0.01464565667 -0.01803634926)
5(-0.008775761047 -0.01225513004 -0.01651741598 -0.02016320016 -0.02193348309)
5(-0.01654337496 -0.01753708905 -0.02322996949 -0.02706536795 -0.03374100884)
5(-0.0187896602 -0.02441609582 -0.03116910382 -0.03462381121 -0.03377420371)
5(-0.0251472757 -0.03287074639 -0.03992301271 -0.04237948027 -0.04167366236)
5(-0.03403473653 -0.04162787146 -0.04834071245 -0.04861821009 -0.04183950266)
5(-0.04229290766 -0.04981838915 -0.05508063216 -0.05015103468 -0.05259873845)
5(-0.0502702865 -0.05490597655 -0.0558803993 -0.04493227795 -0.03816430162)
5(-0.09624583843 -0.05426031298 -0.04827270508 -0.03017477348 -0.01274985329)
5(-0.1382182184 -0.0425573335 -0.02753080338 -0.002875894928 -0.0222840355)
5(-0.06133994839 -0.0179232998 0.008287106882 0.03708470302 0.03887883933)
5(-0.0699635829 0.02131300717 0.06002026917 0.08608863398 0.07604823454)
5(-0.02197829909 0.07801596246 0.1206334308 0.1360533316 0.07331460935)
5(-0.007423168437 0.1453648125 0.17888977 0.1742491805 0.09276825599)
5(0.09196901383 0.2053007311 0.2251141553 0.1869832122 0.09593478681)
5(0.1534911911 0.2466354478 0.2366652372 0.1660330893 0.04591918274)
5(0.2095666241 0.2472524378 0.2001630431 0.109744246 -0.05389847795)
5(0.1737796758 0.2043207759 0.1229022777 0.03497778182 -0.0494285422)
5(0.1787869253 0.1111778937 0.0217845458 -0.03428713462 -0.05428609014)
5(0.0692677927 -0.004165382391 -0.07156182762 -0.07963161531 -0.0913803238)
5(-0.04064074781 -0.1059338087 -0.1260679759 -0.0900312044 -0.05612762789)
5(-0.2297128515 -0.157738212 -0.1321234087 -0.07160506457 -0.03657270001)
5(-0.2131977851 -0.156685358 -0.1014093606 -0.04490612982 -0.02068524317)
5(-0.197073065 -0.1150535815 -0.05908665246 -0.02180474359 -0.005683645435)
5(-0.0918709965 -0.06357666653 -0.02632132652 -0.008087682046 -0.002977001489)
5(-0.03869679666 -0.02600181567 -0.008720401763 -0.002376171035 -0.000602800916)
5(-0.02376394233 -0.007509837388 -0.00208416266 -0.000548009993 -0.001944806158)
5(-0.005163037 -0.001562490817 -0.0004330576969 -0.000149869643 -0.0002160453883)
5(-0.004089224444 -0.0003046318325 -0.0001322185033 -7.797097606e-05 -0.0002706671812)
5(-0.001886298315 -0.0001214517249 -9.572834259e-05 -6.360444369e-05 -7.573119418e-05)
5(-0.001724248013 -9.227235782e-05 -6.15723855e-05 -5.175469496e-05 -0.0001792009115)
5(-0.001126686424 -0.00110199308 -6.943702717e-05 -0.0005858386863 -0.001244204377)
5(-6.013157334e-05 -4.913957434e-05 -0.0125948834 -5.272029875e-05 -0.0001273465575)
)


60
(
5(3.303773083e-05 -1.488944901e-05 1.924148953e-05 -4.407303196e-05 0.00057435013)
5(-2.447722004e-05 -5.477634645e-05 -9.029613141e-05 -0.0002713593679 -0.00105004103)
5(-2.647038107e-05 -5.234458565e-05 -0.0001228666057 -0.0003204549092 -0.0008009271551)
5(-2.937563082e-05 -5.516157057e-05 -0.0001586849443 -0.0003606538108 -0.0006977176226)
5(-3.060694942e-05 -7.517637335e-05 -0.0002277038096 -0.0004579027442 -0.00079735806)
5(-6.06220969e-05 -0.0001046303688 -0.0002725417016 -0.000525317001 -0.000894632163)
5(-8.012905068e-05 -0.000121851374 -0.0002658130655 -0.0005240405866 -0.000933796311)
5(-8.359228122e-05 -0.000144479795 -0.0002762836183 -0.0005267769493 -0.0008522617884)
5(-0.0001098730988 -0.0001667423885 -0.0002919493492 -0.0004972788165 -0.00110728166)
5(-0.0001857284336 -0.0002000946059 -0.0003455135471 -0.0004995809891 -0.000801846864)
5(-0.0002201850968 -0.0002329663868 -0.000377185899 -0.0005510426909 -0.0008458696693)
5(-0.0003128006058 -0.0002704081084 -0.000430623183 -0.0005814126589 -0.0003646779654)
5(-0.0004730386598 -0.00030464895 -0.0004741656849 -0.0004332837502 0.0001290481238)
5(-0.0003687676383 -0.0003605726662 -0.0004654567106 -0.0002541520967 -0.0002611090446)
5(-0.0003827176874 -0.0004060199226 -0.0004177457858 -9.121224083e-05 0.0008347632184)
5(-0.0004773346593 -0.0003475803423 -0.0002905570723 9.822664831e-05 0.0009589121082)
5(-0.0009893247498 -0.0003812332924 -0.0002720352548 0.000235462761 0.001263102435)
5(-0.0005970134902 -0.0004863990948 -0.0003624107035 0.000203457256 0.001433423323)
5(-0.001613111667 -0.0004679113053 -0.0003428538851 -3.626654086e-05 0.0002692762165)
5(-0.0008000315172 -0.0005388172041 -0.0005003063595 -0.0002938385297 0.0001360586383)
5(-0.0009081116864 -0.0007541654526 -0.0006321183477 -0.0007049582173 -0.0006198968999)
5(-0.003798083108 -0.00076066827 -0.0009075434856 -0.001509975464 -0.003531944591)
5(-0.005408200768 -0.00110699988 -0.001774274335 -0.002645283544 -0.005974763811)
5(-0.001470842957 -0.001889472276 -0.003154190376 -0.004339748937 -0.009606669503)
5(-0.003132759211 -0.003113428433 -0.004792465783 -0.007088719419 -0.009304973154)
5(-0.004271763143 -0.004822004789 -0.00749557565 -0.01103644319 -0.01572598155)
5(-0.006460474188 -0.007466536433 -0.01185751992 -0.01667136432 -0.0247630118)
5(-0.008317072186 -0.01171969095 -0.01793832972 -0.02428081264 -0.02910165063)
5(-0.01322308574 -0.01807815509 -0.02648365664 -0.03413087452 -0.04691800181)
5(-0.01988251278 -0.02686870159 -0.03787457505 -0.04656558371 -0.04997552091)
5(-0.02779694608 -0.03855060878 -0.05235657318 -0.06096131707 -0.07394246737)
5(-0.03991145462 -0.05303362053 -0.06862907303 -0.0763824831 -0.080864894)
5(-0.05685111689 -0.06942428266 -0.08571078792 -0.09099313519 -0.1002873513)
5(-0.07237012847 -0.0867443087 -0.1004727791 -0.09941008913 -0.08902677689)
5(-0.09612881439 -0.1007061642 -0.1095108631 -0.09833403748 -0.1368611486)
5(-0.1095432629 -0.1082666315 -0.1058988247 -0.08248294593 -0.06600474324)
5(-0.1148148846 -0.1007200318 -0.08292132014 -0.04471663545 -0.0328726488)
5(-0.1322798584 -0.07426113647 -0.03480175726 0.01660991766 -0.04830960384)
5(-0.1009114134 -0.02077934486 0.0414023033 0.1001985294 0.1051314338)
5(-0.04533782008 0.06221781402 0.140346216 0.1978175212 0.06562817798)
5(0.001110395717 0.1629985856 0.2537461112 0.2888842334 0.2224551888)
5(0.1074701436 0.2744634585 0.354963506 0.3505334361 0.2736950099)
5(0.1927611214 0.3707049739 0.414720722 0.3567589725 0.1487814962)
5(0.2621251539 0.4229885784 0.4075907881 0.2986792546 0.009134527444)
5(0.3286177095 0.3984159821 0.3226907217 0.1783380235 -0.1098517784)
5(0.2992124612 0.2956010841 0.1677611901 0.03523845197 -0.01677535413)
5(0.2336445834 0.1438245025 -0.01737019192 -0.09340485029 -0.172535449)
5(-0.01158127381 -0.05678148211 -0.1599505966 -0.1761950037 -0.1468659932)
5(-0.184458246 -0.2169088181 -0.239271021 -0.1888266154 -0.138281505)
5(-0.2406567242 -0.283133577 -0.242855316 -0.1513290619 -0.1063967109)
5(-0.3406360288 -0.2577154796 -0.1752934562 -0.09192927868 -0.06526764868)
5(-0.3766487488 -0.1821618248 -0.09821529439 -0.04355400812 -0.01539907463)
5(-0.1824752452 -0.09463769154 -0.04122762188 -0.01582673224 -0.006928719262)
5(-0.1384703932 -0.03573612795 -0.01241648011 -0.004351356367 -0.003319515872)
5(-0.03081444697 -0.009384504652 -0.002717603353 -0.0009873501764 -0.001893721315)
5(-0.01497800247 -0.001771436135 -0.0006344441707 -0.0003471823757 -0.0005612430946)
5(-0.003095337482 -0.0005214924097 -0.0003154755029 -0.0002139685583 -0.0005495023637)
5(-0.001551671076 -0.000289599042 -0.0002353982806 -0.000163281324 -0.0008236220396)
5(-0.0009163943077 0.006836406446 -0.0002554719257 0.005175170259 -0.001004331535)
5(-0.000201834148 0.02454270082 0.07538614113 -0.04749038003 -0.041862976)
)


60
(
5(7.236925336e-05 -1.255316847e-05 0.0001005942125 0.0001633283767 0.002015988576)
5(-5.479412344e-05 -0.0001353247863 -0.0002488322672 -0.0006907550684 -0.00218124192)
5(-6.948223226e-05 -0.0001300657431 -0.0002946188488 -0.0007926614642 -0.001848022689)
5(-8.04376865e-05 -0.0001291897977 -0.0003624601832 -0.0008575636667 -0.001648649826)
5(-8.208240872e-05 -0.0001632619365 -0.0004905062539 -0.0009651729835 -0.001587397032)
5(-9.904512667e-05 -0.0002364555244 -0.000569183975 -0.001085890772 -0.001680885272)
5(-0.0001425145651 -0.0002783902612 -0.0005955385244 -0.00105330886 -0.00183973677)
5(-0.0001964281824 -0.0003421409692 -0.0006231140349 -0.001047926963 -0.001603950402)
5(-0.0002200654359 -0.0003736881225 -0.0006215811754 -0.0009990712932 -0.001676746803)
5(-0.0002874545641 -0.0004147986215 -0.0007180980982 -0.001036406254 -0.001180227558)
5(-0.0003055597487 -0.0005046796323 -0.0007921157552 -0.001015481064 -0.001025814799)
5(-0.0006186390375 -0.0005902886575 -0.0008744633349 -0.0008926992504 -0.0001890418147)
5(-0.0005832914191 -0.0006998271784 -0.0008724138079 -0.0006786300065 0.0002827922045)
5(-0.001278918118 -0.0007589153373 -0.0008721899251 -0.0003890795001 0.001408983423)
5(-0.0009119259467 -0.0007939372162 -0.0008171874101 -1.191409113e-05 0.001777988396)
5(-0.000669895927 -0.000750836934 -0.0007190762941 0.0003088421303 0.002058815987)
5(-0.001380807961 -0.0007629998421 -0.0005659997557 0.0004286025401 0.002705541441)
5(-0.001378930559 -0.0008200763375 -0.0003649865819 0.0005232572912 0.00242285376)
5(-0.001458431374 -0.0007673395567 -0.0002599945173 0.0005857992983 0.002006711378)
5(-0.001765165262 -0.0008273903645 -0.0002934275203 0.0004750576372 0.0005301697701)
5(-0.002146214237 -0.0007070756302 -0.0003647816638 -0.0001206244333 -8.896726815e-05)
5(-0.001336632998 -0.0006631102349 -0.0007391820756 -0.001017950012 -0.004271677122)
5(-0.001430768935 -0.0008445849793 -0.001364481972 -0.002567030054 -0.006275505064)
5(-0.002566998625 -0.001588270293 -0.002520229394 -0.004916227471 -0.01010739404)
5(-0.004685527076 -0.003057445007 -0.004677432818 -0.008491393521 -0.01380575547)
5(-0.002736251817 -0.005238742533 -0.008466319311 -0.01375689899 -0.02295282844)
5(-0.003372618383 -0.007795864624 -0.01417334927 -0.02156752416 -0.02982791836)
5(-0.01005469732 -0.01310657487 -0.02217405168 -0.03213969199 -0.03966174708)
5(-0.01851449407 -0.02139044387 -0.03385212215 -0.0466490702 -0.05797854494)
5(-0.02730280655 -0.03337538343 -0.04996935926 -0.06497149568 -0.07893598757)
5(-0.0400331438 -0.04983096511 -0.0709457887 -0.087550792 -0.1006908167)
5(-0.05562593858 -0.07023853083 -0.09584974255 -0.1130885711 -0.158438078)
5(-0.07086102657 -0.09569368585 -0.123940248 -0.1390114906 -0.1432338943)
5(-0.08738493549 -0.1232868273 -0.1520698742 -0.1596748645 -0.1665648883)
5(-0.1221938395 -0.1505451061 -0.1728070863 -0.168964167 -0.1682061321)
5(-0.1641430837 -0.1718026642 -0.1810050887 -0.1590143444 -0.129385074)
5(-0.1995545933 -0.1761817332 -0.1658232412 -0.1203329132 -0.0770606771)
5(-0.1993745704 -0.1573738444 -0.1170065372 -0.04735577487 -0.0191863407)
5(-0.1909568462 -0.1077104981 -0.02816236205 0.06596062901 0.09034348532)
5(-0.137082666 -0.01403530395 0.1051589437 0.2111069227 0.2633393008)
5(-0.04283425967 0.116393155 0.2672261473 0.3642449764 0.2991444048)
5(0.0893685914 0.2776160263 0.4348632851 0.4995862574 0.2657860091)
5(0.187505873 0.4384392156 0.574496844 0.574210392 0.4335870732)
5(0.3039364142 0.5566724383 0.6334253765 0.5540219541 0.3730510098)
5(0.3226979696 0.6055297104 0.5887418872 0.4327599619 0.2150363152)
5(0.5393756955 0.5370829309 0.4097337431 0.2241923168 -0.1210275508)
5(0.3896996246 0.3570493664 0.1515250457 0.002920561188 -0.2814338128)
5(0.2530885457 0.09703242006 -0.1205150917 -0.206547079 -0.3497040894)
5(0.1002845867 -0.1725633486 -0.3260602554 -0.3157315176 -0.3590270531)
5(-0.1481606207 -0.3547906486 -0.4062629046 -0.3127969051 -0.1776576293)
5(-0.4169137372 -0.4215893465 -0.365858152 -0.2377578585 -0.1161126016)
5(-0.7170212237 -0.3921957235 -0.2518863419 -0.1403416224 -0.06557189202)
5(-0.552398502 -0.2592196516 -0.1311822718 -0.06322825494 -0.04055298974)
5(-0.438250352 -0.1309616225 -0.05041822101 -0.02127953556 -0.009219865315)
5(-0.1670263046 -0.04834410487 -0.01400330983 -0.005217829258 -0.002794218957)
5(-0.08471175568 -0.01225970313 -0.002949208323 -0.001269615492 -0.002593742444)
5(-0.02223098782 -0.002469263012 -0.0008724936615 -0.0006075387796 -0.001577364353)
5(-0.003570677192 -0.0008373805079 -0.0005906994353 -0.0004354006802 -0.001877635551)
5(-0.001126426597 0.005035917648 -0.0005009176509 0.002226917096 -0.004675732708)
5(-0.0008175214937 -0.0005836345979 -0.02711828904 -0.0004648811512 -0.000501428564)
)


60
(
5(0.0001531864121 3.346832445e-05 0.0003353076964 0.0008212351529 0.005430904207)
5(-0.0001178660584 -0.0002779456459 -0.0005479412727 -0.001401673716 -0.003859583881)
5(-0.00011313235 -0.0002657064989 -0.0006371408921 -0.001563027037 -0.003570429338)
5(-0.0001401085822 -0.0002745097106 -0.0007533299424 -0.001615652388 -0.003106486577)
5(-0.0001954692467 -0.0003301016666 -0.0008868983163 -0.001739877135 -0.002936702539)
5(-0.0001994188312 -0.0004252275046 -0.001011242299 -0.001947877722 -0.002742157115)
5(-0.0002679400963 -0.0004909368139 -0.001062286752 -0.001879581741 -0.003035061312)
5(-0.0003468826758 -0.0005955186299 -0.001113783207 -0.001880508356 -0.002589164613)
5(-0.0004676204616 -0.0007108493019 -0.001134393228 -0.001855366502 -0.002692856327)
5(-0.0004959112704 -0.0008337319605 -0.001323297869 -0.001828669631 -0.001882582529)
5(-0.0009042878033 -0.0009652198402 -0.001462288601 -0.001800538123 -0.001564383691)
5(-0.0007092710911 -0.0011168194 -0.001557236966 -0.001627067175 0.0001119562673)
5(-0.001253926857 -0.001268076947 -0.001574535521 -0.001278226456 0.0004871353644)
5(-0.001018131257 -0.001316563285 -0.001534921427 -0.0008394843912 0.002382219458)
5(-0.001847076779 -0.001450561367 -0.001494914086 -0.0002612178518 0.002653838374)
5(-0.002008506184 -0.001486386727 -0.001309903367 0.0004144499164 0.004666837535)
5(-0.001992005501 -0.001507338507 -0.001046493989 0.0008996690206 0.004081791396)
5(-0.002620943464 -0.001572902442 -0.0007416643489 0.001181306383 0.00449213672)
5(-0.001731680661 -0.001458874169 -0.0005378298413 0.001217389101 0.003960453002)
5(-0.003409211818 -0.001229597218 -0.0003506784398 0.00105893869 0.002274395432)
5(-0.004417099855 -0.001069713228 -0.0001577198224 0.000636489036 0.001368299953)
5(-0.001280292471 -0.0006120967192 -2.292599448e-05 -0.0001672414577 -0.00254575641)
5(-0.003440977863 -0.0003610359806 -0.0005103243353 -0.001685057302 -0.005324390207)
5(-0.005545705355 -0.0004129696896 -0.001433880109 -0.004286432691 -0.009680694988)
5(-0.002694268335 -0.0006323831029 -0.003287832773 -0.00825737678 -0.01631584351)
5(-0.00333991477 -0.002071197108 -0.007051801789 -0.01426948805 -0.02433439766)
5(-0.008378153148 -0.005375879605 -0.01305119828 -0.02364347143 -0.03596799477)
5(-0.01324818499 -0.01118735701 -0.02284101653 -0.03691718583 -0.05584231315)
5(-0.01241465742 -0.02022262365 -0.03730969437 -0.05533807283 -0.07634369723)
5(-0.02318947311 -0.03443890996 -0.05801600344 -0.08023745333 -0.09691440542)
5(-0.04960346346 -0.05514762602 -0.08557524685 -0.1115086612 -0.1381318085)
5(-0.07533099999 -0.08241296854 -0.1204229075 -0.148330809 -0.1793804069)
5(-0.09994554503 -0.1172734916 -0.160234704 -0.1882166869 -0.2107407952)
5(-0.1171258305 -0.1567165172 -0.2036116404 -0.2259325384 -0.2268359135)
5(-0.1499954485 -0.1996119648 -0.2433796296 -0.2534849487 -0.2693207559)
5(-0.213380582 -0.2391503102 -0.2700761365 -0.2600041862 -0.2634179884)
5(-0.2524668687 -0.2648639466 -0.2724061468 -0.2331413328 -0.1883464139)
5(-0.2906824971 -0.2672656164 -0.234842753 -0.159215584 -0.07366738424)
5(-0.2789930434 -0.2298791024 -0.1482905346 -0.03159182386 0.004426120686)
5(-0.2465555521 -0.1401192789 -0.005930239291 0.1501075709 0.170290295)
5(-0.1540181861 -0.0008197666883 0.1962119627 0.3632950221 0.4275536234)
5(-0.07751988895 0.1899976511 0.4257430193 0.5861617361 0.5314545923)
5(0.03170769116 0.4096911245 0.6566495083 0.7595316337 0.6782353338)
5(0.2254964676 0.6085178625 0.8097123356 0.8207714609 0.7076762303)
5(0.4181424225 0.7485392754 0.8564089611 0.7439564654 0.4457873489)
5(0.6051659377 0.7696740804 0.7284378893 0.5253125373 0.2082827921)
5(0.6131614319 0.644919696 0.4508475017 0.2054266915 -0.1322363556)
5(0.5919056868 0.3792105905 0.08978228194 -0.107851693 -0.5611769927)
5(0.1978458692 0.03568784166 -0.2510466096 -0.3631687053 -0.5489402218)
5(-0.3051057909 -0.25331614 -0.5131550988 -0.5005229142 -0.4347394627)
5(-0.4475030435 -0.5159318908 -0.5923523882 -0.4658225835 -0.2341953595)
5(-0.9116057004 -0.5514350485 -0.5032609451 -0.3294007167 -0.2188390471)
5(-0.6726620961 -0.5272420957 -0.3247528326 -0.1807176578 -0.09654640799)
5(-0.4806686254 -0.3637547389 -0.1624586842 -0.07619854863 -0.03054111027)
5(-0.4102197309 -0.193579182 -0.06019262844 -0.023109484 -0.00914435015)
5(-0.3111009284 -0.07490769324 -0.01414979381 -0.00533498225 -0.01268864011)
5(-0.1125387184 -0.02171413634 -0.003547912361 -0.001612564556 -0.002100764042)
5(-0.07658915522 -0.004407147257 -0.001432964318 -0.001051695692 -0.005301405681)
5(-0.01090710301 -0.001671626518 -0.001120406767 -0.0009033389969 -0.006714601264)
5(-0.02638534897 -0.001710572823 -0.04551680502 -0.001047026997 -0.0006643737294)
)


60
(