/*--------------------------------*- C++ -*----------------------------------*\
| =========                 |                                                 |
| \\      /  F ield         | OpenFOAM: The Open Source CFD Toolbox           |
|  \\    /   O peration     | Version:  2.3.1                                 |
|   \\  /    A nd           | Web:      www.OpenFOAM.org                      |
|    \\/     M anipulation  |                                                 |
\*---------------------------------------------------------------------------*/
FoamFile
{
    version     2.0;
    format      ascii;
    class       dictionary;
    location    "constant";
    object      rho;
}
// * * * * * * * * * * * * * * * * * * * * * * * * * * * * * * * * * * * * * //

rho_table
60
(

60
(
5(1.017999431 1.018212043 1.0157836 1.015705632 1.013854911)
5(0.9651219579 0.9999433986 0.9747979003 0.961087514 0.9814812845)
5(0.990806893 0.8719062935 0.9107031369 0.9016894608 1.044881663)
5(0.9707724938 0.7905838945 0.8168413937 0.8450277062 0.8021881274)
5(0.8372722006 0.734808928 0.75375918 0.7497966443 0.7624648525)
5(0.7213980814 0.6872551808 0.7273712231 0.6935453994 0.7194711178)
5(0.6621020761 0.6441291333 0.6705376238 0.653278614 0.6481014705)
5(0.6335750169 0.6040310517 0.6155690722 0.6058177412 0.6264173307)
5(0.5885228974 0.5678043249 0.58009381 0.5671599334 0.5765322948)
5(0.5572158477 0.5358525839 0.5424400188 0.5357597178 0.5401765481)
5(0.5273986047 0.5085966756 0.513672964 0.5065245537 0.5098559683)
5(0.5016168438 0.4841420157 0.4898493241 0.4808290367 0.4846992435)
5(0.479694047 0.4618800298 0.4668793903 0.4568878687 0.4599046407)
5(0.4569070143 0.4416918658 0.4453565412 0.4374497944 0.4391036222)
5(0.4389932003 0.4240215217 0.4266673917 0.4180568604 0.4197181745)
5(0.4210601808 0.4072350381 0.4088085741 0.400907986 0.4019233297)
5(0.4050259726 0.3920812359 0.3928352766 0.3852950916 0.3854317366)
5(0.3903262997 0.3780742606 0.3781757546 0.370722264 0.3706057902)
5(0.3768260647 0.3650551678 0.3646577853 0.3576547875 0.3570996816)
5(0.3639171115 0.3526624285 0.351916659 0.3450284213 0.3447162997)
5(0.352303683 0.3417338643 0.3406281573 0.3338908109 0.3332084738)
5(0.3413528236 0.3313228917 0.3297283063 0.3241447618 0.3229644319)
5(0.3309055604 0.3214456197 0.3197290287 0.3138499063 0.3125261727)
5(0.3214589307 0.312047429 0.3102870827 0.304666104 0.3032686278)
5(0.3123684682 0.3034265208 0.3013578895 0.2958713578 0.2943829142)
5(0.3038998445 0.2953554715 0.2928391719 0.2875607871 0.2862159624)
5(0.2958681771 0.2877891132 0.285244802 0.27988805 0.2784982702)
5(0.2883913462 0.2805471701 0.277759326 0.2726982098 0.271278467)
5(0.281081895 0.2736132114 0.2709119004 0.2660256461 0.264418694)
5(0.2742948904 0.2670077803 0.2643763895 0.2598147663 0.2580602186)
5(0.2677692397 0.2607664576 0.2580147546 0.2536124975 0.2519264921)
5(0.2616513706 0.2549566191 0.2522318845 0.2481053412 0.2466277293)
5(0.2558627974 0.2493403151 0.2465533633 0.2426420715 0.2407246939)
5(0.250283177 0.243961334 0.2410937446 0.2375179277 0.2359958055)
5(0.2449628702 0.2389331214 0.2360758115 0.2325927686 0.2310308427)
5(0.2399130696 0.233968756 0.23096242 0.2278550531 0.2263259553)
5(0.235088604 0.2295647925 0.2268105718 0.2235824175 0.2218216079)
5(0.2304927887 0.2250459531 0.2224165104 0.2192170354 0.21841918)
5(0.2260519166 0.2208766525 0.2181138937 0.2152413484 0.2135380347)
5(0.2217243105 0.2168247585 0.2139394078 0.2112619884 0.2122720268)
5(0.2177229031 0.2131046038 0.2103627563 0.2076646696 0.208188393)
5(0.2139557125 0.2094554231 0.2067958147 0.2049267476 0.2043444948)
5(0.2102969269 0.206083073 0.2034661442 0.2032795262 0.2005695634)
5(0.206768269 0.2026186495 0.199522134 0.1997038789 0.1968647822)
5(0.2034007494 0.1994820389 0.1965773076 0.196226801 0.1934976187)
5(0.2003181295 0.1963525908 0.1938645201 0.1928652363 0.1901956727)
5(0.1973296555 0.1936114067 0.19270522 0.1896353104 0.1869952149)
5(0.1945424829 0.1914043372 0.19026015 0.1865525578 0.1839068423)
5(0.1917283653 0.1885124403 0.187272408 0.1835754451 0.1809296727)
5(0.189103779 0.1878220171 0.1843215728 0.1807040449 0.1780668933)
5(0.1867510578 0.1850168973 0.1814706941 0.1779171768 0.1753019567)
5(0.1857903373 0.1822395602 0.1787170056 0.1752252854 0.1726281508)
5(0.1837360794 0.1795498668 0.1760533606 0.1726181032 0.1700388095)
5(0.1811540581 0.1769576668 0.1734649262 0.1701003057 0.1675157056)
5(0.1785470239 0.174444428 0.1709541004 0.167644663 0.1650739387)
5(0.1758295267 0.1719932311 0.1685109219 0.1652850451 0.1627103875)
5(0.1729751406 0.1695847872 0.1661251595 0.1629879109 0.160457172)
5(0.1702681169 0.1670550701 0.163766916 0.1607677038 0.1583250319)
5(0.167735379 0.164466539 0.1612220628 0.1595014858 0.1562709933)
5(0.1651736758 0.1614609074 0.1580351305 0.1546365552 0.1526114418)
)


60
(
5(1.002952301 0.9814153047 0.9986721747 0.9874822269 0.9954143734)
5(0.9215547175 0.886782366 0.9225864935 0.9022132591 0.925655214)
5(0.8468752689 0.8092989757 0.8466751706 0.8239458488 0.8507023082)
5(0.7792706178 0.7446300356 0.7746821586 0.7542734514 0.7759921445)
5(0.7196347189 0.6896602706 0.7110916799 0.6940305732 0.708457344)
5(0.6680817033 0.642632596 0.6576112118 0.6432987029 0.6520338331)
5(0.6247056528 0.6021180127 0.6134379176 0.6002674471 0.6062485775)
5(0.5876316982 0.5669310541 0.5756573337 0.5633854778 0.5678890269)
5(0.5551342313 0.5360105447 0.5427663647 0.5312648823 0.5345934571)
5(0.5260566165 0.5084267467 0.5134955427 0.5027012695 0.5050311947)
5(0.500150994 0.4837231575 0.4873415246 0.4772391327 0.4785731895)
5(0.4767293265 0.4615295442 0.4638448122 0.4544514209 0.4549192789)
5(0.455639997 0.4414455288 0.4427480262 0.433947983 0.4338122913)
5(0.4365250364 0.423207396 0.4237003657 0.415354448 0.4147780274)
5(0.4190952577 0.4065669197 0.4063895466 0.398483886 0.3975163408)
5(0.4031031098 0.3912749284 0.3905382517 0.3830542959 0.3817765473)
5(0.3884135328 0.3772000089 0.3759801546 0.3688706366 0.3673518635)
5(0.374837505 0.3641847109 0.3625753429 0.3558131229 0.3540860601)
5(0.3622520908 0.3521313654 0.3501840421 0.343726616 0.3418425023)
5(0.3505582096 0.3409066754 0.3386910467 0.3325101863 0.3304842934)
5(0.3396494106 0.3304345895 0.3279886187 0.3220850154 0.3199621075)
5(0.3294563348 0.3206384562 0.318013852 0.312348789 0.3101551677)
5(0.319906253 0.3114618835 0.3086812383 0.3032575355 0.3009909469)
5(0.3109219196 0.3028337107 0.2999249534 0.2947484616 0.2924270927)
5(0.3024782262 0.2947186453 0.291712152 0.2867379922 0.2843883462)
5(0.2945058881 0.2870600499 0.2839583427 0.2791928994 0.2768336039)
5(0.286977 0.2798340592 0.2766629818 0.2720804056 0.2697219144)
5(0.2798565438 0.2729814737 0.269774162 0.2653708006 0.2630204079)
5(0.2731058838 0.2664888989 0.2632502783 0.2590285145 0.2566741065)
5(0.2666940302 0.2603342401 0.2570745371 0.253016098 0.2506855901)
5(0.2606023695 0.2544850354 0.2512138741 0.247315348 0.2450004815)
5(0.254805404 0.2489186553 0.2456540165 0.2419007246 0.2396141112)
5(0.249283045 0.2436170298 0.240357906 0.2367557892 0.2345013424)
5(0.2440154817 0.2385633592 0.2353212609 0.2318599705 0.2296445321)
5(0.2389913108 0.2337395253 0.2305200928 0.2271989675 0.2250229549)
5(0.234184973 0.2291364865 0.2259450746 0.2227554191 0.2206244228)
5(0.2296025745 0.2247420056 0.2215816032 0.2185264837 0.216425755)
5(0.2252138998 0.2205393259 0.2174188475 0.2144866005 0.212418201)
5(0.2210221959 0.2165357545 0.2134505595 0.2106286518 0.2086103461)
5(0.2170226161 0.2127015032 0.2096670271 0.2069561838 0.2050079087)
5(0.2132055352 0.2090570346 0.2060715367 0.2034577427 0.2016122111)
5(0.2095744466 0.205564871 0.2026294628 0.2001361572 0.1983920584)
5(0.2061083679 0.2022514056 0.1993522747 0.1969913899 0.195317621)
5(0.2028208237 0.1991132129 0.1962272143 0.19401456 0.1923546517)
5(0.1997076108 0.1961125278 0.1932614889 0.1911858263 0.1895030902)
5(0.1967673127 0.193262715 0.1904496858 0.1884753996 0.1867561711)
5(0.1939851535 0.1905507786 0.1877969134 0.1858611283 0.1840971954)
5(0.1913542849 0.1879805706 0.185278127 0.1833321259 0.1815168341)
5(0.1888555167 0.1855381413 0.1828654688 0.1808836056 0.1789993536)
5(0.186496495 0.1832242393 0.1805396102 0.1785045043 0.1765388738)
5(0.1842485235 0.1810223173 0.1782877012 0.176184828 0.1741343608)
5(0.1821166136 0.1789050786 0.1761027617 0.1739137999 0.1717743337)
5(0.1800773509 0.1768523087 0.1739718258 0.1716976325 0.1694717332)
5(0.1781312346 0.1748663058 0.1718987347 0.1695369663 0.167208285)
5(0.1762684854 0.1729302692 0.1698801433 0.1674213496 0.1649996602)
5(0.1744750981 0.1710628683 0.1679238394 0.1653640373 0.1628448802)
5(0.1727609803 0.1692710173 0.1660313976 0.1633753149 0.1607572439)
5(0.1711389215 0.167562384 0.1642297257 0.1614722961 0.1587554274)
5(0.1696732692 0.1660035158 0.1625760761 0.1597056617 0.1568901679)
5(0.1695586942 0.1655350951 0.1628549416 0.1592431252 0.1557984833)
)


60
(
5(0.9995226288 0.9785469173 0.9942879889 0.9825063541 0.9904677412)
5(0.9107456969 0.8804182372 0.9096290276 0.8917413643 0.910150584)
5(0.8340334382 0.8026580454 0.8310555942 0.8124101855 0.8314628563)
5(0.7676734648 0.7387178994 0.7608049499 0.7439776195 0.7588885586)
5(0.7099479492 0.6846251475 0.7000565699 0.6855828199 0.6951749342)
5(0.6604481437 0.6383238156 0.6489332984 0.6362235462 0.6417874833)
5(0.6183638008 0.598488575 0.6059934282 0.5943032779 0.5976807843)
5(0.5820751886 0.5637270513 0.5691734675 0.558207538 0.5603417225)
5(0.5501437785 0.5330888709 0.5369523227 0.5265936661 0.5278528426)
5(0.5217295018 0.5058473984 0.508367086 0.4985819403 0.498957056)
5(0.4962895802 0.4814567311 0.4827782934 0.4735821005 0.4732493049)
5(0.4733790568 0.4595133918 0.4598434482 0.451187566 0.4502695697)
5(0.4526530014 0.4396368817 0.4391845389 0.4310113618 0.4296528849)
5(0.433853684 0.4215709485 0.420498809 0.4127421411 0.4110557202)
5(0.416688328 0.4050699391 0.4034802792 0.3961217655 0.3941688525)
5(0.4009634856 0.3899290332 0.3879269635 0.3809084785 0.378755343)
5(0.3864592793 0.375987906 0.373623265 0.3669291744 0.3646143723)
5(0.3730694458 0.3630913198 0.3604489056 0.3540406662 0.3516124255)
5(0.360653643 0.3511290363 0.3482434904 0.3421190103 0.3395873832)
5(0.349105363 0.3399972887 0.3369256745 0.3310453561 0.3284444628)
5(0.3383423239 0.3296040075 0.3263826487 0.3207440507 0.3180844483)
5(0.3282543792 0.3198835105 0.3165505274 0.3111376547 0.3084436415)
5(0.3188123713 0.3107727744 0.307339568 0.3021408468 0.2994300783)
5(0.3099354211 0.3022123052 0.2987045002 0.2937141284 0.2909907024)
5(0.3015840729 0.2941546637 0.2905893135 0.2857938036 0.2830709374)
5(0.2936977579 0.2865536675 0.2829514772 0.2783306976 0.2756275161)
5(0.2862496799 0.2793763005 0.2757490397 0.2712983776 0.2686063586)
5(0.2792073774 0.2725737028 0.268936749 0.2646471438 0.2619869965)
5(0.272517032 0.2661346027 0.2624955088 0.2583654319 0.2557239193)
5(0.2661752933 0.2600220749 0.2563848205 0.2524039327 0.2498002619)
5(0.2601414859 0.2542052593 0.2505866321 0.2467527481 0.2441767849)
5(0.2544007026 0.2486768739 0.2450807965 0.2413831325 0.238843668)
5(0.248930186 0.2434127253 0.2398367334 0.2362716857 0.2337773725)
5(0.24371238 0.2383837647 0.2348424279 0.2314070002 0.2289580306)
5(0.238733689 0.2335893586 0.2300868655 0.2267713612 0.2243700612)
5(0.2339909401 0.2290096969 0.2255430052 0.2223505445 0.2199949594)
5(0.2294433214 0.2246373522 0.22120879 0.2181327105 0.2158208312)
5(0.2250983174 0.2204571507 0.2170724626 0.2141053708 0.2118346981)
5(0.2209500245 0.2164619389 0.2131269749 0.2102619826 0.2080450226)
5(0.2169905613 0.2126519181 0.2093630829 0.2065979803 0.2044535154)
5(0.2132202412 0.2090146209 0.2057695074 0.2031071755 0.2010533005)
5(0.2096211288 0.205544131 0.2023496665 0.1997875474 0.1978258187)
5(0.2062054112 0.2022472544 0.199091255 0.1966430581 0.1947484277)
5(0.2029675558 0.1991166033 0.1959920111 0.1936653032 0.1918046303)
5(0.1999055142 0.1961546483 0.1930561372 0.1908363037 0.1889775888)
5(0.1970184572 0.1933400074 0.1902746296 0.1881402861 0.186264833)
5(0.1943012094 0.1906727598 0.1876485058 0.1855544322 0.1836526518)
5(0.1917443291 0.1881535201 0.1851602106 0.183068712 0.1811309955)
5(0.1893356881 0.185777526 0.182789852 0.1806757363 0.1786876372)
5(0.1870616234 0.1835170411 0.1805148008 0.1783624266 0.1763094705)
5(0.1849078418 0.1813675828 0.1783226486 0.1761175241 0.1739874572)
5(0.1828584612 0.1793052911 0.1762017689 0.1739361093 0.1717275594)
5(0.1808973449 0.1773161027 0.1741507403 0.1718132162 0.169522422)
5(0.1790097246 0.1753878556 0.172162087 0.1697468932 0.1673697236)
5(0.1771898445 0.1735314742 0.1702369578 0.1677362857 0.1652652887)
5(0.1754436497 0.1717442417 0.168378591 0.1657892867 0.1632198309)
5(0.173786835 0.1700387666 0.1665995791 0.1639108403 0.1612416524)
5(0.1722535559 0.1684449323 0.1649238356 0.1621217311 0.1593531058)
5(0.1709877317 0.1670681965 0.1634352439 0.1604962514 0.1576168941)
5(0.1715508041 0.1672867272 0.1643996195 0.1608499242 0.1571149234)
)


60
(
5(1.000042442 0.9823283979 0.9945363153 0.9840927897 0.9905210587)
5(0.9069628307 0.8813422252 0.905007122 0.8899064242 0.9042083115)
5(0.829395937 0.8027521762 0.8251369451 0.8096312969 0.8238093496)
5(0.763508798 0.738735832 0.7555327654 0.7414228109 0.7519636422)
5(0.7067683201 0.6847548569 0.6960640891 0.6836026898 0.6899648307)
5(0.6580940506 0.6385675258 0.6459055024 0.63467241 0.6378410663)
5(0.6165428491 0.5987582801 0.6035169634 0.5930872084 0.594461151)
5(0.5805850504 0.5640430256 0.5670628102 0.5571882296 0.5575464826)
5(0.5489604779 0.5334549366 0.5351447775 0.5257277739 0.5253857689)
5(0.520790577 0.5062317322 0.506819001 0.4978551115 0.4968639121)
5(0.4955394378 0.4818797643 0.4815050751 0.4730091786 0.471471677)
5(0.4728166247 0.4599460588 0.4587907175 0.4507375328 0.4487504678)
5(0.452267979 0.4401064489 0.4383220359 0.430659233 0.428354855)
5(0.4335840175 0.4220619853 0.4197837082 0.4124708359 0.4099548373)
5(0.4165202463 0.4055783477 0.4028989238 0.395921593 0.3932128232)
5(0.4008735791 0.3904480697 0.3874449161 0.3807786147 0.3779380079)
5(0.3864681254 0.376508854 0.3732470801 0.3668558712 0.363919531)
5(0.3731373189 0.3636244474 0.3601585087 0.3540331948 0.3510132348)
5(0.3607887688 0.3516671076 0.3480369968 0.3421472519 0.3390917623)
5(0.3492909701 0.340544135 0.3367895305 0.3311221302 0.3280303012)
5(0.3385653408 0.3301644473 0.3263031385 0.3208484846 0.3177520102)
5(0.3285358673 0.3204460968 0.3165213939 0.3112728593 0.3081734765)
5(0.3191283545 0.3113433886 0.3073643235 0.3023051621 0.2992151425)
5(0.3102797617 0.3027923602 0.2987816702 0.29389855 0.2908269291)
5(0.3019553546 0.294741044 0.29070201 0.2859998988 0.2829425489)
5(0.2941030888 0.2871392359 0.2830969626 0.2785607991 0.2755367979)
5(0.2866810249 0.2799625656 0.2759215283 0.2715402408 0.2685571442)
5(0.2796577907 0.2731691936 0.2691419835 0.2649085562 0.2619600034)
5(0.2729969404 0.2667296336 0.2627231335 0.2586357447 0.255732334)
5(0.2666744462 0.2606180771 0.256637158 0.2526844758 0.2498202771)
5(0.2606651412 0.2548093357 0.2508603297 0.247038783 0.2442232144)
5(0.2549457099 0.2492814319 0.2453738773 0.2416734755 0.2388997596)
5(0.2494963604 0.244015952 0.2401417046 0.2365648633 0.2338426798)
5(0.2443017183 0.23899269 0.2351620096 0.2317018034 0.2290264369)
5(0.2393427727 0.2342010203 0.2304130783 0.2270635836 0.2244460767)
5(0.2346085858 0.229622077 0.2258823661 0.2226361 0.2200688375)
5(0.230086866 0.2252515781 0.2215574733 0.2184115436 0.2158934991)
5(0.2257673197 0.2210720635 0.2174241432 0.2143778748 0.2119101601)
5(0.2216437927 0.2170801397 0.2134785357 0.2105270082 0.2081114181)
5(0.2177094678 0.2132703757 0.2097119944 0.2068530066 0.2045117684)
5(0.213959454 0.2096319871 0.2061227364 0.2033507697 0.201095427)
5(0.2103956586 0.2061686543 0.2027038586 0.2000219861 0.1978509756)
5(0.2070116327 0.2028772109 0.199450778 0.1968657054 0.1947635624)
5(0.2038093618 0.1997574431 0.1963600086 0.1938787541 0.1918137786)
5(0.2007867844 0.1968043512 0.1934330821 0.1910446168 0.1889938961)
5(0.1979435825 0.1940164819 0.1906738058 0.1883510736 0.1862967558)
5(0.1952795839 0.1913892836 0.188067389 0.1857805393 0.1837117832)
5(0.192775941 0.1889113117 0.185609304 0.1833194753 0.1812296535)
5(0.190440249 0.1865782675 0.1832702468 0.1809586834 0.178829608)
5(0.1882322596 0.1843756983 0.18103506 0.1786873594 0.1765073226)
5(0.1861606186 0.182284694 0.1788926035 0.1764966007 0.1742491429)
5(0.1842008875 0.1802835701 0.1768269125 0.1743705983 0.1720506109)
5(0.1823265797 0.1783529924 0.1748321988 0.1723122956 0.1699111039)
5(0.180521888 0.1764898665 0.1729054667 0.1703135075 0.1678296477)
5(0.1787784955 0.1746946887 0.1710438467 0.1683742975 0.1658000079)
5(0.1771001699 0.1729671414 0.1692528888 0.1665006747 0.1638271108)
5(0.1755035981 0.1713300048 0.1675455154 0.1646980442 0.1619332704)
5(0.174045268 0.1698244094 0.1659618662 0.1630081127 0.1601373208)
5(0.1728961737 0.168583168 0.1646224814 0.161517859 0.1585151159)
5(0.1737491229 0.1699091878 0.1660461716 0.1620592417 0.1587474496)
)


60
(
5(1.002120817 0.9881448067 0.9966374439 0.9880054443 0.9926396525)
5(0.9060376493 0.8845910586 0.9037641356 0.8912657588 0.9021938808)
5(0.8278510961 0.8051017839 0.8230264961 0.8100972246 0.8206382209)
5(0.7622822775 0.7408639401 0.7537612744 0.7418186213 0.7491914875)
5(0.7060640203 0.6867878296 0.6949395089 0.6841729274 0.6880318485)
5(0.6578370634 0.6404997345 0.6453064179 0.6353910113 0.6365931656)
5(0.6165944415 0.6006313646 0.6032199994 0.5938734561 0.5936017495)
5(0.5808286247 0.5658439587 0.5669567342 0.557981239 0.5569015398)
5(0.5493299655 0.5351779866 0.5351857919 0.5265550468 0.5249098249)
5(0.5212836052 0.507927129 0.5069942732 0.4987076766 0.4965668691)
5(0.4961403055 0.4835081784 0.4817972165 0.4738818892 0.4713206851)
5(0.473504411 0.4615427556 0.4591841891 0.4516136645 0.4487344729)
5(0.4530155166 0.4416635066 0.438791541 0.4315588476 0.4284474219)
5(0.4344074055 0.4235731246 0.4203242115 0.4133789904 0.4101146391)
5(0.4173813053 0.4070508701 0.4034950294 0.3968313475 0.3934601927)
5(0.4017628687 0.391884763 0.3881003891 0.3816857666 0.3782430628)
5(0.3873812213 0.3779205398 0.3739336847 0.3677724419 0.3642747652)
5(0.3740809731 0.3650053597 0.3608681285 0.3549496887 0.351413659)
5(0.3617435894 0.3530243143 0.3487807267 0.3430586239 0.3395243245)
5(0.350265985 0.3418769315 0.3375497968 0.332030451 0.3284983057)
5(0.3395528925 0.331472278 0.3270855703 0.3217606505 0.3182418161)
5(0.3295257985 0.3217368869 0.3173191037 0.3121720672 0.308686146)
5(0.3201277712 0.3126148762 0.3081778661 0.3032056803 0.2997460231)
5(0.3112956854 0.3040410172 0.2995991068 0.2947967849 0.2913731132)
5(0.3029753345 0.2959691827 0.2915321613 0.2868882464 0.2835069723)
5(0.2951289231 0.28836079 0.2839352916 0.2794400882 0.2761068999)
5(0.287709761 0.2811620315 0.2767665871 0.2724132422 0.2691265985)
5(0.2806898822 0.2743546539 0.2699908831 0.2657741685 0.2625368968)
5(0.2740339822 0.2679042835 0.2635741632 0.2594873312 0.2563051664)
5(0.2677182547 0.2617795675 0.2574909163 0.2535299595 0.2504004073)
5(0.2617126816 0.2559556547 0.2517152936 0.2478738387 0.2447972682)
5(0.2559970545 0.2504167035 0.2462255011 0.2424968984 0.2394785852)
5(0.2505533607 0.2451385632 0.2409973085 0.2373770706 0.234409802)
5(0.2453638436 0.240109829 0.2360131057 0.2325005776 0.2295893098)
5(0.2404151834 0.2353083215 0.2312632424 0.2278490348 0.2249951228)
5(0.2356914045 0.2307216785 0.2267269572 0.2234091788 0.2206111189)
5(0.2311804511 0.2263446697 0.2223962381 0.2191716757 0.21642471)
5(0.2268752728 0.2221611557 0.2182605794 0.2151215626 0.2124281926)
5(0.2227673768 0.2181612005 0.2143096973 0.2112543235 0.2086167898)
5(0.2188519506 0.214347326 0.2105412972 0.2075627732 0.2049947772)
5(0.2151256704 0.2107092842 0.2069452466 0.2040429647 0.201560966)
5(0.2115857434 0.2072490042 0.2035208225 0.200697522 0.198297507)
5(0.2082332122 0.2039624567 0.2002664449 0.1975233377 0.1951886327)
5(0.205064378 0.2008483815 0.1971778149 0.1945198731 0.1922257354)
5(0.2020802676 0.1979096271 0.1942580739 0.1916750903 0.1893994908)
5(0.1992702823 0.1951387932 0.1915042642 0.1889758432 0.1867064393)
5(0.196639401 0.1925345101 0.1889158301 0.186411417 0.1841347165)
5(0.1941742591 0.1900920068 0.1864799805 0.1839692195 0.1816720678)
5(0.1918757173 0.1878016871 0.1841778484 0.1816333196 0.1793047815)
5(0.1897271682 0.1856526566 0.1819865603 0.1793995567 0.1770229259)
5(0.1877156016 0.1836218757 0.1798962725 0.1772514442 0.1748128589)
5(0.1858249524 0.181692389 0.1778923788 0.1751792107 0.1726692119)
5(0.1840401372 0.1798429876 0.1759595656 0.1731756213 0.1705878408)
5(0.182340334 0.1780633398 0.1740928686 0.1712301324 0.1685605195)
5(0.1807120725 0.1763491373 0.1722919868 0.1693489227 0.1665933341)
5(0.1791450246 0.1747034298 0.1705656296 0.1675386933 0.1646883588)
5(0.1776620776 0.1731442746 0.1689275782 0.1658110971 0.1628649393)
5(0.1763112108 0.1717216372 0.1674354982 0.1642020518 0.1611480845)
5(0.1752702799 0.1706053526 0.1662393215 0.1628326849 0.1596377877)
5(0.1763654847 0.1720106066 0.1682690868 0.1639852906 0.1606517536)
)


60
(
5(1.004625242 0.9941994135 0.9993572239 0.9925715568 0.9954541455)
5(0.9062400355 0.8884087312 0.9039877708 0.8937569675 0.9018975035)
5(0.8275703832 0.808123866 0.8225950979 0.811825962 0.8194564335)
5(0.7622292468 0.7435964937 0.7535067512 0.7433775678 0.7482505924)
5(0.7063824081 0.6893841947 0.6951035505 0.6857612135 0.6876176703)
5(0.6584633068 0.6429995475 0.6458022798 0.6370179848 0.6365932962)
5(0.6173983211 0.603031433 0.6039222189 0.5954842674 0.5938338415)
5(0.5817627944 0.5681416944 0.5677574711 0.5595671024 0.5572633879)
5(0.5503506884 0.5374021585 0.5360815318 0.5281014954 0.5253679282)
5(0.5223766317 0.5100573385 0.5079513261 0.5002346719 0.4971132556)
5(0.4972998844 0.4855933926 0.4828309025 0.4753854851 0.4719563243)
5(0.4747045833 0.4635566851 0.4602617205 0.4531009227 0.4494334406)
5(0.4542571483 0.4436187254 0.4399143544 0.4330185703 0.4292030598)
5(0.4356525261 0.4254830281 0.4214684058 0.4148182342 0.4109042134)
5(0.4186581764 0.4089080914 0.4046610968 0.3982438746 0.3942790532)
5(0.4030556844 0.3937004596 0.389272622 0.383075054 0.3790789713)
5(0.3886766407 0.3796854328 0.3751219441 0.3691423567 0.3651370654)
5(0.3753830253 0.3667343766 0.3620699297 0.3562843776 0.3522884246)
5(0.3630442729 0.3547160662 0.3499796903 0.3443862829 0.3404098234)
5(0.351567083 0.3435336367 0.3387524159 0.3333346052 0.3293916084)
5(0.340852148 0.3330973864 0.3282904365 0.3230426862 0.3191410851)
5(0.3308227115 0.3233329716 0.3185186231 0.3134403145 0.3095825786)
5(0.321421979 0.3141790568 0.3093737323 0.3044544686 0.3006431257)
5(0.3125838984 0.305579075 0.3007905285 0.2960246274 0.2922666393)
5(0.3042586678 0.2974830386 0.2927194279 0.2880981138 0.2843994492)
5(0.2964071391 0.2898438017 0.2851167327 0.2806317227 0.2769934718)
5(0.2889878056 0.2826279993 0.2779425372 0.2735857041 0.2700112754)
5(0.281962357 0.2757986542 0.2711575424 0.2669298823 0.2634182566)
5(0.2753000706 0.2693256689 0.2647339904 0.260627097 0.2571760645)
5(0.2689799415 0.2631800657 0.2586435186 0.2546501869 0.2512591191)
5(0.2629735727 0.2573425414 0.2528606167 0.2489772218 0.2456466037)
5(0.2572594695 0.2517895604 0.2473585808 0.2435828323 0.2403120317)
5(0.2518161417 0.2464945292 0.2421237448 0.2384466677 0.235236249)
5(0.2466269638 0.2414506358 0.2371335746 0.2335516997 0.2304042599)
5(0.2416811686 0.2366381616 0.2323765043 0.2288836101 0.2257962158)
5(0.2369632974 0.2320442519 0.2278349134 0.2244291091 0.221398874)
5(0.2324638129 0.2276585333 0.2234952347 0.2201738006 0.2171972949)
5(0.2281715432 0.2234666637 0.2193535421 0.216108496 0.2131835693)
5(0.2240814266 0.2194658808 0.2153974916 0.2122238535 0.2093575572)
5(0.2201872733 0.2156529166 0.2116205235 0.2085173478 0.2057170986)
5(0.216485773 0.2120160767 0.2080233346 0.2049803919 0.2022621723)
5(0.2129764835 0.2085601743 0.2045942452 0.2016176576 0.1989756135)
5(0.2096553371 0.2052827036 0.2013400352 0.1984279028 0.1958488378)
5(0.2065162974 0.2021786412 0.1982506916 0.1954077122 0.1928709209)
5(0.2035566247 0.1992515686 0.1953367344 0.192549606 0.1900349019)
5(0.2007756789 0.1964962558 0.1925936645 0.1898445346 0.1873360288)
5(0.1981706601 0.1939115568 0.1900214431 0.1872805141 0.1847705435)
5(0.1957329241 0.1914949561 0.1876119312 0.1848516158 0.1823241032)
5(0.193455892 0.1892375478 0.1853357223 0.1825441794 0.1799834254)
5(0.1913347351 0.1871293031 0.1831926608 0.1803459745 0.1777366477)
5(0.1893576364 0.185148582 0.1811634918 0.1782478119 0.1755772202)
5(0.1875153623 0.1832861595 0.1792304837 0.1762315865 0.1734791093)
5(0.1857921711 0.1815220868 0.1773814157 0.1742883039 0.1714513868)
5(0.1841771631 0.1798465872 0.1756047586 0.1724124871 0.1694861375)
5(0.1826509721 0.1782440772 0.1738940664 0.1705977167 0.1675806939)
5(0.1812132072 0.1767213147 0.1722543861 0.1688542699 0.1657443349)
5(0.1798705768 0.1752866038 0.1707088081 0.1672053104 0.1639888851)
5(0.1786696434 0.1739920527 0.1693237964 0.165697583 0.1623609347)
5(0.1777724974 0.1729967505 0.1682980804 0.1644998627 0.1609892207)
5(0.1790293534 0.1746746629 0.1704127105 0.1660246878 0.1622677318)
)


60
(
5(1.00703184 0.9996841005 1.002059164 0.9969059657 0.9983295538)
5(0.9066978037 0.8919438105 0.9047513288 0.8964879627 0.9023760802)
5(0.8276440324 0.8109640012 0.8228661339 0.8139812647 0.8193058049)
5(0.7624986137 0.7462201425 0.7539403422 0.7453974207 0.7482606241)
5(0.7069192708 0.6919001189 0.6958567624 0.6878086062 0.688044945)
5(0.6592235332 0.6454285879 0.6468183922 0.6390691982 0.6373482865)
5(0.6183112427 0.6053744063 0.6050863647 0.597525729 0.5947407724)
5(0.5827743286 0.5704135036 0.5690072511 0.5615649584 0.5582812934)
5(0.5514234884 0.5395966147 0.5373924313 0.530070809 0.5264393194)
5(0.5235135898 0.5121939485 0.5093130584 0.5021605867 0.4982527535)
5(0.4984774019 0.4876660035 0.4842336077 0.4772858276 0.4731395155)
5(0.4759246578 0.4655757868 0.4616939583 0.4549674628 0.4506612917)
5(0.4554935206 0.4455885491 0.4413689672 0.4348523661 0.4304495947)
5(0.436911762 0.4273960144 0.4229303035 0.4166167662 0.4121727921)
5(0.419923245 0.410780146 0.4061316884 0.4000096288 0.3955510596)
5(0.4043246756 0.395524334 0.3907416149 0.3848086331 0.3803562396)
5(0.3899516631 0.3814760233 0.3765907908 0.3708425165 0.3664119197)
5(0.3766521158 0.3684822034 0.363533264 0.3579537382 0.3535626137)
5(0.3643173913 0.3564277029 0.3514368497 0.3460266577 0.3416799651)
5(0.3528334206 0.3452132847 0.3402029501 0.3349455584 0.3306549228)
5(0.3421166599 0.3347417783 0.3297290163 0.3246273427 0.3203935823)
5(0.3320840041 0.3249506274 0.3199500727 0.3149965621 0.3108270952)
5(0.3226710484 0.3157685221 0.3107909983 0.3059812637 0.3018768668)
5(0.3138300772 0.3071403068 0.3021965336 0.2975273006 0.2934886512)
5(0.3055018204 0.299016577 0.2941141691 0.2895755313 0.2856075568)
5(0.2976402491 0.2913572772 0.2864974281 0.28208591 0.2781862613)
5(0.2902155552 0.284115368 0.2793101142 0.2750174542 0.271191357)
5(0.2831842467 0.2772652691 0.2725104776 0.2683348445 0.2645812061)
5(0.2765199347 0.2707712457 0.2660776673 0.2620108544 0.2583232286)
5(0.2701967698 0.2646089651 0.2599742059 0.2560100994 0.2523964344)
5(0.2641896427 0.2587539227 0.2541788383 0.2503190163 0.2467673452)
5(0.2584704562 0.253182007 0.2486660967 0.2449025992 0.241418259)
5(0.2530278066 0.2478772652 0.243419321 0.2397478014 0.2363271811)
5(0.2478463741 0.2428211371 0.23842151 0.2348337578 0.2314786545)
5(0.2429076891 0.2379983064 0.2336504749 0.2301470636 0.2268530143)
5(0.2382001236 0.2333987341 0.2291024829 0.2256739468 0.2224370946)
5(0.2337138585 0.2290041965 0.2247558909 0.2214005539 0.2182207965)
5(0.229439976 0.2248146998 0.2206075598 0.2173178301 0.2141905623)
5(0.2253726528 0.2208153171 0.2166472704 0.2134192806 0.2103446124)
5(0.2215055672 0.217004457 0.2128680769 0.2096978741 0.2066871614)
5(0.2178349448 0.2133785746 0.2092681625 0.2061438768 0.2032095777)
5(0.2143550074 0.2099333017 0.2058421875 0.2027669035 0.1999020072)
5(0.2110641946 0.2066701155 0.2025858843 0.1995592488 0.1967549281)
5(0.2079599893 0.2035831264 0.1995042876 0.1965276637 0.1937572613)
5(0.2050331155 0.2006713784 0.1965957123 0.1936594914 0.190909057)
5(0.2022793717 0.197931951 0.1938633935 0.1909467264 0.1882032809)
5(0.1996941653 0.1953694837 0.1913048825 0.1883853664 0.1856407622)
5(0.1972714912 0.1929692139 0.1889084459 0.1859674504 0.1832064426)
5(0.1950111379 0.1907313433 0.1866661182 0.1836812679 0.180888004)
5(0.1929051225 0.188649471 0.1845641782 0.1815256004 0.1786766161)
5(0.1909459163 0.1867009469 0.1825894311 0.1794791984 0.1765583659)
5(0.1891304494 0.1848831674 0.1807289997 0.177529736 0.1745224811)
5(0.1874343772 0.1831847988 0.1789719929 0.1756705129 0.1725564609)
5(0.1858603954 0.1815897058 0.1773033765 0.1738754332 0.1706583559)
5(0.1843986621 0.1800968255 0.1757109989 0.1721570465 0.1688219545)
5(0.1830511649 0.1787016534 0.1742008765 0.1705153868 0.1670593095)
5(0.1818226392 0.177415545 0.1727963514 0.1689739243 0.1653932165)
5(0.1807531526 0.1762785534 0.1715525457 0.1675915394 0.1638740007)
5(0.1800047853 0.1754507502 0.1706926729 0.1665608356 0.1626670066)
5(0.1813946072 0.1770758028 0.1731289905 0.1687679489 0.1649708576)
)


60
(
5(1.00906059 1.004264988 1.004431179 1.00058373 1.000846162)
5(0.907067322 0.894777722 0.905518109 0.8989466051 0.9030129936)
5(0.8277006701 0.8132197679 0.8232750732 0.8160288722 0.8195503311)
5(0.7626818668 0.7483372777 0.7544769328 0.7473929878 0.7487265199)
5(0.7073326878 0.6939843136 0.6966811004 0.6898368394 0.6888706097)
5(0.659842089 0.6474412201 0.6478902047 0.6411583647 0.6384512908)
5(0.6190708998 0.6073466554 0.6062663973 0.5995940816 0.5960113774)
5(0.5836130107 0.5723383921 0.5702852798 0.5636327009 0.5596291676)
5(0.5523415663 0.5414778568 0.5387092866 0.5320946918 0.5278531097)
5(0.5244719197 0.5140364315 0.5106964532 0.5041769637 0.4997088155)
5(0.4994886152 0.4894663775 0.4856356276 0.4792584106 0.4746421029)
5(0.4769586796 0.4673415799 0.4631371932 0.4569241254 0.4521831054)