/*--------------------------------*- C++ -*----------------------------------*\
| =========                 |                                                 |
| \\      /  F ield         | OpenFOAM: The Open Source CFD Toolbox           |
|  \\    /   O peration     | Version:  2.3.1                                 |
|   \\  /    A nd           | Web:      www.OpenFOAM.org                      |
|    \\/     M anipulation  |                                                 |
\*---------------------------------------------------------------------------*/
FoamFile
{
    version     2.0;
    format      ascii;
    class       dictionary;
    location    "constant";
    object      rO2;
}
// * * * * * * * * * * * * * * * * * * * * * * * * * * * * * * * * * * * * * //

rO2_table
60
(

60
(
5(0.9797989811 0.5437476467 2.714690493 2.189856045 3.829386488)
5(0.3495432222 0.07734492876 0.8307022892 0.7381076478 1.408779689)
5(-16.4158627 0.1438887985 0.316383506 0.2548302864 0.001441715655)
5(-45.80027741 0.1577474371 0.3361475012 0.09472868453 0.5995728807)
5(-33.4841909 0.1245294739 0.2807152468 0.2055091949 0.3344087397)
5(-14.5736559 0.09497634875 0.07892854805 0.160255398 0.1200569585)
5(0.09126797899 0.08237606723 0.06098735844 0.08479871893 0.1970585008)
5(0.04833506954 0.08768848947 0.1322039639 0.1092417354 0.05775950487)
5(-8.057443868 0.1010047596 -0.02043191782 0.132741304 0.1232058001)
5(-7.878131544 -0.2552098631 -0.001709791872 0.0853480004 0.1184929836)
5(-5.671131668 -0.4128577737 0.05786709837 0.036582599 0.107090459)
5(-3.214615121 0.1277640906 0.1092241577 0.1078756774 -0.03660365518)
5(0.09798149011 0.1381518509 0.134966119 0.08951010296 -0.006820819704)
5(0.1218956678 0.1528239747 0.1448296247 0.0981684643 -0.02451533684)
5(0.1253346575 0.1648476341 0.1544747542 0.0974229455 -0.008304568)
5(-0.115991333 -0.1479823568 0.02465533703 -0.02492201241 -0.07371692321)
5(-0.04071467008 -0.005119452665 0.02667334677 0.075821816 -0.04911559627)
5(0.1229632609 0.1265866747 0.2226614896 0.1448245926 -0.05857174938)
5(0.2184247115 0.2464638381 0.2674607814 0.1623098222 -0.05662919255)
5(0.2556998547 0.3345312043 0.3063781543 0.1616719062 -0.05673825045)
5(0.2855650875 0.366169326 0.326149022 0.1574463559 -0.1421572001)
5(0.316104305 0.3802103536 0.363900306 0.138171726 -0.1829064234)
5(0.3486232759 0.3850461578 0.3415210942 0.03612615481 -0.3965684601)
5(0.3539061579 0.3665339948 0.2537972667 -0.08296616038 -0.5474185615)
5(0.3582912032 0.4066356599 0.1355496901 -0.2915332135 -0.798862562)
5(0.3151285315 0.4776363042 -0.06025515849 -0.6059489997 -1.10498326)
5(0.2288464425 0.2953013465 -0.2516446984 -0.9648863554 -1.442800342)
5(0.1193741227 -0.1217236493 -0.5884452563 -1.349804618 -1.741020535)
5(-0.07418660486 -0.394223301 -0.8839871122 -1.692778699 -2.064529659)
5(-0.3092974239 -0.7564753924 -1.219846922 -1.948184244 -2.313622216)
5(-0.6533511333 -1.199961367 -1.763119125 -2.40399837 -2.70074945)
5(-1.052246689 -1.638851563 -2.146860471 -2.493306761 -2.419241173)
5(-1.5450994 -2.264925254 -2.81633147 -2.933954233 -3.241211259)
5(-2.208997335 -3.093740287 -3.700208943 -3.232241747 -2.597429573)
5(-3.066107271 -3.93284604 -4.352476389 -3.616042139 -4.443588811)
5(-4.107345252 -5.31128019 -5.816875739 -4.074667055 -5.328636764)
5(-5.419702551 -5.874609093 -5.230538526 -3.825152241 -3.057328826)
5(-6.990751413 -7.592732368 -5.976727976 -4.477054162 -2.610654811)
5(-9.003540098 -8.699200324 -7.376121458 -4.293428409 -4.508176779)
5(-11.72255723 -10.08760633 -8.039420247 -4.383969542 -1.047257307)
5(-13.66604132 -10.32767281 -6.285875262 -7.223721231 -2.3785989)
5(-14.71956303 -10.74620905 -6.024822009 -32.52187998 -0.0009918946659)
5(-15.78449433 -9.167381503 -5.252279028 0.0001381411326 -0.002746492899)
5(-16.50293542 -8.618816569 -9.019349507 -0.001618031164 -2.497441655)
5(-16.30540325 -6.449543027 -11.15984088 -0.0009813843812 -0.2816094744)
5(-13.64903574 -6.704196661 -4.313118977 -0.002970421989 -0.007719964365)
5(-10.89199937 -9.738959316 -28.06663345 -0.241188634 -0.009209254474)
5(-14.2667737 -2.662807837 -3.933911317 -0.005524208991 -0.01135795592)
5(-7.216203316 -2.475646364 -0.2313556699 -0.009567284932 -0.01413539247)
5(-5.652792534 -1.632285999 -0.01365596847 -0.006558794048 -0.01766558214)
5(-16.1143949 -0.001477222047 -0.002349069004 -0.01287545035 -0.03589897589)
5(-34.61818542 -0.002699147863 -0.007016700191 -0.01273605915 -0.03067700021)
5(-4.919293634 -0.03674305416 -0.00081079565 -0.006369079722 -0.01646839626)
5(0.001369242708 -0.01747279392 -0.01894540353 -0.02447672306 -0.04230100713)
5(0.0007302131227 -0.02986429072 -0.007543485884 -0.007131329789 -0.01754004971)
5(-9.370505737 -0.008599745377 0.0003680122198 -0.03437769928 -0.004281100825)
5(-30.72256309 -0.003222509384 0.001967772222 -0.01473646495 -0.01035464761)
5(-35.22315807 -14.44439 -0.01080613954 -0.1320976947 -0.5336948037)
5(-24.05304055 -20.44542644 -12.35796659 -0.09325080043 -0.3984930598)
5(0.01838618922 0.02577775372 0.03571643678 0.05308939542 0.05155175268)
)


60
(
5(1.99662277 1.99418819 4.990198698 4.81315082 3.362624958)
5(1.276253566 1.586317012 2.954697248 3.123349982 3.299045993)
5(0.9081412403 1.259888895 1.925044211 1.979324024 2.033091491)
5(0.7364550623 0.9724307527 1.329663721 1.008324433 0.8373953933)
5(0.6152817204 0.6953922215 0.7878883193 0.09456448538 -0.5896222567)
5(0.5173986649 0.4032441667 0.1886212157 -0.9008199677 -2.297524291)
5(0.372048725 0.08192904983 -0.4433434422 -1.844147559 -3.73058879)
5(0.1999373135 -0.2590318795 -1.052162464 -2.70867262 -4.8477751)
5(0.01417984357 -0.6053793352 -1.642475624 -3.525760357 -5.814046927)
5(-0.1453900926 -0.9276395596 -2.169142849 -4.22600217 -6.882102561)
5(-0.3664715078 -1.224391897 -2.676538883 -4.855942224 -7.728123547)
5(-0.5217654494 -1.492068338 -3.105139161 -5.40595162 -8.453500678)
5(-0.6696809249 -1.696165208 -3.45631197 -5.87078086 -9.212301429)
5(-0.7978741355 -1.848383526 -3.723553649 -6.204471776 -9.739012973)
5(-0.8790116024 -1.942576445 -3.909889632 -6.493677421 -10.21732101)
5(-0.8904396389 -1.977730273 -4.024486689 -6.769418417 -10.74412305)
5(-0.9440579902 -2.022123436 -4.150358569 -7.0932065 -11.39086387)
5(-0.9591529463 -2.104750586 -4.380871481 -7.625002223 -12.19295034)
5(-1.013952181 -2.339666582 -4.795387608 -8.434627122 -13.37089281)
5(-1.180884741 -2.788783423 -5.55689015 -9.674093589 -14.91764526)
5(-1.549495195 -3.558783361 -6.730933799 -11.4977938 -17.20957284)
5(-2.219012952 -4.758950643 -8.492036092 -13.90503405 -20.11289073)
5(-3.230950177 -6.540826846 -10.96756562 -17.08006543 -23.69735515)
5(-4.653285862 -8.961083546 -14.15509788 -21.13493723 -28.15981426)
5(-6.815476574 -12.25508251 -18.34554601 -26.04304083 -33.3392631)
5(-9.538377772 -16.3559324 -23.3801468 -31.82212527 -39.18446905)
5(-13.14229113 -21.46856038 -29.50382948 -38.42394684 -45.68127862)
5(-17.72669978 -27.41536231 -36.64465505 -45.85150642 -52.89983578)
5(-23.35136993 -34.43518059 -44.71345271 -54.00235728 -59.88621115)
5(-29.98483238 -42.71673286 -53.7890848 -62.65028276 -67.58861968)
5(-37.99018136 -52.14581764 -63.63245139 -71.8373611 -74.90198189)
5(-47.43053614 -62.75190637 -74.79229768 -81.50310278 -82.44775406)
5(-58.53730642 -74.91827657 -86.59877857 -91.5884524 -89.76944057)
5(-71.39346063 -88.74239538 -99.92721355 -101.962161 -96.96416978)
5(-86.78623179 -103.9396489 -113.9323842 -112.9057758 -103.3070037)
5(-103.8325971 -121.3994551 -129.5762119 -123.9845224 -110.0577179)
5(-125.055253 -140.808448 -146.0370954 -135.5883053 -116.2347104)
5(-147.8187389 -161.0712635 -162.2403462 -145.734852 -121.0965835)
5(-173.7549856 -184.8347771 -178.7751588 -154.4602356 -123.5040578)
5(-203.199891 -206.3851933 -194.1323707 -161.233345 -121.8970851)
5(-233.7465861 -230.0067035 -209.251727 -163.3468278 -116.6866348)
5(-266.194302 -245.9291558 -215.8351995 -158.7303066 -106.4139183)
5(-290.7693861 -257.6526315 -217.566959 -147.9923278 -94.62748761)
5(-310.6850475 -265.3681321 -210.4602022 -135.1194454 -81.35176393)
5(-321.0746146 -258.4713749 -196.8542559 -120.2180445 -68.4135784)
5(-322.032154 -245.189446 -173.4608755 -103.2703069 -55.97700186)
5(-310.7461247 -220.3364535 -148.1757394 -86.45526838 -46.24528379)
5(-284.9517536 -190.5586717 -124.8562458 -71.46823805 -39.61337738)
5(-243.8251139 -153.8969481 -104.7592094 -59.77459608 -33.3341985)
5(-209.9122318 -126.7817019 -87.69974042 -49.93656542 -29.58312141)
5(-170.054407 -108.6907437 -73.3675637 -43.1077012 -27.91961566)
5(-144.0267784 -93.19784209 -63.20819838 -37.30784046 -24.54050258)
5(-111.5911331 -76.48585675 -52.9963163 -33.59527231 -26.91522219)
5(-87.78579817 -65.63574548 -44.62104406 -30.18211189 -22.45098578)
5(-73.78403253 -50.83075078 -38.35058362 -27.68580561 -22.31626848)
5(-55.19753614 -42.12424413 -33.97441323 -26.58480247 -22.51231418)
5(-43.28576382 -35.46230341 -30.02392956 -26.38355501 -24.74521436)
5(-29.56899263 -30.96023833 -29.29898657 -28.38946581 -25.22615341)
5(-36.12079843 -30.11473739 -25.68591661 -26.25894854 -30.78641689)
5(-16.49100694 -21.34855428 -65.36758383 -30.39187482 -32.27239959)
)


60
(
5(3.14836956 3.615119713 6.735837024 5.72933873 -1.947790549)
5(2.297929161 2.995602883 4.404913263 3.738086895 1.190253452)
5(1.737632364 2.174388015 2.903031292 1.727042578 -0.1907214925)
5(1.317478173 1.344312689 1.454778436 -0.5116795353 -3.091803054)
5(0.9374995065 0.5139069766 -0.08511285011 -2.856190332 -6.370565414)
5(0.5052361038 -0.3529479811 -1.759745299 -5.194713126 -9.987008635)
5(0.008118773266 -1.260075155 -3.419023538 -7.351161842 -12.82563086)
5(-0.515516528 -2.146619907 -4.877448881 -9.236363579 -15.10586121)
5(-1.007785874 -3.00143322 -6.15024365 -10.88192556 -17.08187584)
5(-1.531229528 -3.789455721 -7.288449926 -12.34245229 -18.8401957)
5(-2.036193396 -4.495744984 -8.296257755 -13.6180506 -20.51160908)
5(-2.541760621 -5.105133371 -9.185999419 -14.71375309 -22.00070091)
5(-2.910351897 -5.587126369 -9.906859075 -15.60077863 -23.18922349)
5(-3.216988041 -5.95919729 -10.48750514 -16.31805157 -24.10726979)
5(-3.479001538 -6.252709344 -10.92022252 -16.94385295 -25.01301721)
5(-3.743523432 -6.502903156 -11.34557136 -17.57445969 -25.90092463)
5(-3.87387455 -6.815700584 -11.82674044 -18.37344306 -27.01637256)
5(-4.090579606 -7.265932815 -12.59673862 -19.58251381 -28.65279693)
5(-4.482600042 -8.026398227 -13.75829917 -21.40771217 -30.97451308)
5(-5.149586567 -9.274399014 -15.62030791 -24.0724933 -34.21590399)
5(-6.312133555 -11.21025939 -18.33199838 -27.82082978 -38.56146234)
5(-7.948371926 -14.02137869 -22.19716173 -32.87733511 -44.3727212)
5(-10.44649591 -17.93313209 -27.39341569 -39.37692271 -51.62767014)
5(-13.99851898 -23.19585855 -34.17352995 -47.55099099 -60.42711765)
5(-18.77324181 -30.02550352 -42.65533145 -57.43302307 -70.69588617)
5(-24.83061109 -38.48278599 -52.93460497 -68.86426515 -82.66874286)
5(-32.55725367 -48.81405976 -65.17892417 -82.2917348 -95.59556578)
5(-42.36152392 -61.01707521 -79.48200647 -97.16865079 -110.0182811)
5(-53.59440389 -75.3637583 -95.74625017 -113.7745695 -124.9800578)
5(-67.45266617 -91.94472564 -113.6776502 -131.4729507 -140.9222301)
5(-83.23325623 -110.5817943 -133.7344849 -150.640157 -157.2905171)
5(-101.8297694 -131.6167494 -155.9969478 -170.8651205 -173.929239)
5(-123.1608557 -155.5664056 -180.1009547 -192.0416549 -191.0800796)
5(-147.5290737 -182.0599847 -206.0502429 -214.9231898 -207.9776909)
5(-175.8199287 -211.8882333 -234.7269741 -238.9385155 -225.0398028)
5(-209.986964 -244.9969337 -265.4577495 -263.6909054 -241.0955792)
5(-246.2680895 -282.3506055 -298.7081395 -289.1638596 -258.0059465)
5(-287.0890715 -322.9213242 -334.0166271 -314.6447811 -272.626193)
5(-333.2213957 -365.6686277 -370.9898852 -339.1208355 -285.0939384)
5(-384.9969659 -411.7148588 -406.8927778 -360.7139086 -291.7041036)
5(-441.991293 -458.4693041 -438.6079324 -376.4545768 -290.6039559)
5(-494.678258 -499.8462151 -466.256953 -383.2082399 -280.6620199)
5(-548.4413086 -535.0094006 -483.6608274 -379.1205277 -264.2913118)
5(-591.9044118 -557.5992205 -486.9491008 -362.4782097 -242.9543918)
5(-623.6212033 -567.0343556 -475.1679383 -334.4883885 -215.1996)
5(-634.2321121 -553.3333852 -444.5228894 -299.5599771 -187.0360602)
5(-623.133591 -522.3173973 -400.7163388 -258.7921884 -160.6974405)
5(-588.9587716 -473.4189115 -350.1555194 -219.9096149 -136.1467841)
5(-536.639316 -416.2869381 -297.5510987 -186.402979 -116.4966912)
5(-468.1707509 -351.4717183 -248.5358259 -158.4020942 -101.5990736)
5(-396.7965187 -295.1018505 -207.7600926 -136.5026349 -89.2432059)
5(-327.9522763 -245.6938196 -175.0020727 -119.1095028 -81.48613041)
5(-268.6003209 -203.5608496 -150.0146371 -106.2091386 -74.03321208)
5(-226.404006 -169.2137607 -129.4162516 -94.54895245 -73.67462991)
5(-180.0540209 -144.3754036 -113.1752729 -85.61689206 -66.69329399)
5(-156.3828313 -121.8097454 -100.0329371 -79.55410496 -65.4222147)
5(-127.013773 -104.882701 -91.16316113 -75.4858026 -64.71530115)
5(-105.9046618 -92.41579888 -83.21262395 -75.25966753 -65.75808914)
5(-86.57259341 -81.40659869 -73.38455654 -71.50793023 -70.96880757)
5(-64.52744373 -67.48316878 -116.1344405 -74.78237298 -74.54612501)
)


60
(
5(4.378952288 5.31417254 7.525059345 4.012560859 -13.02218733)
5(3.417738771 4.361979075 5.161886368 2.36360434 -5.46078683)
5(2.528534404 2.7815643 2.840246592 -0.6832911366 -6.76531194)
5(1.740366106 1.141592082 0.2058303929 -4.42909918 -10.93638706)
5(0.9107565943 -0.4712166183 -2.635807278 -8.337249679 -16.09359025)
5(-0.02540429654 -2.110775316 -5.590003362 -12.19666502 -21.52892946)
5(-1.008031019 -3.772676225 -8.381224745 -15.72372046 -25.88297554)
5(-1.978439361 -5.340038651 -10.77724165 -18.71010685 -29.24832774)
5(-2.921181625 -6.810127008 -12.83617678 -21.28554569 -32.18946796)
5(-3.885049279 -8.145142004 -14.65813858 -23.53654352 -34.8547877)
5(-4.793959783 -9.344775402 -16.27499353 -25.48928331 -37.25430248)
5(-5.619492413 -10.36085374 -17.6844025 -27.12699816 -39.17717675)
5(-6.346642325 -11.21066489 -18.86204595 -28.44788352 -40.74034224)
5(-6.892601655 -11.87764169 -19.77996347 -29.47277493 -41.91556306)
5(-7.388306847 -12.43710807 -20.53069154 -30.37880577 -42.85455849)
5(-7.817238541 -12.97692055 -21.2604819 -31.33699827 -43.9156148)
5(-8.310557082 -13.60686988 -22.14519875 -32.53383767 -45.38954226)
5(-8.815629161 -14.5072286 -23.43758327 -34.35288387 -47.54348341)
5(-9.743056683 -15.89522035 -25.39290396 -37.06136938 -50.92744017)
5(-10.95510335 -18.03657799 -28.36521831 -41.13205777 -55.68607291)
5(-12.93530215 -21.20664235 -32.65794471 -46.80560918 -62.23909011)
5(-16.06693544 -25.74709464 -38.73945055 -54.46420176 -71.04234631)
5(-20.31647282 -32.00762457 -46.77877454 -64.31043734 -82.10296038)
5(-25.82546568 -40.19619633 -57.21886018 -76.68258232 -95.57360166)
5(-33.39072289 -50.61904815 -70.22759618 -91.66161609 -111.1660729)
5(-43.11798056 -63.55721359 -86.02526824 -109.354032 -129.5324546)
5(-55.26662432 -79.34827507 -104.6263869 -129.653469 -150.0356489)
5(-70.04733411 -97.95204165 -126.324553 -152.6065801 -172.2101245)
5(-87.74607827 -119.5446328 -150.937783 -178.0816144 -196.8626574)
5(-108.6892392 -144.4011469 -178.4573962 -205.7252618 -222.0357352)
5(-133.0212524 -172.6523619 -208.9620747 -235.744315 -249.2330961)
5(-160.9491058 -204.4398807 -242.8290854 -267.8098672 -276.7544392)
5(-192.9555806 -240.0756071 -279.5196867 -301.7154952 -305.5476364)
5(-229.4502783 -279.4513362 -319.7006563 -338.3392556 -334.7475132)
5(-270.6446732 -323.4249266 -363.1061758 -376.8114344 -364.9492597)
5(-317.5565678 -371.7821949 -410.4225974 -416.849285 -394.9410288)
5(-370.3386101 -426.3369922 -461.6974398 -459.1286967 -425.1452614)
5(-428.9628627 -485.606784 -516.6932182 -502.5659346 -456.0614942)
5(-494.723146 -550.475819 -574.173505 -545.9190618 -481.9535316)
5(-567.5425655 -620.0022921 -631.5373837 -587.6367745 -504.1995844)
5(-645.3171223 -688.865987 -688.6015114 -623.3794257 -512.6559881)
5(-726.4318496 -756.6694774 -739.8670138 -648.1090823 -511.2043477)
5(-805.855516 -818.7680138 -779.5287563 -657.4170976 -499.3214218)
5(-878.8815966 -868.92225 -802.5586058 -649.3849169 -475.3098289)
5(-936.06054 -897.793359 -802.7372292 -621.6183835 -440.4836984)
5(-972.1404085 -901.4146984 -777.7260178 -577.2210012 -394.0133419)
5(-980.8371486 -878.8684415 -724.197501 -520.1493986 -347.7464641)
5(-955.7714365 -822.4329471 -656.4978268 -454.7886027 -301.6276456)
5(-908.3637612 -741.4251734 -572.2763232 -391.0643323 -258.7048613)
5(-815.9172968 -649.2504149 -484.9311486 -333.3393157 -226.2176657)
5(-716.170482 -555.5204049 -409.725943 -287.7013393 -200.7644551)
5(-618.6802968 -463.881001 -346.3328379 -247.3486295 -173.6592501)
5(-512.6614603 -387.243371 -296.5087316 -217.8276371 -159.3773535)
5(-428.7339406 -325.6369399 -257.0792004 -193.7438915 -147.9913194)
5(-347.1843901 -278.5386738 -224.6123496 -173.5818477 -137.7830607)
5(-304.1981083 -238.1261089 -197.55599 -160.3212973 -129.422694)
5(-247.0603138 -209.5388297 -176.9810045 -147.83319 -125.4974415)
5(-205.317748 -181.9467321 -161.8177921 -142.2562927 -124.3036011)
5(-171.8338276 -154.8411785 -140.1382476 -138.1231491 -124.6106783)
5(-143.6930889 -144.9732322 -73.46871935 -323.8690719 -245.9642229)
)


60
(
5(5.61838284 6.888683627 6.981033344 -1.033354456 -30.56914484)
5(4.519778146 5.546659396 4.825690194 -1.583628883 -17.28681467)
5(3.17895669 2.971552136 1.546090412 -5.480595195 -17.68780515)
5(1.864542195 0.2773005524 -2.441955701 -10.75129003 -22.61889142)
5(0.4917233964 -2.307453594 -6.762927179 -16.32724618 -29.55131565)
5(-1.053344697 -4.865455772 -11.11085848 -21.68610302 -36.59188561)
5(-2.639931927 -7.388616043 -15.09810785 -26.53903131 -42.41494599)
5(-4.181749901 -9.731618454 -18.54662494 -30.6990615 -46.85123792)
5(-5.661532783 -11.90395346 -21.49017297 -34.30166216 -50.73899296)
5(-7.094864454 -13.87883798 -24.04904481 -37.34729712 -54.02745864)
5(-8.4719487 -15.61510333 -26.33011638 -39.9693356 -57.07646883)
5(-9.74397457 -17.1256005 -28.29153621 -42.11832379 -59.31445689)
5(-10.78966176 -18.39179873 -29.88251329 -43.81292934 -60.98226246)
5(-11.76927346 -19.42152169 -31.17475719 -45.08446271 -62.02587495)
5(-12.49657145 -20.31604932 -32.21465719 -46.17194443 -62.93245256)
5(-13.17439928 -21.16041197 -33.2662574 -47.28058457 -63.96994968)
5(-13.99846724 -22.15288195 -34.47765519 -48.7487347 -65.60530355)
5(-14.92904402 -23.48208058 -36.23837547 -51.04444525 -68.20306455)
5(-16.27549226 -25.47068949 -38.93376062 -54.51210465 -72.39798444)
5(-18.26814488 -28.49212676 -42.94988221 -59.77650518 -78.59259236)
5(-21.22430571 -32.94917634 -48.77037305 -67.21869731 -87.27321654)
5(-25.36810797 -39.19324514 -56.91770319 -77.36040158 -98.87728171)
5(-31.34431733 -47.67858208 -67.8672282 -90.56402698 -113.5699946)
5(-39.31925986 -58.71038602 -81.94110106 -107.1831413 -131.5549817)
5(-49.8228977 -72.68057198 -99.40969575 -127.3467002 -153.1653414)
5(-63.09369113 -90.17651725 -120.5632819 -151.2272332 -178.0890889)
5(-79.61927935 -111.5021927 -145.7323563 -178.8210247 -206.0772134)
5(-99.88204426 -136.6891869 -175.1697816 -210.1811805 -237.2218499)
5(-123.7813764 -165.9718135 -208.6641934 -244.9572889 -271.2344006)
5(-152.4204396 -199.4390445 -246.2072869 -283.278349 -307.7454862)
5(-185.0475722 -237.270591 -287.9091357 -324.8646888 -346.3237518)
5(-222.4365867 -280.30729 -334.0276971 -369.4341524 -387.0752389)
5(-265.2756213 -328.0358072 -384.1571762 -417.1594169 -428.8325831)
5(-313.5650403 -381.0634611 -438.4900911 -468.4650705 -472.6356727)
5(-368.313052 -439.3282692 -498.3093036 -523.0733743 -517.7955241)
5(-429.4047982 -503.5051312 -562.8588231 -581.0931094 -564.3426955)
5(-497.5270959 -575.4672674 -632.2096169 -642.4188529 -611.8971406)
5(-574.1066163 -653.791918 -706.7626421 -705.6182986 -659.3581132)
5(-657.8382769 -737.4682029 -785.8188816 -770.7938824 -705.5390729)
5(-749.6031866 -828.4227252 -869.0125511 -835.5852517 -744.2099862)
5(-847.5802805 -922.7556042 -951.9935308 -894.8220379 -771.8073282)
5(-951.5905641 -1019.236109 -1030.583599 -944.0314771 -789.8320808)
5(-1058.100227 -1111.727017 -1099.507019 -976.101275 -787.3704057)
5(-1161.319283 -1190.738886 -1149.625334 -986.8076292 -770.1142336)
5(-1253.158476 -1252.693442 -1170.906008 -970.8555131 -734.8086532)
5(-1317.717683 -1285.768934 -1162.144271 -927.8920427 -684.6215946)
5(-1361.472217 -1280.460151 -1117.193461 -862.5141715 -619.8984939)
5(-1365.45443 -1238.420381 -1035.641444 -778.5415682 -548.4813603)
5(-1329.00799 -1156.168998 -929.5757128 -682.2308283 -478.3307433)
5(-1253.698078 -1048.000236 -811.5780191 -592.9686358 -412.0656417)
5(-1145.097224 -919.1311101 -694.2191043 -510.2754312 -357.9434945)
5(-1015.474182 -783.4619858 -588.601608 -441.3970162 -315.2892748)
5(-869.3265928 -661.8795298 -503.1883756 -381.7195387 -290.7783245)
5(-736.8981363 -560.8940347 -431.4973942 -336.3309236 -255.9154206)
5(-613.4618191 -477.0271391 -376.103803 -300.0053026 -235.8564269)
5(-518.8303634 -408.94346 -331.6300753 -270.4890474 -222.8265078)
5(-436.3366849 -357.4489039 -291.071545 -248.4924368 -210.1610225)
5(-365.0032843 -306.9261666 -263.814686 -232.1575795 -203.6925937)
5(-309.9035774 -269.1553206 -237.142352 -214.4648804 -204.8415698)
5(-281.08347 -253.6437657 -253.7362195 -219.2796216 -211.057389)
)


60
(
5(6.794034014 8.119481985 4.795863567 -10.21199319 -55.07690202)
5(5.523311253 6.388243503 3.171423667 -8.483158844 -34.3399904)
5(3.717318773 2.616876566 -1.091683811 -12.83150072 -32.6323953)
5(1.712971653 -1.250885322 -6.527223702 -19.46946054 -38.82394001)
5(-0.3895065873 -4.929256535 -12.42377082 -26.65846521 -47.01431783)
5(-2.640449983 -8.529019234 -18.21048679 -33.55600453 -55.24654615)
5(-4.967816573 -12.02467245 -23.45509011 -39.77080054 -62.44078869)
5(-7.117442115 -15.24661239 -27.94922402 -45.05181554 -67.60371886)
5(-9.220321406 -18.19760847 -31.84107564 -49.60838191 -72.17092787)
5(-11.18739256 -20.85474988 -35.20849369 -53.50612989 -76.14815092)
5(-13.12528621 -23.23892662 -38.21076707 -56.78097256 -79.47943588)
5(-14.74850078 -25.27955422 -40.75647928 -59.39161957 -81.86906368)
5(-16.29424345 -27.01468935 -42.84377869 -61.38954221 -83.44636307)
5(-17.55693996 -28.46409337 -44.45757978 -62.82192225 -84.28267138)
5(-18.75601807 -29.68561683 -45.75887096 -63.95462509 -84.97467038)
5(-19.80602733 -30.87556186 -46.99704539 -65.09948973 -85.69974682)
5(-20.9108401 -32.21124317 -48.49737807 -66.72433002 -87.36400196)
5(-22.29808559 -34.00593724 -50.69599244 -69.27996441 -90.21584343)
5(-24.1145039 -36.59748027 -53.98737493 -73.39894836 -95.10683834)
5(-26.91717274 -40.4352376 -58.98122231 -79.71608194 -102.4817764)
5(-30.79484295 -45.99190359 -66.26477661 -88.84468821 -113.0770832)
5(-36.27440744 -53.83298061 -76.42754391 -101.3562299 -127.5479311)
5(-43.94801953 -64.43706502 -89.9939262 -117.723003 -145.9560584)
5(-54.28453505 -78.32552402 -107.5100068 -138.3372334 -168.6507762)
5(-67.53453056 -96.04576385 -129.4436154 -163.5937895 -195.640693)
5(-84.58106314 -117.9558362 -156.1688718 -193.7210948 -227.5772618)
5(-105.6128463 -144.6194321 -188.0390041 -228.7271569 -263.7610531)
5(-131.3020244 -176.2262734 -224.9966064 -268.686922 -304.1619527)
5(-161.5481315 -213.1849797 -267.3133925 -313.3860623 -348.4746502)
5(-197.4957345 -255.5035017 -315.0137454 -362.5822457 -396.5226546)
5(-238.9194005 -303.6381657 -368.0892417 -416.2868577 -447.7654886)
5(-286.4705039 -357.6689466 -426.4812598 -474.5263225 -502.2846958)
5(-340.1955115 -417.4850337 -490.5891895 -537.1657069 -559.5327767)
5(-400.5185566 -484.2792001 -560.5303127 -604.269703 -618.1865456)
5(-467.8462078 -557.6724487 -636.6913255 -675.9708358 -680.8039091)
5(-543.3117576 -638.2375287 -719.0955743 -752.2160229 -745.8475487)
5(-628.0108764 -726.5872083 -807.8682376 -832.6176245 -812.9153498)
5(-720.0791775 -822.1076118 -903.5871294 -917.637185 -881.3356403)
5(-822.0304186 -926.9438527 -1005.041883 -1005.703401 -949.0068789)
5(-931.8018012 -1040.913412 -1110.787153 -1094.449157 -1010.031916)
5(-1050.618739 -1159.118195 -1220.396031 -1179.725405 -1061.871997)
5(-1177.756918 -1281.732826 -1328.321448 -1257.721527 -1098.991488)
5(-1307.220063 -1403.507134 -1430.679194 -1319.357705 -1119.76553)
5(-1438.081838 -1514.288411 -1512.461868 -1356.676161 -1118.38401)
5(-1562.851128 -1612.307016 -1567.78753 -1364.211159 -1095.726394)
5(-1667.453694 -1684.018397 -1587.5789 -1337.240281 -1045.585174)
5(-1746.570024 -1718.009583 -1564.361434 -1274.345449 -972.8368589)
5(-1793.37594 -1706.634445 -1494.222831 -1182.891576 -883.2957105)
5(-1799.19477 -1647.467458 -1382.276071 -1066.643642 -781.7043185)
5(-1753.336439 -1547.767636 -1242.164481 -937.0626855 -680.7918744)
5(-1660.017249 -1401.328749 -1086.579383 -813.1512965 -593.4879264)
5(-1528.801045 -1248.898647 -933.3396037 -702.0304487 -519.2217747)
5(-1355.382901 -1063.870274 -803.663422 -604.4393051 -458.3746624)
5(-1177.334846 -909.249667 -685.7156666 -534.0215498 -409.4064637)
5(-1003.942688 -779.7504184 -594.621365 -469.2829841 -372.2517578)
5(-857.5572506 -665.0768319 -516.2482969 -420.225145 -354.9372733)
5(-725.8359858 -587.1999226 -460.6665086 -380.2898849 -320.3416841)
5(-635.7947229 -504.2537225 -412.4953113 -354.383852 -309.3859937)
5(-538.4991708 -444.5662795 -370.6381734 -325.8583452 -301.1211607)
5(-519.5386175 -432.838379 -380.5620339 -333.4254521 -308.0900986)
)


60
(
5(7.819675571 8.832718556 0.5810530932 -24.01424587 -87.08547396)
5(6.363248721 6.705948064 -0.1336465982 -18.66367449 -56.95187825)
5(3.90104063 1.633583727 -5.22457433 -23.00619005 -52.51829112)
5(1.171188207 -3.561816101 -12.15532848 -30.69477122 -57.80950054)
5(-1.792871347 -8.463920121 -19.63578546 -39.24056264 -67.41485575)
5(-4.815137193 -13.2010981 -26.89279117 -47.60004237 -76.85043977)
5(-7.944483376 -17.71398121 -33.4394184 -55.21663603 -84.97408147)
5(-10.85215062 -21.89146372 -39.04931825 -61.71169142 -91.08172381)
5(-13.55525119 -25.70198651 -43.91452852 -67.24456612 -96.27018051)
5(-16.20776427 -29.11078592 -48.12678931 -71.89403167 -100.8988852)
5(-18.61624971 -32.14639124 -51.84733894 -75.79525424 -104.3471827)
5(-20.79827765 -34.7727017 -54.95128351 -78.8237958 -106.721269)
5(-22.80258751 -37.02570149 -57.5116658 -80.9908224 -107.9635821)
5(-24.56868714 -38.86458676 -59.45129485 -82.45830271 -108.5071063)
5(-26.11648936 -40.47381391 -60.99772005 -83.55109398 -108.6623946)
5(-27.5421201 -42.00452676 -62.4342099 -84.62928797 -109.1820878)
5(-29.07069195 -43.73923988 -64.16383029 -86.22879435 -110.5418151)
5(-30.83693063 -45.95854592 -66.66243103 -88.93671257 -113.5212691)
5(-33.42398365 -49.08387399 -70.49616802 -93.54751635 -118.7687979)
5(-36.75808866 -53.69379079 -76.39243698 -100.7519036 -127.3779853)
5(-41.64896854 -60.35743201 -84.96145133 -111.3049544 -139.7466215)
5(-48.62952647 -69.81479566 -96.9757657 -125.9423344 -156.6150981)
5(-57.92727445 -82.51334989 -113.1180586 -145.2537529 -178.6875664)
5(-70.49987604 -99.08866734 -134.0989444 -169.826662 -205.9874309)
5(-87.02702807 -120.3599689 -160.4247312 -199.8984786 -239.0826407)
5(-107.5396377 -147.0156661 -192.5450079 -235.8413306 -277.3839238)
5(-133.2552145 -179.1174802 -230.7437357 -278.1122058 -321.8454264)
5(-164.1179404 -217.1919045 -275.20885 -326.7693331 -371.9642284)
5(-200.9608148 -261.7402175 -326.7506874 -381.2887012 -426.82843)
5(-245.4662822 -313.1756367 -385.0108407 -441.5259521 -487.3428462)
5(-296.2384076 -371.3900786 -449.8387903 -508.2528783 -551.2229922)
5(-353.3928882 -436.6139465 -521.4149482 -580.7550783 -619.7451769)
5(-418.5131969 -509.6913722 -599.9144061 -658.7526545 -694.0581119)
5(-492.2863327 -590.6526567 -685.4472217 -742.3932887 -771.1478606)
5(-574.1424442 -679.5858063 -777.9518233 -831.8008269 -851.1333959)
5(-664.658491 -777.2378621 -878.8746766 -926.7196921 -935.8975429)
5(-764.5463668 -883.0820322 -987.523368 -1027.516045 -1023.630624)
5(-874.3454171 -998.8527167 -1103.916326 -1135.035631 -1115.350883)
5(-993.5888003 -1123.745995 -1227.519415 -1248.104339 -1206.794028)
5(-1124.007312 -1257.189199 -1358.360323 -1363.326357 -1293.906499)
5(-1262.095261 -1398.437371 -1495.317353 -1476.846391 -1372.804957)
5(-1409.500736 -1545.755867 -1633.246745 -1586.098677 -1439.786829)
5(-1563.93918 -1696.432373 -1764.126616 -1680.162275 -1488.018005)
5(-1720.296067 -1842.206508 -1884.010567 -1752.364548 -1512.891113)
5(-1874.791541 -1975.97662 -1981.082961 -1792.651793 -1511.730258)
5(-2017.71549 -2090.271667 -2041.6575 -1792.634105 -1472.838888)
5(-2137.781582 -2174.871342 -2054.43011 -1750.472146 -1404.329357)
5(-2225.803969 -2208.258627 -2011.7945 -1667.29534 -1299.583386)
5(-2277.426759 -2189.417374 -1920.092051 -1542.677244 -1183.251592)
5(-2278.68239 -2113.697264 -1781.859229 -1393.443707 -1045.966593)
5(-2216.86794 -1981.343003 -1610.447814 -1229.910146 -913.2152501)
5(-2101.183881 -1807.206906 -1420.980989 -1072.453229 -794.2393808)
5(-1949.328682 -1604.434359 -1243.31862 -923.1176034 -696.7093622)
5(-1759.928886 -1409.066141 -1058.946846 -806.9429662 -624.0662514)
5(-1552.860649 -1226.93817 -927.0861336 -707.4219577 -562.8166033)
5(-1342.932455 -1054.461227 -810.5042554 -627.4106009 -505.2612146)
5(-1163.329142 -920.2228413 -709.1286108 -569.1294269 -479.6162389)
5(-1009.528383 -806.2375439 -637.8275096 -520.0088857 -440.5088653)
5(-886.3745027 -722.4547244 -573.9258402 -487.5306111 -414.9379505)
5(-861.7752151 -758.141477 -635.619557 -510.549356 -454.9602528)
)


60
(
5(8.649287712 8.785011979 -5.784718418 -42.60292547 -126.8994501)
5(6.970779316 6.362780549 -5.086511764 -32.27419801 -84.96632568)
5(3.790486632 -0.1306393636 -10.96422039 -35.95345007 -76.93670043)
5(0.2078740935 -6.766371596 -19.41916625 -44.49764266 -81.41901048)
5(-3.660954643 -12.95397479 -28.50219803 -54.36566492 -91.53899267)
5(-7.672312589 -18.83787321 -37.20475269 -64.06152151 -101.7975622)
5(-11.58209544 -24.48588216 -45.01125315 -72.86819468 -110.5405537)
5(-15.2529995 -29.6497401 -51.79784504 -80.4915942 -117.5276709)
5(-18.71068639 -34.35904964 -57.68607564 -86.96903231 -123.2095608)