/*--------------------------------*- C++ -*----------------------------------*\
| =========                 |                                                 |
| \\      /  F ield         | OpenFOAM: The Open Source CFD Toolbox           |
|  \\    /   O peration     | Version:  2.3.1                                 |
|   \\  /    A nd           | Web:      www.OpenFOAM.org                      |
|    \\/     M anipulation  |                                                 |
\*---------------------------------------------------------------------------*/
FoamFile
{
    version     2.0;
    format      ascii;
    class       dictionary;
    location    "constant";
    object      rOH;
}
// * * * * * * * * * * * * * * * * * * * * * * * * * * * * * * * * * * * * * //

rOH_table
60
(

60
(
5(-2.4727421 -1.461431397 -6.210258207 -4.885091437 -11.93518507)
5(-1.012537453 -0.2694034475 -2.082391293 -1.794359301 -3.014838669)
5(-2.0334166 -0.4473184283 -0.7959273708 -0.6463794463 -0.01570435095)
5(-9.70121556 -0.4974602111 -0.7891102806 -0.1960687174 -1.023312579)
5(-12.63833155 -0.4310407109 -0.785994913 -0.559208376 -0.6045738616)
5(-11.22241605 -0.3788913038 -0.2945965895 -0.6050293652 -0.4383056166)
5(-0.4105589403 -0.3598764108 -0.397406778 -0.4307062028 -1.034958446)
5(-0.2179991035 -0.3980103947 -0.7033206303 -0.595599799 -0.3249549743)
5(-14.71338914 -0.486355743 -0.7600055157 -0.7259005043 -0.6650838465)
5(-24.9616138 -0.8411366348 -1.13402741 -0.8008803362 -0.8917973574)
5(-28.40711878 -1.130598473 -1.257963558 -1.017910824 -1.082459476)
5(-8.53882376 -0.8572839729 -1.196439095 -1.168676116 -1.202270689)
5(-0.6105219351 -1.051437288 -1.324408758 -1.569767197 -1.537088093)
5(-0.8733481744 -1.298907138 -1.650829359 -1.667994217 -1.741294128)
5(-0.9129718459 -1.47805792 -1.883005366 -2.184259157 -2.102787948)
5(-1.871131746 -2.779349355 -2.718012274 -2.937069244 -2.68941121)
5(-2.197383902 -2.999404676 -3.422963158 -3.367692782 -3.330018531)
5(-1.983811344 -3.173900205 -3.436267041 -4.006300836 -4.060440758)
5(-1.922856553 -3.285122477 -4.02064745 -4.640175669 -5.27665887)
5(-2.372304449 -3.706597142 -4.877381755 -5.792995378 -5.988766171)
5(-2.706592899 -4.097065114 -5.342318779 -6.451960972 -6.253732304)
5(-3.1212659 -4.554587068 -6.339566411 -6.236586515 -6.320369987)
5(-3.695936501 -5.175924249 -6.921666985 -7.505644375 -7.511804293)
5(-4.030717261 -5.965390878 -7.457718148 -8.081000244 -7.930388656)
5(-4.644172473 -7.028628306 -8.176508611 -8.920889388 -8.664176893)
5(-5.042862879 -8.492926333 -9.114950861 -9.775080236 -8.791658983)
5(-5.350583232 -8.416383059 -9.075119924 -10.16903587 -8.9115933)
5(-5.57488795 -7.331551141 -9.542440291 -10.32496131 -8.861448265)
5(-6.086178191 -7.685115974 -9.429284582 -10.03904052 -8.919725426)
5(-6.310726339 -8.041024435 -9.411556206 -9.390752381 -8.431648521)
5(-6.632199681 -8.290719505 -9.642984319 -9.796843434 -8.087473844)
5(-6.760361563 -8.199683298 -9.121882101 -9.060919812 -6.618388493)
5(-6.740406807 -8.280720021 -8.963098521 -8.719460134 -7.100155396)
5(-6.85247037 -8.300908372 -8.878406777 -8.289797702 -6.005501801)
5(-6.887406741 -7.882660762 -8.28268775 -7.927630815 4.859139046)
5(-6.767698831 -7.909445473 -8.866540549 -7.733529452 11.16877328)
5(-6.49962996 -7.196371167 -7.806596705 -7.239992294 -4.728410884)
5(-5.894202827 -6.931953859 -7.298635177 -6.323018788 1.828954468)
5(-5.240432982 -6.560825226 -5.837626125 -5.699716129 4.451883552)
5(-4.701782371 -6.114981792 -7.974824414 -5.835386036 9.035887937)
5(-4.040980347 -5.124864855 -9.802453313 19.17271675 20.23299951)
5(-3.714205086 -3.99108983 -7.443409979 214.3339231 -0.02239651599)
5(-3.127512542 -5.219672557 -5.489278137 -0.01791513684 -0.02077101976)
5(-2.39283249 -7.608074216 0.3774354396 -0.01785317142 18.60662063)
5(-1.940149321 -10.19684372 21.36499804 -0.02244241959 1.978885182)
5(-2.622407828 -5.790864451 0.1574908935 0.009290551778 -0.0149160692)
5(-4.347728618 18.54327549 191.281348 1.655655473 -0.02054452895)
5(21.96052375 -0.5817235609 26.32285518 0.07142867195 0.003216948394)
5(-1.945111542 -1.497754731 1.488901949 0.08364095284 0.09300745005)
5(-2.299737752 10.66478737 0.08123545028 0.04614329431 0.0923230844)
5(70.68415439 0.04496775526 -0.02285221501 0.06258341459 0.2650127809)
5(206.223688 0.01536471065 0.01890789062 0.001792344472 0.1078371733)
5(30.94583676 0.2975474497 -0.03049431762 -0.04117531473 0.07954100724)
5(-0.01337220907 0.1250531413 0.1177011946 0.1326291142 0.2833432174)
5(0.01804633817 0.2039188891 0.007152237057 -0.01807104265 0.05507766628)
5(52.51840203 0.04304085441 -0.05327211529 0.1163001577 -0.05418647156)
5(170.9098808 0.01711618033 -0.04016091291 -0.03806442483 -0.142255958)
5(194.9549555 77.15263424 0.0604145064 0.03649748702 0.3659087806)
5(133.212436 107.8731615 62.061378 0.07267537553 -0.299453297)
5(-0.1486561257 -0.2154656925 -0.2997060053 -0.4051431867 -0.4891209798)
)


60
(
5(-4.675729134 -4.648147097 -12.82116444 -14.00357097 -27.95054444)
5(-3.178391618 -4.053359144 -7.487321897 -9.274581754 -13.86939699)
5(-2.574213828 -3.862114523 -5.598884751 -7.544533034 -9.158757734)
5(-2.459439555 -3.943628257 -5.323051623 -7.276173186 -8.244810833)
5(-2.672043493 -4.256497091 -5.877800027 -7.742576709 -8.945121558)
5(-3.073324027 -4.7389005 -6.682056536 -8.457979397 -9.905782756)
5(-3.515554399 -5.3341838 -7.401561358 -9.148743475 -10.36890439)
5(-3.979788647 -6.040552415 -8.125967841 -9.851275851 -10.56823378)
5(-4.532530384 -6.884680474 -8.943317259 -10.66002284 -10.84754799)
5(-5.257309422 -7.924648365 -10.01798514 -11.73236688 -11.41967108)
5(-6.147112054 -9.18236546 -11.39416606 -13.13191554 -12.50025883)
5(-7.259554347 -10.69460555 -13.12401115 -14.95898001 -14.208039)
5(-8.578745743 -12.52689142 -15.23757086 -17.35513421 -16.6201843)
5(-10.14322186 -14.71644837 -17.83309679 -20.49057846 -20.07419858)
5(-12.00173703 -17.35572042 -21.03783728 -24.487199 -24.69593594)
5(-14.23089276 -20.51424654 -25.00329553 -29.47875861 -30.59269166)
5(-16.84712587 -24.23141104 -29.80372736 -35.56782858 -37.79091867)
5(-19.90849188 -28.58807579 -35.46749856 -42.65821314 -46.14334097)
5(-23.45488398 -33.51658631 -41.97699732 -50.65362678 -55.35485734)
5(-27.436734 -39.00433353 -49.12211096 -59.25773927 -65.20622968)
5(-31.84949893 -44.94319906 -56.80149019 -68.06237487 -74.77719594)
5(-36.56020255 -51.12231363 -64.61401966 -76.76937599 -83.82664296)
5(-41.43522989 -57.28132277 -72.19578369 -84.71667708 -91.96921276)
5(-46.50701614 -63.24042211 -79.34540939 -91.42685133 -98.20310031)
5(-51.2821523 -68.46805961 -85.28191982 -96.67306798 -102.620251)
5(-55.8102214 -72.87799981 -90.14838565 -100.2206786 -104.9604058)
5(-59.68990126 -75.97029044 -93.16614949 -101.8021322 -104.8339738)
5(-62.57083766 -78.15794281 -94.247986 -101.1144258 -101.6327198)
5(-64.53497103 -78.95860045 -93.64032947 -98.2383873 -98.2063345)
5(-65.48846511 -77.88304475 -91.14968709 -93.86199411 -91.60591225)
5(-65.18364319 -75.34932211 -87.25063877 -88.00782961 -85.14614921)
5(-63.54105286 -71.65214763 -81.09471888 -81.08709875 -77.10487612)
5(-60.44914773 -66.32163827 -74.66115955 -73.45440269 -69.07687542)
5(-56.28215247 -59.76791326 -66.5470561 -65.8467388 -60.43067887)
5(-50.17326747 -53.22237462 -59.11300978 -57.92020947 -54.22338579)
5(-45.15440951 -45.26840441 -50.49294271 -50.49097111 -45.75747329)
5(-35.9697375 -37.19734744 -42.97779506 -42.05924388 -38.65981593)
5(-29.84361076 -31.16639734 -38.04572066 -37.39678166 -33.86223321)
5(-23.19415316 -20.69237866 -33.04358358 -35.12334108 -30.58044381)
5(-13.72770285 -16.54377651 -27.60916357 -31.92905868 -28.87834772)
5(-5.394656321 -5.706882419 -16.09408682 -30.48706518 -22.69170732)
5(10.4994637 -8.888501076 -17.59930581 -34.34648078 -21.14083011)
5(10.9912874 -7.012820536 -17.54489343 -40.04028416 -15.3016433)
5(16.36122844 8.424934394 -19.76305643 -31.09555334 -13.08273077)
5(22.86926348 4.816819847 -17.59925562 -16.73765455 -11.56260023)
5(38.7276584 5.834954104 -23.03727979 -6.784080208 -14.65309926)
5(55.44775059 0.6330113111 -26.88674814 -1.92271511 -14.7514257)
5(60.85814338 -3.447252549 -19.03098722 -1.542650146 -9.883882353)
5(33.89147515 -24.39875 -10.07576541 -1.531451278 -14.06917361)
5(40.07645116 -30.97184046 -6.174569172 -8.171876592 -12.56922489)
5(14.43766601 -12.04306637 -5.688492118 -9.353592294 -5.157491843)
5(25.21965566 -1.776090289 -0.9239429268 -12.74918447 -13.36503138)
5(-7.039300536 -9.401662989 -9.607420589 -11.45531515 11.78003283)
5(-18.59006679 -0.219253808 -17.91934141 -15.70575478 -13.16559901)
5(-2.957730014 -24.94327552 -21.08181217 -19.51690059 -12.72092715)
5(-17.61325608 -26.45006716 -21.56197038 -19.76949445 -15.99479789)
5(-17.0146137 -26.08070298 -25.73296241 -18.63212708 -8.05865572)
5(-35.00833057 -21.97744792 -19.22160843 -10.39624126 -17.35024636)
5(27.55160738 1.609187286 -25.04956804 -26.1304425 1.337346099)
5(-35.06155997 -35.23218376 58.5483875 -31.13957071 -23.98543055)
)


60
(
5(-7.312447438 -8.583609437 -21.59393473 -27.21344771 -50.27422313)
5(-5.710666249 -8.03755363 -14.64059069 -20.03316793 -30.0976772)
5(-5.069676399 -7.941712506 -12.15278564 -17.22513394 -22.49381858)
5(-5.044699874 -8.194704165 -11.86696791 -16.53623896 -20.18573803)
5(-5.486598755 -8.791459712 -12.662376 -16.80603973 -19.8277436)
5(-6.214371638 -9.647897571 -13.74237477 -17.26098974 -19.40361788)
5(-7.029062781 -10.64138147 -14.67158917 -17.53986651 -18.32864553)
5(-7.910374973 -11.78595308 -15.5371798 -17.78639804 -17.09576359)
5(-8.944026554 -13.11491442 -16.53851807 -18.22631554 -16.22294439)
5(-10.20488844 -14.68924648 -17.86308216 -19.10763473 -16.18188094)
5(-11.72220306 -16.58863821 -19.65765773 -20.67880886 -17.27171046)
5(-13.54484006 -18.8912698 -22.03406714 -23.23735978 -19.92107542)
5(-15.73025014 -21.73529189 -25.21329976 -27.10448459 -24.55723847)
5(-18.32626742 -25.27398903 -29.42613703 -32.61287183 -31.48715202)
5(-21.46459506 -29.66658575 -34.98669407 -40.00812859 -40.81603836)
5(-25.22988446 -35.10668879 -42.06755961 -49.50229483 -52.67426952)
5(-29.8138966 -41.66868337 -50.87526287 -61.10413948 -66.91242285)
5(-35.21687164 -49.50581118 -61.3258646 -74.59522936 -82.96229332)
5(-41.54452278 -58.54757879 -73.43284387 -89.66792371 -100.4504758)
5(-48.77744535 -68.68017232 -86.77393213 -105.8190048 -118.5921508)
5(-56.74829487 -79.66787307 -101.04231 -122.3292016 -136.6745865)
5(-65.64994951 -91.23135096 -115.5648767 -138.3736275 -153.4695898)
5(-74.77387093 -102.9073752 -129.7835211 -153.2780444 -168.1807158)
5(-84.0655862 -114.0646256 -142.8978583 -166.0360498 -180.0673183)
5(-92.95432014 -124.1161738 -154.2552438 -176.1099336 -188.6976675)
5(-101.3876582 -132.6995393 -163.2284164 -183.376401 -192.7450189)
5(-108.5738114 -139.1312228 -169.1032257 -186.3554631 -193.9136402)
5(-113.6621621 -143.3068506 -171.4598453 -185.8233639 -189.7990679)
5(-117.7729552 -144.517143 -170.3303292 -181.0160973 -183.3619573)
5(-118.8508546 -142.6805604 -166.3042829 -173.3921064 -173.0218211)
5(-118.2594438 -138.3887348 -158.5662992 -162.3679499 -160.1174714)
5(-114.6541992 -131.1693078 -147.3769568 -149.2126081 -145.9008451)
5(-108.8946359 -120.7297686 -134.44784 -134.9517514 -129.2595728)
5(-101.1450617 -108.9406743 -120.0762357 -118.2508878 -113.4347727)
5(-90.11417412 -94.92930812 -103.6481054 -101.1355273 -96.99794597)
5(-72.79809602 -79.73874276 -87.77299845 -84.9518056 -85.52071945)
5(-60.94269447 -62.60142713 -71.89597825 -69.96345097 -70.12336734)
5(-46.85079024 -46.24081309 -56.04129305 -57.2380381 -61.92544915)
5(-33.53526904 -32.2253627 -39.46293544 -46.4204127 -51.52120848)
5(-15.9997178 -15.85281804 -25.65470262 -37.29130403 -43.11563306)
5(6.751781764 -0.149258535 -17.56618114 -30.81298677 -35.74487697)
5(12.49592548 8.42828298 -7.070350088 -26.44612348 -31.19907046)
5(29.61550057 18.39160842 0.7941906764 -19.60503098 -23.55173729)
5(38.16095092 27.25924084 7.230013814 -11.75729859 -11.03266608)
5(50.74919452 42.74391486 15.84164488 -5.201998538 -13.00000388)
5(56.03836957 42.7161427 14.98970559 3.116256886 -7.982798637)
5(62.54687726 41.71085049 14.7828796 2.32073409 -2.841025618)
5(65.38868763 39.2684566 18.78668862 0.379132311 -5.678283061)
5(66.60658068 43.45076086 18.75085811 0.3862149099 -8.369354911)
5(50.87134484 22.54573819 7.020816635 -1.979276713 -10.38793045)
5(32.18002879 13.91609189 -2.752806013 -6.365662569 -17.73248765)
5(9.540976862 6.359127823 -12.32598635 -11.66919235 -16.41972623)
5(-10.99805914 -13.24230054 -23.12756088 -11.89095026 -24.4881313)
5(-5.498394434 -33.20510907 -30.00580934 -21.10086468 3.435257799)
5(-43.42307704 -36.03897297 -35.5322342 -30.82114532 -25.74883117)
5(-23.66341975 -48.83904238 -39.97287795 -33.09791647 -26.04940129)
5(-36.91699653 -51.63811347 -36.35099126 -36.8143408 -31.79204289)
5(-37.29433751 -47.8880188 -43.49402812 -33.19390534 -32.88540128)
5(-53.90882066 -48.99632236 -55.84230488 -39.63302334 -19.54768209)
5(-75.86448773 -74.93839228 -10.04831188 -64.45981549 -45.93295236)
)


60
(
5(-10.48274327 -13.58958705 -32.78033652 -44.99188946 -79.07991196)
5(-8.783412429 -13.12730087 -23.95360692 -34.46980634 -51.4020586)
5(-8.143889034 -13.12713068 -20.69189315 -29.90925415 -39.71112196)
5(-8.22599515 -13.4901205 -20.18209056 -28.05979196 -34.53760047)
5(-8.909717153 -14.27311607 -20.87208438 -27.2514853 -31.41051647)
5(-9.954804157 -15.35425579 -21.74285201 -26.47752694 -28.0335039)
5(-11.10532837 -16.55137913 -22.33661281 -25.40727791 -24.131485)
5(-12.33347752 -17.86798912 -22.80310463 -24.34391626 -20.57169518)
5(-13.7247815 -19.35309775 -23.41219394 -23.66816162 -18.00859119)
5(-15.3744311 -21.12300511 -24.45114681 -23.81387317 -17.07935417)
5(-17.33417168 -23.28646902 -26.15978815 -25.23315716 -18.37089559)
5(-19.66179631 -26.04410093 -28.85467901 -28.43290976 -22.56842145)
5(-22.45801042 -29.60774534 -32.9093964 -33.90747969 -30.0391066)
5(-25.88686939 -34.26616603 -38.7360188 -42.11581066 -41.11048976)
5(-30.1088053 -40.27777376 -46.72003003 -53.30645039 -55.98226919)
5(-35.32007303 -47.88387978 -57.13774862 -67.65207827 -74.40379171)
5(-41.67763295 -57.33042374 -70.16888406 -85.15316333 -96.06639071)
5(-49.40636395 -68.70352804 -85.77062064 -105.3683254 -120.4302609)
5(-58.49046957 -81.93847388 -103.7152053 -127.9120472 -146.3477515)
5(-69.01581116 -96.85014292 -123.525448 -151.7715724 -173.2155374)
5(-80.87344981 -113.1528144 -144.6488224 -176.2078709 -199.693542)
5(-93.693889 -130.2573172 -166.0250805 -199.9612605 -224.2853197)
5(-107.1920821 -147.4409062 -187.0055767 -222.1404431 -245.9279991)
5(-121.0343304 -164.1152924 -206.32994 -241.4294409 -263.7356509)
5(-134.5799268 -179.496907 -223.2508247 -256.9495562 -277.7411955)
5(-146.8797841 -192.7548556 -236.7418158 -267.8815468 -284.9743666)
5(-157.5698589 -202.8767634 -246.2136157 -273.8473646 -286.6936996)
5(-165.9911821 -209.7051937 -250.6769093 -274.1551537 -283.8725918)
5(-171.8120939 -212.7592538 -250.259773 -268.8956445 -272.8183201)
5(-174.1253837 -211.4207339 -244.9459317 -258.7668209 -260.5456019)
5(-172.9171379 -205.5953804 -234.6237424 -243.6688401 -241.0967725)
5(-168.3633287 -195.6096114 -219.2422112 -224.730686 -221.2735095)
5(-159.8541115 -181.3931023 -201.0294285 -203.24318 -197.5630704)
5(-147.3070166 -164.321788 -179.3272698 -178.3534945 -173.6182226)
5(-131.9717762 -144.2229127 -155.5836423 -153.2966918 -147.3714482)
5(-112.4840134 -122.3363629 -129.8744234 -129.4504783 -125.5060774)
5(-90.89286421 -96.7246253 -103.7629266 -105.7373973 -105.6852204)
5(-69.87308473 -71.81393622 -78.16636942 -84.02514325 -81.80020415)
5(-46.18454582 -45.87965061 -55.14049447 -65.12269102 -70.87202407)
5(-20.02996834 -20.19472299 -37.03961314 -47.92558938 -48.10828161)
5(4.123455305 -2.001050394 -18.02419636 -34.25279985 -46.74893342)
5(28.87823725 14.62106226 -0.9066530904 -24.6187762 -39.55108908)
5(49.58086985 31.02254747 12.54361606 -16.54660957 -24.94925815)
5(69.68321364 47.33762608 23.31751496 -5.403243772 -12.77712454)
5(81.05149114 58.05968562 31.65804144 5.70789043 -0.0549618674)
5(91.70729579 66.32729494 43.39494071 17.5691501 -4.03653587)
5(104.5200627 76.03799677 46.03230444 25.64683273 5.865864262)
5(104.6398814 72.34653922 58.07385258 24.05199455 17.03594399)
5(136.471846 62.13013925 52.15893582 19.54226154 5.36744357)
5(92.51566812 52.95034212 32.70984261 12.0380962 15.5610248)
5(74.42825907 46.13218592 16.17674819 10.01379162 19.82075878)
5(79.89953961 23.4447962 -3.856797655 -10.14519497 -19.46595535)
5(36.53375814 -7.589648994 -17.41470517 -21.74252913 -13.63394617)
5(16.09940656 -32.44446501 -28.29522888 -29.90721223 -5.785527729)
5(-42.68656623 -42.52578621 -35.15026856 -41.28839612 -18.15745015)
5(-11.19869919 -61.53945711 -49.97671977 -33.99219327 -39.56873451)
5(-55.83519703 -57.25069606 -56.8607283 -56.06474958 -43.69330758)
5(-83.83751507 -76.91794285 -61.35333815 -53.28140473 -47.28852346)
5(-99.48938459 -101.9227319 -93.8749828 -42.74343969 -56.64864855)
5(-115.2853853 -522.3635181 -142.6468931 977.2149481 918.5317557)
)


60
(
5(-14.23987744 -19.81794434 -46.53777247 -67.59851805 -114.2861042)
5(-12.48421154 -19.47603365 -35.54938609 -52.66225789 -77.50083224)
5(-11.87347517 -19.51264992 -31.21198219 -45.44459547 -60.07945937)
5(-12.04777923 -19.84495033 -30.09254069 -41.51311454 -50.42915212)
5(-12.93207253 -20.64228875 -30.22829637 -38.65385485 -43.02310261)
5(-14.25349017 -21.7500422 -30.36227609 -35.74355761 -35.48560112)
5(-15.65689656 -22.88563128 -30.07564348 -32.50959635 -27.86930352)
5(-17.11236586 -24.08116122 -29.58764773 -29.4539548 -21.45172061)
5(-18.72255523 -25.39643634 -29.28244198 -27.12418851 -16.94040013)
5(-20.58210376 -26.99609423 -29.60558429 -26.22455541 -15.28275242)
5(-22.77459511 -29.12878351 -30.93278835 -27.35959564 -17.01867104)
5(-25.38625957 -32.03795803 -33.76079966 -31.22755871 -23.1273224)
5(-28.62398623 -36.09638158 -38.63429771 -38.44010992 -33.89299597)
5(-32.6401951 -41.69650581 -46.06792191 -49.52741366 -49.69027368)
5(-37.8064594 -49.19871713 -56.56211341 -64.72576951 -70.28395351)
5(-44.32901073 -58.95067769 -70.38420288 -84.19126411 -95.48557771)
5(-52.44796655 -71.20382685 -87.80292752 -107.6994178 -124.7469371)
5(-62.37569865 -86.13206999 -108.6118569 -134.7003637 -157.2574464)
5(-74.26600286 -103.6023856 -132.4347008 -164.7344225 -191.8328479)
5(-88.07037637 -123.3311001 -158.7775256 -196.4996187 -227.3632164)
5(-103.6246963 -144.8150148 -186.777731 -228.999841 -262.4217801)
5(-120.8341198 -167.4966825 -215.2651874 -260.7478634 -295.2920555)
5(-138.6610349 -190.4887913 -242.9860172 -290.3256552 -324.854151)
5(-157.1005822 -213.042396 -268.8965898 -316.3310749 -349.9898973)
5(-175.0677924 -234.0777182 -291.9093535 -337.8417394 -368.3069819)
5(-191.7135864 -252.1537238 -310.802846 -353.704364 -380.2066577)
5(-206.4704064 -266.3906411 -324.2581446 -363.1005874 -385.4920745)
5(-218.1088656 -276.2737177 -331.2718179 -365.3582045 -382.7955379)
5(-226.9422689 -281.04201 -331.9160339 -360.8429187 -372.3840735)
5(-229.7715097 -280.620828 -326.1293359 -349.083492 -355.1926828)
5(-229.6369387 -274.8597786 -313.7828926 -330.8678748 -332.6300977)
5(-224.7095887 -262.3734397 -294.721991 -307.6811508 -303.8200171)
5(-213.6736135 -244.8325512 -271.0516746 -279.7197143 -275.2578188)
5(-197.9908465 -222.3276932 -243.5466076 -247.5928384 -241.4568785)
5(-176.7741435 -195.927624 -210.7969506 -213.1738102 -206.9169717)
5(-152.2653681 -166.2016825 -176.1968775 -177.230612 -173.1196313)
5(-124.339706 -131.6991904 -141.595361 -141.155941 -142.2208539)
5(-90.90308793 -96.67215724 -106.9835995 -108.9251489 -116.1022765)
5(-58.85901228 -64.54828856 -73.88208746 -79.35966328 -88.83581009)
5(-25.81984445 -31.49426613 -40.83621712 -52.86531915 -72.04295135)
5(3.811046827 -1.813409662 -12.32610942 -32.47674229 -57.22767793)
5(35.08339087 27.84507477 12.19231701 -15.67460847 -30.0401768)
5(66.86516121 55.24337202 33.94738323 -2.723599362 -28.65907811)
5(97.88508968 75.21211372 49.86818485 12.73771647 -16.71300554)
5(126.137035 95.65052392 56.60859035 26.6184453 -7.766724747)
5(127.8743534 109.9811643 67.8497598 39.39683607 12.87617222)
5(149.954556 112.2766548 78.92697512 51.93213694 24.82492489)
5(154.802253 114.3811524 84.0892296 61.47071896 31.1407394)
5(157.9463571 108.6839723 82.0854846 48.79678882 33.30878935)
5(155.0022374 106.7842021 69.61759932 44.81244092 22.29501284)
5(144.4447389 93.2494097 46.95132033 34.39871029 7.114128195)
5(128.7294522 68.89768652 21.47533063 21.3698151 -7.179000241)
5(84.15995764 32.73115828 -0.9639193207 1.21988109 40.2445355)
5(62.29045727 -0.9901470419 -30.77396477 -23.40970028 -32.15592413)
5(17.45853843 -28.53783083 -50.04917062 -41.71012241 -39.77541351)
5(-14.05153282 -58.18893284 -59.33960096 -59.30045317 -36.0098702)
5(-50.67585827 -69.46288931 -92.92519733 -72.06964305 -52.81685651)
5(-90.09044399 -106.1416664 -97.62435915 -85.07880694 -60.52474943)
5(-114.8791277 -122.5004657 -117.7051138 -108.1284949 -49.91521102)
5(-112.9900101 -126.9337289 -139.3392045 -121.5032271 -109.0483577)
)


60
(
5(-18.61697852 -27.38708253 -62.9549443 -95.13864476 -155.802723)
5(-16.85998644 -27.14172341 -49.46386059 -74.53983856 -107.8972101)
5(-16.24527241 -27.0905372 -43.70569501 -63.59230596 -83.07098226)
5(-16.50620809 -27.2499859 -41.53874123 -56.59238901 -67.3330478)
5(-17.56324077 -27.85881306 -40.5506308 -50.76967636 -54.28976606)
5(-19.07557779 -28.72609228 -39.39904868 -44.89951574 -41.68162922)
5(-20.62934326 -29.5130672 -37.68869774 -38.79959443 -29.69667546)
5(-22.16979825 -30.27871955 -35.77898343 -33.22522628 -20.20135324)
5(-23.82529846 -31.12809674 -34.15737014 -28.92399672 -13.77358449)
5(-25.71135336 -32.30194117 -33.45127334 -26.73933361 -11.39430991)
5(-27.91610768 -34.0968252 -34.15677231 -27.52187004 -13.9087076)
5(-30.66170031 -36.95047964 -36.97654374 -32.09303666 -22.15093856)
5(-34.11904599 -41.31889987 -42.58507471 -41.13765649 -36.52952855)
5(-38.67955403 -47.70382246 -51.66913685 -55.21675123 -57.15768558)
5(-44.59196052 -56.64342911 -64.75395247 -74.54898371 -83.64947077)
5(-52.29152453 -68.48154906 -82.14858201 -99.1371457 -115.8782234)
5(-62.10671171 -83.54967653 -103.9465097 -128.6473829 -152.666595)
5(-74.27024897 -101.9350548 -129.9232611 -162.5906499 -193.3914085)
5(-88.95247989 -123.557582 -159.7327663 -199.9662431 -236.6544965)
5(-105.9279891 -148.0597507 -192.5146251 -239.5948637 -281.0995022)
5(-125.3788231 -174.9066182 -227.2723395 -280.0558474 -325.031799)
5(-146.5090438 -203.2188104 -262.7643266 -319.7347237 -366.2002227)
5(-169.0272636 -232.0975624 -297.6794836 -357.0643552 -403.7330084)
5(-191.8999357 -260.4002277 -330.5384307 -390.5798791 -435.9288655)
5(-214.6617206 -286.8358566 -359.8361345 -418.7155532 -461.9153879)
5(-235.6705195 -310.3054112 -384.1148055 -440.073191 -478.3251706)
5(-254.6086006 -329.2948372 -401.9353201 -453.7269699 -486.4944448)
5(-269.6936478 -343.1215911 -412.864895 -458.7522547 -485.4589065)
5(-281.3318799 -350.655123 -415.829329 -455.1757402 -475.5450367)
5(-286.8937778 -351.7164144 -410.6141316 -443.2445484 -456.9589109)
5(-287.5446201 -345.374941 -397.3430807 -423.121528 -430.9497742)
5(-281.4248033 -332.0521695 -376.754038 -394.9837343 -397.2387382)
5(-269.3868994 -312.6370431 -348.9437463 -360.4214021 -358.6392785)
5(-251.1362291 -285.6407088 -313.9475605 -320.5914642 -322.2330893)
5(-227.9576754 -252.6945997 -273.085471 -276.6302176 -275.1042462)
5(-198.0063973 -214.9065923 -228.9475439 -230.5478828 -228.6112221)
5(-159.8333138 -173.7065523 -183.6436884 -185.2994929 -186.1434779)
5(-122.1429241 -132.0661558 -137.2294256 -140.5820826 -147.8377155)
5(-79.27303132 -87.07909771 -91.60401524 -99.78079322 -110.366681)
5(-39.36102056 -39.92950158 -49.69227965 -64.17485952 -84.20132434)
5(2.317737887 1.394505275 -9.55195435 -34.82439269 -59.61825785)
5(46.42764835 41.3913679 25.84944286 -8.645335702 -40.46346749)
5(82.48039089 77.86589718 59.26489127 13.16747916 -24.09364717)
5(121.2824745 103.4684317 78.42516393 32.32319713 -9.793201518)
5(157.6961532 130.418162 92.13418682 50.04363373 10.79805331)
5(176.9973205 151.0433225 106.507276 65.4041351 23.03906762)
5(194.932685 162.3979066 123.7147556 74.76262012 46.57579737)
5(212.467831 167.7247799 135.6778938 82.54190025 61.40187154)
5(229.7580498 171.062995 131.4558642 81.05005345 55.86605175)
5(228.3228437 179.7148252 123.5680035 68.12631879 38.56247159)
5(218.2570927 165.3242656 101.695798 53.86098613 55.79052651)
5(213.1330348 163.3620898 69.18837502 36.91468046 21.64362913)
5(164.0302128 103.0891316 46.26565965 5.210428747 3.48680393)
5(123.3209919 62.01125693 4.540565899 -0.7102055384 -18.90879034)
5(84.42820416 27.76815508 -29.53042987 -42.16961417 -32.77173485)
5(44.02764571 -23.35833115 -70.54090284 -67.17610084 20.38019245)
5(-5.431927094 -39.15542283 -85.18876618 -90.39681374 -73.99916343)
5(3.811449648 -88.06508159 -104.8478467 -96.21119577 -70.9602074)
5(-76.43420722 -115.4008768 -131.1384266 -129.3476578 -70.08051703)
5(-41.26151263 -119.3009896 -209.6980914 -141.6786139 -140.5564477)
)


60
(
5(-23.65021648 -36.34161944 -82.10940257 -127.6277777 -203.4327756)
5(-21.93506563 -36.13305247 -65.59721449 -100.0917279 -142.2768625)
5(-21.34848771 -35.90675065 -58.0076816 -84.2941126 -108.3743934)
5(-21.61831747 -35.67653256 -54.30772224 -73.22301314 -85.28330834)
5(-22.78307773 -35.85371504 -51.71901032 -63.57109503 -65.49458905)
5(-24.38794161 -36.22342615 -48.72669492 -53.95863265 -47.03649357)
5(-25.95714804 -36.38800503 -45.09097288 -44.36369063 -30.33249622)
5(-27.43102856 -36.42411903 -41.32699832 -35.79762101 -17.39570319)
5(-28.97456514 -36.51785921 -38.05276089 -29.21376754 -8.945122075)
5(-30.68592415 -36.9826787 -36.04812669 -25.65733395 -5.798277454)
5(-32.77269907 -38.25179445 -35.99230404 -25.9960766 -9.279314548)
5(-35.43933451 -40.85848416 -38.75519035 -31.26148005 -19.83135967)
5(-39.01864576 -45.40289392 -45.08792393 -42.20508874 -37.84635018)
5(-43.9164128 -52.57555251 -55.80793392 -59.30375047 -63.34019035)
5(-50.58630505 -62.88399016 -71.4416553 -82.71063924 -95.80600055)
5(-59.48050382 -76.78358741 -92.31881658 -112.3830957 -134.6845158)
5(-70.9601708 -94.56028854 -118.4810331 -147.8687377 -179.1749089)
5(-85.35652773 -116.4288751 -149.6425658 -188.5384747 -228.0512661)
5(-102.6938433 -142.2642861 -185.2834647 -233.1847319 -280.0525881)
5(-123.1157491 -171.550035 -224.3615566 -280.5626579 -333.085143)
5(-146.2776278 -203.6541971 -265.9308411 -329.0540986 -385.7133539)
5(-171.5661142 -237.4808733 -308.4669238 -376.8531055 -436.0498472)
5(-198.5586182 -272.2355525 -350.4707333 -422.2312413 -481.4890654)
5(-226.5344363 -306.6036132 -390.1250445 -463.2847118 -521.2927657)
5(-253.3305571 -338.8247152 -425.8651811 -498.7613375 -552.7591438)
5(-279.4712743 -367.2080004 -456.1125602 -526.9482505 -576.9993356)
5(-302.8338851 -391.2660345 -479.5837467 -545.9787341 -589.2482301)
5(-323.0613984 -409.5637888 -495.2988641 -554.8292984 -590.3706441)
5(-337.6424609 -420.751777 -500.8587655 -553.9397346 -582.8868225)
5(-343.8973379 -423.8102087 -496.6854887 -543.345938 -562.0725307)
5(-344.8161022 -418.9642057 -483.2137152 -521.1277198 -536.5861142)
5(-340.7558891 -406.0555072 -460.5072227 -489.2906275 -502.2931903)
5(-327.6888284 -383.9615425 -428.7740794 -449.6090459 -452.0929001)
5(-305.6881511 -353.0463242 -388.7732945 -403.1038948 -401.6389113)
5(-277.1996016 -314.3967405 -342.7063089 -351.281198 -350.3008242)
5(-242.292497 -269.1420743 -289.9039989 -296.266026 -293.3951978)
5(-200.921033 -220.1298179 -233.3987477 -239.8363228 -239.0581962)
5(-153.4410132 -166.2179394 -175.3911548 -181.6402764 -184.1489267)
5(-103.914548 -110.6355971 -118.3791889 -124.6414957 -138.5609823)
5(-48.67944 -55.98783778 -62.85881334 -73.98480151 -95.17500238)
5(1.466955779 -3.778757324 -8.405023921 -31.86500779 -57.69467003)
5(52.93821314 46.54323686 39.89044424 6.180289846 -25.53798045)
5(103.9119106 95.55748153 75.2839337 36.18343747 0.8109441247)
5(150.7478284 136.8845622 106.8438761 63.26418044 12.19235003)
5(196.7301325 170.3933434 134.2344309 86.71841559 39.99355665)
5(236.0228487 200.8312216 155.913441 102.1941521 39.01454637)
5(262.6517075 229.1966005 172.3343231 112.4839142 69.68177195)
5(278.6233216 239.9380719 180.4041813 121.1731817 62.04532333)
5(302.35631 248.06586 189.4995886 120.4432881 95.51168928)
5(315.7312348 251.0727828 190.3788353 117.5224945 79.15421506)
5(293.384714 244.4918765 181.1643283 102.9879773 57.25580422)
5(270.8264318 224.591439 159.0969796 84.99966496 39.16811409)
5(258.0824301 186.3016042 145.7216836 50.11469335 13.3795348)
5(233.2192117 157.2251122 80.1671074 20.84667262 27.06078605)
5(195.3103466 123.6855161 61.78182291 -23.64364509 -0.9450658439)
5(143.7529809 63.76348779 4.374147936 -61.61712792 -69.72777655)
5(103.4669047 21.41281353 -50.30346204 -76.70295502 -27.12566829)
5(52.00629134 -22.75377163 -66.85369914 -103.7949899 -96.47621899)
5(11.23152587 -56.74938312 -111.8787549 -101.3045021 -134.660032)
5(13.76605216 55.17670027 136.8217367 -139.653398 -152.557206)
)


60
(
5(-29.3411925 -46.71666553 -103.8944149 -164.8689817 -257.0142649)
5(-27.716338 -46.49715401 -83.97216721 -128.9918986 -180.4493743)
5(-27.12632413 -45.91911454 -74.08963723 -107.2892129 -135.7764608)
5(-27.38118979 -45.06639444 -68.2953866 -91.14281431 -103.8820441)
5(-28.56459216 -44.55936109 -63.47510397 -76.77420101 -76.40956215)
5(-30.14416417 -44.17830452 -58.17110037 -62.77100968 -51.45485146)
5(-31.59036931 -43.42057618 -52.23450763 -49.28163671 -29.80005729)
5(-32.8563119 -42.44625639 -46.24366822 -37.38193699 -13.07984584)
5(-34.0940927 -41.49783018 -41.01480688 -28.29484705 -2.583042238)
5(-35.48903619 -41.02619117 -37.49096143 -23.12797239 1.096007616)
5(-37.24684583 -41.60391775 -36.59008212 -23.08340835 -3.374897165)
5(-39.72938854 -43.87626644 -39.18771502 -29.07237162 -16.29515623)
5(-43.33118044 -48.57019378 -46.35238206 -41.88579349 -37.9616085)
5(-48.57281229 -56.44755319 -58.73811099 -61.92019621 -68.35067646)
5(-55.92555489 -68.14884551 -77.02416105 -89.44553709 -106.6457721)