/*--------------------------------*- C++ -*----------------------------------*\
| =========                 |                                                 |
| \\      /  F ield         | OpenFOAM: The Open Source CFD Toolbox           |
|  \\    /   O peration     | Version:  2.3.1                                 |
|   \\  /    A nd           | Web:      www.OpenFOAM.org                      |
|    \\/     M anipulation  |                                                 |
\*---------------------------------------------------------------------------*/
FoamFile
{
    version     2.0;
    format      ascii;
    class       dictionary;
    location    "constant";
    object      T;
}
// * * * * * * * * * * * * * * * * * * * * * * * * * * * * * * * * * * * * * //

T_table
60
(

60
(
5(332.9580914 332.9569925 332.9548168 332.9536707 332.9518784)
5(351.5414763 339.5204996 347.4196216 352.245613 344.5050412)
5(343.1239591 389.1531697 372.1417594 375.7396978 324.4840272)
5(350.5365957 429.1086572 414.8202861 401.1829654 421.6308341)
5(406.1521253 461.7461953 449.5798902 451.8685181 443.9321475)
5(470.8128463 493.7753851 466.3215158 488.5364139 470.7125569)
5(512.8043422 526.8885947 505.7840608 518.8257573 522.2209119)
5(536.1791938 561.8667468 550.7338078 559.3820631 540.8183066)
5(577.0194965 597.6817474 584.4863671 597.4740376 587.3754504)
5(609.4722093 633.2783398 624.9175463 632.5351254 626.8508722)
5(643.8956446 667.2170692 659.929162 669.02845 664.1248451)
5(677.0081964 700.9246362 692.1287739 704.7817431 698.6727107)
5(708.0314612 734.69386 726.2118112 741.6549204 736.2967802)
5(743.2424781 768.2539327 761.2918911 774.6965824 771.2208118)
5(773.6468311 800.30033 794.6696905 810.5821438 806.8486005)
5(806.5568908 833.2619377 829.3500771 845.2357892 842.5490667)
5(838.47992 865.4689105 863.0690858 879.4795002 878.5546079)
5(870.0560621 897.5301005 896.5260568 914.0150667 913.6863354)
5(901.2331217 929.5278281 929.7531911 947.4209743 948.2369507)
5(933.1563506 962.1351643 963.3724588 982.0212892 982.3117129)
5(963.9207769 992.9348031 995.3339759 1014.801858 1016.243641)
5(994.8300577 1024.131049 1028.206276 1045.428874 1048.554137)
5(1026.185534 1055.569395 1060.359538 1079.615183 1083.48052)
5(1056.347545 1087.29919 1092.60333 1112.136518 1116.565135)
5(1087.048375 1118.167843 1124.937003 1145.133469 1150.219808)
5(1117.315193 1148.705321 1157.583348 1178.150241 1183.032821)
5(1147.606478 1178.903006 1188.436576 1210.408815 1215.796103)
5(1177.345082 1209.30672 1220.399156 1242.291667 1248.152677)
5(1207.877939 1239.892409 1251.245847 1273.458872 1280.512948)
5(1237.718378 1270.489117 1282.157154 1303.947728 1312.095092)
5(1267.80215 1300.825575 1313.686102 1335.757969 1344.020265)
5(1297.390672 1330.441864 1343.816821 1365.501091 1373.118398)
5(1326.69681 1360.342994 1374.701296 1396.226585 1406.580494)
5(1356.195824 1390.251512 1405.734893 1426.369871 1435.032887)
5(1385.568656 1419.472917 1435.608723 1456.571205 1465.897387)
5(1414.660222 1449.459491 1467.197851 1486.831651 1496.410894)
5(1443.615504 1477.336671 1494.316819 1515.390008 1526.803393)
5(1472.330334 1506.87467 1523.827254 1545.520827 1551.31873)
5(1501.155348 1535.296652 1553.792791 1574.179662 1586.219074)
5(1530.29985 1563.920973 1583.97942 1603.807221 1598.293065)
5(1558.365431 1591.285441 1611.127595 1631.77837 1629.584959)
5(1585.797524 1619.004137 1639.012835 1654.548508 1660.281686)
5(1613.346848 1645.613041 1666.046407 1670.037945 1691.466118)
5(1640.823679 1673.661357 1698.427328 1699.908507 1723.117145)
5(1667.952081 1700.092692 1724.204195 1729.955774 1753.138609)
5(1693.739434 1727.19826 1748.852697 1760.025607 1783.510076)
5(1719.493398 1751.959458 1761.849922 1789.897318 1813.925413)
5(1744.352726 1773.027892 1785.325784 1819.375944 1844.249713)
5(1770.024705 1800.18664 1813.808668 1848.751661 1874.430167)
5(1794.790279 1809.74875 1842.730285 1877.971883 1904.359984)
5(1817.891609 1837.133973 1871.531648 1907.189617 1934.153501)
5(1829.703548 1864.985657 1900.192406 1936.24577 1963.811426)
5(1850.984112 1892.747695 1928.729077 1965.198541 1993.353038)
5(1877.359387 1920.276625 1957.243688 1993.938151 2022.922762)
5(1904.587228 1947.702478 1985.666981 2022.718782 2052.302967)
5(1933.560091 1975.162677 2014.065038 2051.119365 2081.484301)
5(1964.611196 2002.83316 2042.51203 2079.457498 2110.047006)
5(1995.026408 2032.399373 2071.306876 2107.541206 2137.756344)
5(2024.428005 2063.331233 2102.836895 2125.303132 2165.114681)
5(2054.847233 2099.644896 2142.520155 2185.5834 2212.648318)
)


60
(
5(337.6094134 344.8910805 338.2406696 341.9101353 338.6179519)
5(367.5647418 381.678537 366.3750682 374.3721002 364.4814065)
5(400.0479714 418.2012328 399.3400089 410.0001123 396.7769187)
5(434.7581559 454.4966044 436.451679 447.8676696 434.9978725)
5(470.7409128 490.6892097 475.4125495 486.695577 476.3763106)
5(506.9983956 526.5620631 514.0002796 525.0282549 517.4950784)
5(542.1580913 561.9617696 550.9779679 562.63031 556.5282292)
5(576.343795 596.8166176 587.1236406 599.4426424 594.1117428)
5(610.0696526 631.2245731 622.695667 635.6716102 631.1145834)
5(643.7667394 665.4445795 658.1731848 671.7671816 668.0419645)
5(677.0865181 699.4001193 693.4671298 707.5786573 704.9417228)
5(710.3180804 733.0022053 728.5598486 743.0295221 741.5555793)
5(743.1642254 766.3200336 763.2417491 778.1043179 777.6031403)
5(775.6778753 799.3135082 797.5230793 812.9012966 813.2568783)
5(807.9071303 831.9991984 831.4638926 847.2845857 848.5369185)
5(839.9250654 864.4792015 865.1757524 881.378259 883.4859569)
5(871.6569555 896.6999383 898.6358825 915.2283607 918.1396844)
5(903.1895167 928.7043255 931.8172053 948.7726739 952.4979732)
5(934.5270819 960.4513368 964.7450539 982.0880383 986.5719564)
5(965.6576316 992.0280114 997.4354803 1015.167632 1020.429123)
5(996.6229309 1023.418802 1029.930431 1047.976032 1053.941146)
5(1027.405131 1054.633171 1062.181417 1080.587376 1087.215527)
5(1058.023035 1085.647403 1094.236266 1112.927498 1120.262725)
5(1088.534184 1116.51399 1126.116775 1145.000541 1153.016637)
5(1118.855837 1147.188684 1157.753718 1176.921839 1185.548004)
5(1149.070354 1177.720064 1189.287864 1208.653501 1217.835958)
5(1179.137342 1208.053694 1220.568062 1240.171311 1249.877976)
5(1209.054279 1238.289473 1251.647677 1271.448352 1281.654923)
5(1238.847535 1268.362579 1282.568774 1302.495636 1313.266181)
5(1268.530269 1298.248411 1313.280075 1333.355049 1344.566415)
5(1298.072921 1327.980767 1343.811641 1363.993549 1375.687492)
5(1327.486271 1357.561288 1374.114103 1394.424584 1406.536142)
5(1356.766403 1386.980002 1404.272017 1424.626077 1437.130002)
5(1385.917209 1416.228592 1434.201739 1454.605984 1467.458955)
5(1414.906728 1445.314415 1463.941218 1484.347439 1497.538652)
5(1443.785121 1474.20288 1493.450052 1513.858827 1527.344372)
5(1472.436194 1502.876304 1522.725251 1543.064395 1556.926332)
5(1500.949277 1531.358137 1551.747706 1572.042041 1586.258275)
5(1529.229217 1559.517632 1580.472771 1600.755047 1615.205984)
5(1557.223592 1587.470134 1608.880046 1629.1065 1643.647639)
5(1584.913175 1614.999761 1636.862625 1657.09595 1671.484489)
5(1612.193694 1642.287585 1664.585476 1684.627809 1698.855091)
5(1639.122638 1669.074358 1691.888209 1711.62474 1725.881955)
5(1665.526366 1695.300663 1718.792976 1738.073183 1752.749392)
5(1691.354943 1721.174152 1745.179223 1764.058441 1779.4434)
5(1716.537183 1746.526745 1771.028784 1789.740033 1805.982047)
5(1741.109143 1771.394601 1796.257806 1815.252629 1832.425777)
5(1765.050693 1795.698156 1820.992863 1840.648633 1858.827469)
5(1788.468812 1819.511987 1845.394609 1865.947894 1885.293531)
5(1811.244245 1842.795081 1869.595759 1891.210477 1911.844255)
5(1833.588887 1865.633822 1893.663314 1916.468929 1938.486345)
5(1855.428365 1888.217052 1917.626856 1941.778582 1965.270985)
5(1876.951072 1910.68027 1941.576739 1967.105047 1992.07256)
5(1898.114422 1932.953247 1965.440317 1992.415566 2019.031404)
5(1918.956232 1955.159913 1989.216633 2017.739483 2045.954986)
5(1939.542915 1977.114516 2012.808236 2042.926687 2072.815226)
5(1959.742562 1998.710531 2036.130135 2067.83567 2099.41375)
5(1979.365912 2019.782893 2058.86686 2092.203529 2125.493942)
5(1997.693656 2039.632672 2080.416776 2115.412923 2150.408102)
5(2002.46829 2048.157787 2080.949602 2124.084203 2166.467938)
)


60
(
5(338.4958558 345.552134 339.3906641 343.2198842 339.8909654)
5(371.54683 383.9913787 371.1363304 378.2410527 370.1400103)
5(405.7389994 421.1395308 406.2843691 415.2011668 405.2840868)
5(440.7932839 457.5495459 443.7745948 453.3666473 444.035705)
5(476.5766023 493.6552641 482.2092475 491.9257862 484.643629)
5(512.2260005 529.4151971 520.1226986 530.0314308 524.8592231)
5(547.0360625 564.6129962 556.9302348 567.3739642 563.5348561)
5(581.1074552 599.3922682 592.9302983 604.0308059 601.0620383)
5(614.8066438 633.8052542 628.486546 640.2634782 638.038856)
5(648.2559908 667.9004213 663.7954512 676.199708 674.9535516)
5(681.4480302 701.6964906 698.9371111 711.8535576 711.5746893)
5(714.3871173 735.1645721 733.7518532 747.1424986 747.8422239)
5(747.0544046 768.3592112 768.2210906 782.0728115 783.6797645)
5(779.3837394 801.2435669 802.3140719 816.644539 819.0916465)
5(811.4478444 833.8374201 836.1086407 850.8657833 854.1371627)
5(843.2279002 866.1683078 869.5835856 884.797972 888.8486267)
5(874.8269968 898.2351235 902.8218094 918.4544683 923.2691775)
5(906.1762965 930.0860995 935.7654917 951.832401 957.3569045)
5(937.3183575 961.7175124 968.5028731 984.9414214 991.1957716)
5(968.2686976 993.144653 1000.974593 1017.823136 1024.760887)
5(999.0113032 1024.395041 1033.242834 1050.445629 1058.070923)
5(1029.646897 1055.455601 1065.266379 1082.808509 1091.074958)
5(1060.073546 1086.324361 1097.115678 1114.974013 1123.845457)
5(1090.361077 1117.015803 1128.749348 1146.883136 1156.363617)
5(1120.475925 1147.527857 1160.182989 1178.580081 1188.635796)
5(1150.4752 1177.875159 1191.406874 1210.087772 1220.648078)
5(1180.316597 1208.037591 1222.426449 1241.355357 1252.459244)
5(1209.988152 1238.077769 1253.28114 1272.445499 1284.006711)
5(1239.581581 1267.919694 1283.918981 1303.271794 1315.349867)
5(1268.997446 1297.603955 1314.393561 1333.93246 1346.432946)
5(1298.300834 1327.162282 1344.672498 1364.357479 1377.325463)
5(1327.456909 1356.526315 1374.739852 1394.576296 1407.963929)
5(1356.477243 1385.712004 1404.645434 1424.606219 1438.360703)
5(1385.352881 1414.779273 1434.354944 1454.409684 1468.518046)
5(1414.067273 1443.641764 1463.831917 1483.990468 1498.430405)
5(1442.551943 1472.323729 1493.141 1513.341362 1528.111719)
5(1470.935419 1500.783826 1522.208082 1542.447674 1557.548566)
5(1499.112827 1529.032889 1551.021736 1571.304112 1586.741791)
5(1527.028073 1557.036122 1579.541048 1599.874602 1615.559925)
5(1554.652718 1584.71289 1607.746066 1628.111036 1643.911025)
5(1581.901321 1612.064649 1635.634958 1655.977788 1671.760256)
5(1608.807785 1639.058076 1663.102691 1683.413333 1699.145394)
5(1635.209206 1665.564369 1690.154994 1710.313581 1726.157299)
5(1661.049266 1691.558389 1716.735396 1736.671027 1752.848927)
5(1686.26539 1716.938275 1742.746918 1762.549427 1779.29774)
5(1710.779764 1741.794487 1768.197311 1788.005552 1805.471292)
5(1734.549276 1766.060123 1793.017897 1813.159211 1831.440779)
5(1757.578322 1789.677724 1817.285478 1838.056033 1857.256899)
5(1779.905175 1812.642782 1841.123757 1862.727749 1882.989773)
5(1801.589831 1835.164544 1864.677734 1887.239916 1908.705922)
5(1822.727149 1857.237444 1887.996776 1911.656452 1934.437463)
5(1843.435554 1879.02483 1911.145742 1935.99711 1960.163456)
5(1863.860896 1900.604598 1934.145214 1960.271011 1985.887528)
5(1884.100612 1922.05547 1956.989156 1984.459175 2011.575706)
5(1904.186147 1943.243711 1979.642325 2008.552714 2037.245603)
5(1924.002867 1964.151297 2002.030093 2032.421325 2062.744386)
5(1943.349056 1984.620325 2023.977288 2055.95308 2087.933192)
5(1961.817014 2004.274677 2045.182517 2078.818462 2112.490434)
5(1977.880125 2021.982156 2064.656303 2100.20372 2135.677855)
5(1975.836569 2023.217617 2057.729012 2099.543783 2144.618891)
)


60
(
5(338.0820352 343.9311054 339.0034886 342.3010341 339.4982687)
5(372.7770742 383.2218022 372.6438863 378.5766781 372.1005943)
5(407.6248122 420.6615815 408.7356259 416.1106068 408.4896346)
5(442.7636608 457.0580611 446.3462744 454.3497058 447.490639)
5(478.2432261 493.0326762 484.3989049 492.713392 487.6086452)
5(513.5386101 528.6353894 521.9347064 530.6313048 527.3520951)
5(548.0880491 563.7309444 558.5354644 567.7840003 565.7687875)
5(581.9889219 598.3794965 594.4009517 604.3223353 603.1897981)
5(615.4763533 632.6442211 629.8174282 640.4442908 640.0807732)
5(648.7236107 666.6167445 664.974474 676.2526217 676.7781029)
5(681.7315915 700.2550826 699.8829856 711.7229766 713.1731395)
5(714.4434153 733.5966834 734.4786351 746.8360885 749.2231951)
5(746.8532459 766.6144626 768.7219803 781.6000058 784.8393325)
5(778.9845271 799.336491 802.6144558 816.0093859 820.0112352)
5(810.8448563 831.7681055 836.1938557 850.0613822 854.8669073)
5(842.4389125 863.9432499 869.4867665 883.8074868 889.3588004)
5(873.7843453 895.8680558 902.4979548 917.2852218 923.5535294)
5(904.9406444 927.547849 935.2298364 950.4456456 957.444191)
5(935.851612 959.0191263 967.7324794 983.3886728 991.0356985)
5(966.5909147 990.2723984 999.9784555 1016.05745 1024.3796)
5(997.1424952 1021.329953 1032.036362 1048.51161 1057.439668)
5(1027.510213 1052.223179 1063.847632 1080.683157 1090.222153)
5(1057.720532 1082.902395 1095.453828 1112.651883 1122.772306)
5(1087.798089 1113.396119 1126.828211 1144.382018 1155.062296)
5(1117.696741 1143.713347 1158.043803 1175.885662 1187.146308)
5(1147.440442 1173.885215 1189.044429 1207.178773 1218.948549)
5(1177.041302 1203.866036 1219.84904 1238.271379 1250.516572)
5(1206.488687 1233.684287 1250.451108 1269.143832 1281.886511)
5(1235.803266 1263.339115 1280.867436 1299.791564 1312.979661)
5(1264.970774 1292.825117 1311.097592 1330.260348 1343.913016)
5(1293.990578 1322.146161 1341.133976 1360.508479 1374.57258)
5(1322.865461 1351.302179 1370.957347 1390.550073 1405.050376)
5(1351.591454 1380.285891 1400.645351 1420.406026 1435.27866)
5(1380.151079 1409.10816 1430.113751 1450.036736 1465.298292)
5(1408.55112 1437.735869 1459.385849 1479.465461 1495.039412)
5(1436.764445 1466.188803 1488.441834 1508.686219 1524.604467)
5(1464.774028 1494.405991 1517.270132 1537.658949 1553.915387)
5(1492.555312 1522.412339 1545.871596 1566.377118 1582.949978)
5(1520.064271 1550.14667 1574.191305 1594.812779 1611.684582)
5(1547.259098 1577.564222 1602.206927 1622.926876 1639.943145)
5(1574.086181 1604.658916 1629.846862 1650.677849 1667.753587)
5(1600.450381 1631.323716 1657.078703 1677.979409 1695.105704)
5(1626.304392 1657.499568 1683.853766 1704.763928 1722.027914)
5(1651.550069 1683.105994 1710.118509 1730.98021 1748.592267)
5(1676.111499 1708.098663 1735.791677 1756.673291 1774.798714)
5(1699.910698 1732.406369 1760.776499 1781.870822 1800.657239)
5(1722.861984 1755.985997 1785.13296 1806.655012 1826.208045)
5(1745.045543 1778.875173 1808.829359 1831.082637 1851.478229)
5(1766.323406 1801.068956 1832.055191 1855.188546 1876.61192)
5(1786.989351 1822.660642 1854.890576 1879.04214 1901.60429)
5(1806.940266 1843.775931 1877.404603 1902.691166 1926.542219)
5(1826.352132 1864.563034 1899.694933 1926.232099 1951.435504)
5(1845.462742 1885.165345 1921.810649 1949.628369 1976.264868)
5(1864.412365 1905.583527 1943.74369 1972.897936 2001.003077)
5(1883.255064 1925.785993 1965.445771 1995.985405 2025.654317)
5(1901.936403 1945.735658 1986.851038 2018.802707 2050.101348)
5(1920.251662 1965.166625 2007.766535 2041.233895 2074.128588)
5(1937.596029 1983.610524 2027.707131 2062.770054 2097.402869)
5(1952.199342 1999.625533 2045.303754 2082.410229 2118.956188)
5(1947.41159 1989.596411 2033.532878 2079.477458 2119.182608)
)


60
(
5(337.1641239 341.6481074 338.0106806 340.6130312 338.427689)
5(372.871501 381.4875815 372.8060741 377.599425 372.5031119)
5(408.0446727 419.051921 409.369603 415.4090948 409.5655735)
5(443.0912123 455.3170862 446.9266881 453.5885682 448.579409)
5(478.2951957 491.1010923 484.6661091 491.7310462 488.3540201)
5(513.2746745 526.5236348 521.8560354 529.4071154 527.7056741)
5(547.5379347 561.4118296 558.1987111 566.3550847 565.8497956)
5(581.1996095 595.8693564 593.8505577 602.7318081 603.0901263)
5(614.4751724 629.9566334 629.0571956 638.6528391 639.8025843)
5(647.4815002 663.6974733 663.9832056 674.2582117 676.2656962)
5(680.2365273 697.1566881 698.6477363 709.5199361 712.4249715)
5(712.6957022 730.275017 732.9890209 744.4409289 748.2158058)
5(744.8687305 763.0837367 766.9895633 778.9719682 783.5764452)
5(776.716638 795.6111048 800.6233091 813.1640893 818.5384355)
5(808.3390118 827.8408686 833.950683 847.0061718 853.1196471)
5(839.6991084 859.8120111 866.9624715 880.546304 887.3724835)
5(870.8078758 891.5131263 899.7348579 913.7862159 921.3248816)
5(901.7001814 922.9861416 932.2339006 946.722156 954.9670251)
5(932.3811895 954.2352614 964.4628371 979.4548092 988.3274857)
5(962.8591663 985.2697367 996.4693952 1011.90325 1021.415093)
5(993.1592343 1016.111796 1028.260229 1044.113646 1054.243935)
5(1023.296434 1046.768977 1059.815984 1076.08602 1086.78572)
5(1053.249979 1077.219831 1091.154046 1107.808789 1119.099136)
5(1083.039736 1107.496375 1122.293362 1139.303397 1151.152553)
5(1112.682249 1137.593801 1153.235229 1170.59537 1182.979153)
5(1142.159538 1167.496381 1183.969626 1201.671986 1214.560211)
5(1171.497393 1197.263468 1214.507676 1232.537589 1245.92848)
5(1200.672212 1226.839569 1244.848063 1263.184435 1277.062223)
5(1229.701826 1256.238054 1275.00439 1293.637115 1307.964583)
5(1258.57082 1285.477543 1304.966227 1323.873573 1338.650173)
5(1287.297894 1314.561291 1334.737773 1353.910108 1369.123037)
5(1315.872568 1343.459552 1364.312384 1383.746399 1399.354716)
5(1344.282324 1372.194128 1393.710447 1413.393438 1429.424333)
5(1372.519808 1400.728013 1422.928483 1442.827299 1459.24009)
5(1400.562325 1429.088342 1451.923788 1472.058091 1488.832698)
5(1428.405744 1457.258459 1480.726376 1501.07435 1518.206163)
5(1456.031556 1485.181802 1509.297821 1529.847075 1547.350982)
5(1483.397383 1512.872887 1537.616703 1558.38882 1576.23233)
5(1510.467134 1540.314277 1565.66765 1586.645216 1604.807331)
5(1537.187075 1567.406558 1593.381855 1614.585401 1632.971223)
5(1563.492036 1594.13735 1620.749156 1642.163641 1660.649849)
5(1589.31306 1620.408996 1647.690284 1669.283082 1687.886266)
5(1614.553405 1646.166339 1674.133529 1695.891719 1714.709804)
5(1639.152975 1671.335073 1700.027273 1721.915761 1741.110506)
5(1663.013363 1695.80618 1725.274918 1747.365918 1767.094501)
5(1686.131867 1719.553725 1749.831049 1772.271875 1792.637089)
5(1708.395275 1742.510595 1773.636458 1796.650679 1817.77854)
5(1729.829457 1764.652745 1796.720821 1820.552178 1842.572879)
5(1750.360113 1786.009955 1819.187722 1844.070774 1867.093673)
5(1770.063908 1806.651758 1841.180987 1867.200309 1891.388169)
5(1789.008098 1826.724363 1862.751611 1890.065656 1915.554857)
5(1807.30431 1846.327231 1884.001563 1912.71325 1939.604371)
5(1825.07214 1865.62533 1905.046891 1935.171501 1963.537936)
5(1842.490851 1884.699771 1925.915798 1957.524691 1987.40863)
5(1859.6577 1903.572542 1946.565774 1979.659818 2011.086003)
5(1876.678301 1922.201607 1966.907965 2001.469548 2034.50001)
5(1893.308393 1940.379973 1986.716985 2022.771779 2057.413483)
5(1909.070953 1957.553239 2005.334779 2043.08114 2079.451443)
5(1922.20843 1971.955418 2021.08077 2061.004562 2099.380868)
5(1915.299408 1961.358503 2003.181415 2051.435635 2090.644923)
)


60
(
5(336.1211912 339.3296136 336.8297341 338.7364909 337.1452471)
5(372.5230742 379.5471476 372.3881492 376.1759792 372.2262966)
5(407.8682338 417.1326855 409.2009605 414.0967471 409.690132)
5(442.7667219 453.248353 446.6438309 452.1571438 448.6183871)
5(477.6869258 488.8147128 484.0726292 490.0623897 488.0692377)
5(512.356853 523.9986052 520.932318 527.4763683 527.0738152)
5(546.3575215 558.6581645 556.9817326 564.1949022 564.942868)
5(579.7609518 592.89842 592.3985594 600.3458062 601.957526)
5(612.7915658 626.7472002 627.3456581 636.0543673 638.4483496)
5(645.5444458 660.2812368 662.0251092 671.421996 674.6711708)
5(678.0302265 693.4780685 696.4000993 706.4489658 710.5608278)
5(710.2352838 726.3755387 730.4753564 741.1212035 746.0926078)
5(742.1367884 758.9517388 764.1885271 775.4198224 781.1850928)
5(773.7609152 791.2306419 797.5612298 809.3681325 815.8980398)
5(805.1002508 823.2299417 830.6129668 842.977165 850.2260515)
5(836.1953423 854.9544698 863.3713282 876.2786155 884.2388998)
5(867.0560031 886.4350205 895.8588922 909.271559 917.9198087)
5(897.6850274 917.6592532 928.0691127 942.0007434 951.3120346)
5(928.1145988 948.6667401 960.0417293 974.4567335 984.4174441)
5(958.3309222 979.4591799 991.7685561 1006.670827 1017.252033)
5(988.3700556 1010.055219 1023.277871 1038.643798 1049.826843)
5(1018.243019 1040.461496 1054.568951 1070.359838 1082.135155)
5(1047.928839 1070.673247 1085.634151 1101.844553 1114.200161)
5(1077.456932 1100.696695 1116.498475 1133.106926 1146.015673)
5(1106.830669 1130.537121 1147.161326 1164.154929 1177.591447)
5(1136.035296 1160.211068 1177.620122 1194.992985 1208.942039)
5(1165.079478 1189.700933 1207.877192 1225.62566 1240.060867)
5(1193.977867 1219.019183 1237.95159 1256.0336 1270.947475)
5(1222.730439 1248.16545 1267.828631 1286.243494 1301.630724)
5(1251.309719 1277.148392 1297.510508 1316.255767 1332.103633)
5(1279.727346 1305.944124 1326.99911 1346.058609 1362.349623)
5(1307.97804 1334.556541 1356.315328 1375.665598 1392.390451)
5(1336.060966 1363.019171 1385.423214 1405.078543 1422.221567)
5(1363.96536 1391.271546 1414.344802 1434.292734 1451.824239)
5(1391.655081 1419.328268 1443.048425 1463.294673 1481.215668)
5(1419.12087 1447.172162 1471.543774 1492.072488 1510.384608)
5(1446.330195 1474.772141 1499.82587 1520.62652 1539.336175)
5(1473.256372 1502.135371 1527.833383 1548.930406 1568.038805)
5(1499.846283 1529.193911 1555.561877 1576.965296 1596.4169)
5(1526.048473 1555.886239 1582.97302 1604.667479 1624.40867)
5(1551.798409 1582.205867 1609.976176 1632.018686 1651.940039)
5(1577.009036 1608.037594 1636.572177 1658.908308 1679.036642)
5(1601.61926 1633.311342 1662.622115 1685.270878 1705.687525)
5(1625.586761 1657.980607 1688.12073 1711.056166 1731.881829)
5(1648.848614 1681.929972 1712.908794 1736.233422 1757.613964)
5(1671.326789 1705.117189 1736.950908 1760.790708 1782.8588)
5(1692.972231 1727.472925 1760.176554 1784.759062 1807.589462)
5(1713.762299 1748.95206 1782.579341 1808.120191 1831.875698)
5(1733.694858 1769.575809 1804.342272 1830.940665 1855.777311)
5(1752.747071 1789.384415 1825.407763 1853.290082 1879.363354)
5(1770.957277 1808.513119 1845.897384 1875.217571 1902.646245)
5(1788.385477 1826.991935 1865.946707 1896.85558 1925.854849)
5(1805.132149 1844.952813 1885.644079 1918.254259 1948.853665)
5(1821.283525 1862.469659 1905.075509 1939.448744 1971.69345)
5(1836.975953 1879.671365 1924.286385 1960.448776 1994.344253)
5(1852.228414 1896.49301 1943.200388 1981.107742 2016.656037)
5(1866.934945 1912.85674 1961.547393 2001.141268 2038.448075)
5(1880.692852 1928.205657 1978.623459 2019.975604 2059.101377)
5(1891.953496 1940.96533 1992.235346 2035.672476 2077.091068)
5(1883.879178 1928.134919 1973.864226 2022.225285 2065.372658)
)


60
(
5(335.126136 337.2446366 335.6732511 336.9706925 335.8646177)
5(372.0844312 377.7596181 371.7656781 374.6798629 371.6512189)
5(407.5350209 415.340071 408.7042179 412.5969754 409.3258716)
5(442.2755088 451.2821331 445.9775788 450.479133 448.1170163)
5(476.9535596 486.6255367 483.0961503 488.1040725 487.2198673)
5(511.3598435 521.5755305 519.6198285 525.2371396 525.8532884)
5(545.1091009 556.0058039 555.3729917 561.674524 563.4337381)
5(578.2769347 590.0077959 590.5167956 597.5700269 600.1609789)
5(611.0850352 623.6295741 625.1911944 633.0048501 636.3976095)
5(643.5922182 656.9191379 659.5875852 668.112791 672.3258349)
5(675.8420096 689.8837441 693.6721045 702.8557675 707.9303462)
5(707.7923245 722.5392606 727.4559316 737.2544103 743.15634)
5(739.4635764 754.8716476 760.8741172 771.2768993 777.9675087)
5(770.8365572 786.9240451 793.964598 804.9545662 812.3824777)
5(801.9443362 818.6747741 826.7231545 838.2904366 846.435816)
5(832.8031623 850.1691404 859.1999272 871.3196214 880.1621507)
5(863.417916 881.392757 891.396534 904.044512 913.5680443)
5(893.8208778 912.3851955 923.3230427 936.5030532 946.6747479)
5(923.9957066 943.1510351 955.0077248 968.68613 979.4992243)
5(953.979226 973.6948454 986.4438821 1000.63114 1012.056047)
5(983.7689526 1004.054071 1017.6739 1032.329803 1044.360481)
5(1013.391199 1034.203045 1048.668792 1063.78122 1076.389351)
5(1042.85014 1064.166819 1079.457167 1095.006314 1108.183668)
5(1072.120083 1093.945941 1110.034056 1125.995235 1139.728735)
5(1101.232591 1123.54391 1140.40811 1156.781868 1171.04176)
5(1130.196611 1152.948596 1170.586689 1187.355309 1202.13566)
5(1158.981191 1182.195819 1200.559937 1217.720102 1232.987931)
5(1187.61843 1211.253663 1230.357541 1247.877757 1263.626442)
5(1216.092257 1240.143849 1259.932221 1277.820783 1294.058983)
5(1244.392298 1268.852496 1289.328604 1307.584156 1324.257325)
5(1272.516613 1297.378884 1318.529272 1337.111024 1354.260564)
5(1300.486672 1325.730767 1347.547355 1366.465605 1384.050323)
5(1328.260779 1353.886179 1376.363022 1395.611603 1413.633642)
5(1355.814405 1381.844226 1404.967082 1424.562249 1442.994172)
5(1383.146821 1409.594002 1433.387428 1453.299988 1472.150344)
5(1410.22966 1437.09989 1461.553047 1481.815737 1501.091865)
5(1437.027534 1464.381301 1489.504647 1510.106291 1529.792369)
5(1463.501806 1491.350723 1517.176339 1538.142368 1558.256512)
5(1489.599084 1518.016705 1544.547447 1565.884059 1586.421349)
5(1515.268708 1544.303855 1571.5811 1593.298751 1614.17954)
5(1540.445791 1570.151001 1598.204703 1620.376655 1641.51391)
5(1565.080123 1595.503176 1624.369418 1646.970635 1668.40861)
5(1589.100853 1620.265815 1650.021373 1673.062896 1694.84005)
5(1612.434808 1644.392861 1675.036138 1698.520221 1720.816286)
5(1635.071017 1667.805683 1699.351049 1723.352776 1746.256133)
5(1656.961711 1690.447659 1722.867447 1747.539466 1771.159856)
5(1678.066373 1712.20948 1745.53346 1771.031652 1795.453564)
5(1698.360411 1733.140789 1767.371466 1793.828717 1819.204205)
5(1717.778915 1753.184186 1788.372952 1815.97592 1842.456653)
5(1736.332655 1772.342857 1808.588792 1837.42863 1865.24329)
5(1754.02088 1790.750001 1828.08313 1858.343152 1887.658153)
5(1770.842352 1808.371701 1846.932972 1878.791475 1909.76272)
5(1786.974202 1825.264551 1865.202257 1898.807486 1931.660908)
5(1802.363074 1841.542628 1883.005889 1918.624984 1953.32097)
5(1817.061963 1857.195981 1900.451944 1938.082669 1974.767447)
5(1831.03361 1872.243561 1917.463545 1957.145034 1995.817717)
5(1844.238768 1886.591053 1933.779293 1975.52091 2016.166086)
5(1856.296492 1899.847039 1948.832101 1992.524307 2035.185534)
5(1865.765717 1910.514458 1960.353817 2006.04356 2050.909629)
5(1856.893776 1898.812703 1939.652399 1985.870413 2028.158547)
)


60
(
5(334.268742 335.4942513 334.6424341 335.4519423 334.7231296)
5(371.6935635 376.2931679 371.1559711 373.3208484 371.0277284)
5(407.2238769 413.8713319 408.1554859 411.1769352 408.7841047)
5(441.8492613 449.6496317 445.2691074 448.8445683 447.3659402)
5(476.3203803 484.7712004 482.0919402 486.1921249 486.1147859)
5(510.4920712 519.5231402 518.2879593 523.0049014 524.375699)
5(544.0177523 553.7318863 553.7782442 559.1712348 561.6151483)
5(576.9886367 587.5175308 588.6385952 594.7677075 598.0484986)
5(609.5777565 620.9193327 623.0660435 629.9417322 633.9770749)
5(641.8894299 653.9835443 657.1633844 664.7418523 669.6016371)
5(673.9128746 686.727682 690.9901982 699.2181009 704.8762085)
5(705.6617926 719.1535065 724.4693827 733.3091854 739.7936544)
5(737.1040612 751.2674141 757.6252984 767.0545259 774.2776502)
5(768.2736359 783.0851113 790.4214403 800.4358218 808.3915123)
5(799.1580213 814.6207009 822.9188578 833.4973077 842.1279395)
5(829.8106164 845.8783107 855.1061121 866.2376466 875.5518244)
5(860.2100065 876.8914095 887.03833 898.6876744 908.6505738)
5(890.399568 907.6506588 918.6865626 930.8559256 941.4615425)
5(920.3581226 938.1927449 950.0933842 962.7653276 973.9794462)
5(950.1227211 968.5081089 981.2540998 994.4215763 1006.245049)
5(979.6936429 998.6318084 1012.203762 1025.84799 1038.236989)
5(1009.093443 1028.547519 1042.925524 1057.016078 1069.992314)
5(1038.325844 1058.284989 1073.438527 1087.969089 1101.480101)
5(1067.375137 1087.825425 1103.742302 1118.684174 1132.751663)
5(1096.271582 1117.177221 1133.847384 1149.200277 1163.771362)
5(1124.989324 1146.363948 1163.747769 1179.49872 1194.571333)
5(1153.54413 1175.36033 1193.447861 1209.582707 1225.158218)
5(1181.945237 1204.186125 1222.952557 1239.470128 1255.515258)
5(1210.15545 1232.819384 1252.267094 1269.154991 1285.66567)
5(1238.205242 1261.260936 1281.375807 1298.62588 1315.604289)
5(1266.08461 1289.549088 1310.29809 1327.896387 1345.324973)
5(1293.753892 1317.626835 1339.022017 1356.97317 1374.849719)
5(1321.211647 1345.501777 1367.550749 1385.856857 1404.163236)
5(1348.449127 1373.179918 1395.852863 1414.517205 1433.246874)
5(1375.441161 1400.608978 1423.952453 1442.967818 1462.131455)
5(1402.150818 1427.815016 1451.807448 1471.198008 1490.793773)
5(1428.540465 1454.729207 1479.395563 1499.18454 1519.216894)
5(1454.556365 1481.327274 1506.732635 1526.919094 1547.413271)
5(1480.16457 1507.568994 1533.737464 1554.364217 1575.291554)
5(1505.287531 1533.410771 1560.374092 1581.485501 1602.799021)
5(1529.899186 1558.782359 1586.580786 1608.203889 1629.887619)
5(1553.926227 1583.628161 1612.295494 1634.475922 1656.524184)
5(1577.339758 1607.857573 1637.470953 1660.202021 1682.685122)
5(1600.120316 1631.43013 1661.999138 1685.31916 1708.375265)
5(1622.192245 1654.281153 1685.806028 1709.785518 1733.525416)
5(1643.556831 1676.38509 1708.809831 1733.547976 1758.015632)