/*--------------------------------*- C++ -*----------------------------------*\
| =========                 |                                                 |
| \\      /  F ield         | OpenFOAM: The Open Source CFD Toolbox           |
|  \\    /   O peration     | Version:  2.3.1                                 |
|   \\  /    A nd           | Web:      www.OpenFOAM.org                      |
|    \\/     M anipulation  |                                                 |
\*---------------------------------------------------------------------------*/
FoamFile
{
    version     2.0;
    format      ascii;
    class       dictionary;
    location    "constant";
    object      theta3;
}
// * * * * * * * * * * * * * * * * * * * * * * * * * * * * * * * * * * * * * //

theta3_table
60
(

60
(
5(1 2 3 4 5)
5(1 2 3 4 5)
5(1 2 3 4 5)
5(1 2 3 4 5)
5(1 2 3 4 5)
5(1 2 3 4 5)
5(1 2 3 4 5)
5(1 2 3 4 5)
5(1 2 3 4 5)
5(1 2 3 4 5)
5(1 2 3 4 5)
5(1 2 3 4 5)
5(1 2 3 4 5)
5(1 2 3 4 5)
5(1 2 3 4 5)
5(1 2 3 4 5)
5(1 2 3 4 5)
5(1 2 3 4 5)
5(1 2 3 4 5)
5(1 2 3 4 5)
5(1 2 3 4 5)
5(1 2 3 4 5)
5(1 2 3 4 5)
5(1 2 3 4 5)
5(1 2 3 4 5)
5(1 2 3 4 5)
5(1 2 3 4 5)
5(1 2 3 4 5)
5(1 2 3 4 5)
5(1 2 3 4 5)
5(1 2 3 4 5)
5(1 2 3 4 5)
5(1 2 3 4 5)
5(1 2 3 4 5)
5(1 2 3 4 5)
5(1 2 3 4 5)
5(1 2 3 4 5)
5(1 2 3 4 5)
5(1 2 3 4 5)
5(1 2 3 4 5)
5(1 2 3 4 5)
5(1 2 3 4 5)
5(1 2 3 4 5)
5(1 2 3 4 5)
5(1 2 3 4 5)
5(1 2 3 4 5)
5(1 2 3 4 5)
5(1 2 3 4 5)
5(1 2 3 4 5)
5(1 2 3 4 5)
5(1 2 3 4 5)
5(1 2 3 4 5)
5(1 2 3 4 5)
5(1 2 3 4 5)
5(1 2 3 4 5)
5(1 2 3 4 5)
5(1 2 3 4 5)
5(1 2 3 4 5)
5(1 2 3 4 5)
5(1 2 3 4 5)
)


60
(
5(1 2 3 4 5)
5(1 2 3 4 5)
5(1 2 3 4 5)
5(1 2 3 4 5)
5(1 2 3 4 5)
5(1 2 3 4 5)
5(1 2 3 4 5)
5(1 2 3 4 5)
5(1 2 3 4 5)
5(1 2 3 4 5)
5(1 2 3 4 5)
5(1 2 3 4 5)
5(1 2 3 4 5)
5(1 2 3 4 5)
5(1 2 3 4 5)
5(1 2 3 4 5)
5(1 2 3 4 5)
5(1 2 3 4 5)
5(1 2 3 4 5)
5(1 2 3 4 5)
5(1 2 3 4 5)
5(1 2 3 4 5)
5(1 2 3 4 5)
5(1 2 3 4 5)
5(1 2 3 4 5)
5(1 2 3 4 5)
5(1 2 3 4 5)
5(1 2 3 4 5)
5(1 2 3 4 5)
5(1 2 3 4 5)
5(1 2 3 4 5)
5(1 2 3 4 5)
5(1 2 3 4 5)
5(1 2 3 4 5)
5(1 2 3 4 5)
5(1 2 3 4 5)
5(1 2 3 4 5)
5(1 2 3 4 5)
5(1 2 3 4 5)
5(1 2 3 4 5)
5(1 2 3 4 5)
5(1 2 3 4 5)
5(1 2 3 4 5)
5(1 2 3 4 5)
5(1 2 3 4 5)
5(1 2 3 4 5)
5(1 2 3 4 5)
5(1 2 3 4 5)
5(1 2 3 4 5)
5(1 2 3 4 5)
5(1 2 3 4 5)
5(1 2 3 4 5)
5(1 2 3 4 5)
5(1 2 3 4 5)
5(1 2 3 4 5)
5(1 2 3 4 5)
5(1 2 3 4 5)
5(1 2 3 4 5)
5(1 2 3 4 5)
5(1 2 3 4 5)
)


60
(
5(1 2 3 4 5)
5(1 2 3 4 5)
5(1 2 3 4 5)
5(1 2 3 4 5)
5(1 2 3 4 5)
5(1 2 3 4 5)
5(1 2 3 4 5)
5(1 2 3 4 5)
5(1 2 3 4 5)
5(1 2 3 4 5)
5(1 2 3 4 5)
5(1 2 3 4 5)
5(1 2 3 4 5)
5(1 2 3 4 5)
5(1 2 3 4 5)
5(1 2 3 4 5)
5(1 2 3 4 5)
5(1 2 3 4 5)
5(1 2 3 4 5)
5(1 2 3 4 5)
5(1 2 3 4 5)
5(1 2 3 4 5)
5(1 2 3 4 5)
5(1 2 3 4 5)
5(1 2 3 4 5)
5(1 2 3 4 5)
5(1 2 3 4 5)
5(1 2 3 4 5)
5(1 2 3 4 5)
5(1 2 3 4 5)
5(1 2 3 4 5)
5(1 2 3 4 5)
5(1 2 3 4 5)
5(1 2 3 4 5)
5(1 2 3 4 5)
5(1 2 3 4 5)
5(1 2 3 4 5)
5(1 2 3 4 5)
5(1 2 3 4 5)
5(1 2 3 4 5)
5(1 2 3 4 5)
5(1 2 3 4 5)
5(1 2 3 4 5)
5(1 2 3 4 5)
5(1 2 3 4 5)
5(1 2 3 4 5)
5(1 2 3 4 5)
5(1 2 3 4 5)
5(1 2 3 4 5)
5(1 2 3 4 5)
5(1 2 3 4 5)
5(1 2 3 4 5)
5(1 2 3 4 5)
5(1 2 3 4 5)
5(1 2 3 4 5)
5(1 2 3 4 5)
5(1 2 3 4 5)
5(1 2 3 4 5)
5(1 2 3 4 5)
5(1 2 3 4 5)
)


60
(
5(1 2 3 4 5)
5(1 2 3 4 5)
5(1 2 3 4 5)
5(1 2 3 4 5)
5(1 2 3 4 5)
5(1 2 3 4 5)
5(1 2 3 4 5)
5(1 2 3 4 5)
5(1 2 3 4 5)
5(1 2 3 4 5)
5(1 2 3 4 5)
5(1 2 3 4 5)
5(1 2 3 4 5)
5(1 2 3 4 5)
5(1 2 3 4 5)
5(1 2 3 4 5)
5(1 2 3 4 5)
5(1 2 3 4 5)
5(1 2 3 4 5)
5(1 2 3 4 5)
5(1 2 3 4 5)
5(1 2 3 4 5)
5(1 2 3 4 5)
5(1 2 3 4 5)
5(1 2 3 4 5)
5(1 2 3 4 5)
5(1 2 3 4 5)
5(1 2 3 4 5)
5(1 2 3 4 5)
5(1 2 3 4 5)
5(1 2 3 4 5)
5(1 2 3 4 5)
5(1 2 3 4 5)
5(1 2 3 4 5)
5(1 2 3 4 5)
5(1 2 3 4 5)
5(1 2 3 4 5)
5(1 2 3 4 5)
5(1 2 3 4 5)
5(1 2 3 4 5)
5(1 2 3 4 5)
5(1 2 3 4 5)
5(1 2 3 4 5)
5(1 2 3 4 5)
5(1 2 3 4 5)
5(1 2 3 4 5)
5(1 2 3 4 5)
5(1 2 3 4 5)
5(1 2 3 4 5)
5(1 2 3 4 5)
5(1 2 3 4 5)
5(1 2 3 4 5)
5(1 2 3 4 5)
5(1 2 3 4 5)
5(1 2 3 4 5)
5(1 2 3 4 5)
5(1 2 3 4 5)
5(1 2 3 4 5)
5(1 2 3 4 5)
5(1 2 3 4 5)
)


60
(
5(1 2 3 4 5)
5(1 2 3 4 5)
5(1 2 3 4 5)
5(1 2 3 4 5)
5(1 2 3 4 5)
5(1 2 3 4 5)
5(1 2 3 4 5)
5(1 2 3 4 5)
5(1 2 3 4 5)
5(1 2 3 4 5)
5(1 2 3 4 5)
5(1 2 3 4 5)
5(1 2 3 4 5)
5(1 2 3 4 5)
5(1 2 3 4 5)
5(1 2 3 4 5)
5(1 2 3 4 5)
5(1 2 3 4 5)
5(1 2 3 4 5)
5(1 2 3 4 5)
5(1 2 3 4 5)
5(1 2 3 4 5)
5(1 2 3 4 5)
5(1 2 3 4 5)
5(1 2 3 4 5)
5(1 2 3 4 5)
5(1 2 3 4 5)
5(1 2 3 4 5)
5(1 2 3 4 5)
5(1 2 3 4 5)
5(1 2 3 4 5)
5(1 2 3 4 5)
5(1 2 3 4 5)
5(1 2 3 4 5)
5(1 2 3 4 5)
5(1 2 3 4 5)
5(1 2 3 4 5)
5(1 2 3 4 5)
5(1 2 3 4 5)
5(1 2 3 4 5)
5(1 2 3 4 5)
5(1 2 3 4 5)
5(1 2 3 4 5)
5(1 2 3 4 5)
5(1 2 3 4 5)
5(1 2 3 4 5)
5(1 2 3 4 5)
5(1 2 3 4 5)
5(1 2 3 4 5)
5(1 2 3 4 5)
5(1 2 3 4 5)
5(1 2 3 4 5)
5(1 2 3 4 5)
5(1 2 3 4 5)
5(1 2 3 4 5)
5(1 2 3 4 5)
5(1 2 3 4 5)
5(1 2 3 4 5)
5(1 2 3 4 5)
5(1 2 3 4 5)
)


60
(
5(1 2 3 4 5)
5(1 2 3 4 5)
5(1 2 3 4 5)
5(1 2 3 4 5)
5(1 2 3 4 5)
5(1 2 3 4 5)
5(1 2 3 4 5)
5(1 2 3 4 5)
5(1 2 3 4 5)
5(1 2 3 4 5)
5(1 2 3 4 5)
5(1 2 3 4 5)
5(1 2 3 4 5)
5(1 2 3 4 5)
5(1 2 3 4 5)
5(1 2 3 4 5)
5(1 2 3 4 5)
5(1 2 3 4 5)
5(1 2 3 4 5)
5(1 2 3 4 5)
5(1 2 3 4 5)
5(1 2 3 4 5)
5(1 2 3 4 5)
5(1 2 3 4 5)
5(1 2 3 4 5)
5(1 2 3 4 5)
5(1 2 3 4 5)
5(1 2 3 4 5)
5(1 2 3 4 5)
5(1 2 3 4 5)
5(1 2 3 4 5)
5(1 2 3 4 5)
5(1 2 3 4 5)
5(1 2 3 4 5)
5(1 2 3 4 5)
5(1 2 3 4 5)
5(1 2 3 4 5)
5(1 2 3 4 5)
5(1 2 3 4 5)
5(1 2 3 4 5)
5(1 2 3 4 5)
5(1 2 3 4 5)
5(1 2 3 4 5)
5(1 2 3 4 5)
5(1 2 3 4 5)
5(1 2 3 4 5)
5(1 2 3 4 5)
5(1 2 3 4 5)
5(1 2 3 4 5)
5(1 2 3 4 5)
5(1 2 3 4 5)
5(1 2 3 4 5)
5(1 2 3 4 5)
5(1 2 3 4 5)
5(1 2 3 4 5)
5(1 2 3 4 5)
5(1 2 3 4 5)
5(1 2 3 4 5)
5(1 2 3 4 5)
5(1 2 3 4 5)
)


60
(
5(1 2 3 4 5)
5(1 2 3 4 5)
5(1 2 3 4 5)
5(1 2 3 4 5)
5(1 2 3 4 5)
5(1 2 3 4 5)
5(1 2 3 4 5)
5(1 2 3 4 5)
5(1 2 3 4 5)
5(1 2 3 4 5)
5(1 2 3 4 5)
5(1 2 3 4 5)
5(1 2 3 4 5)
5(1 2 3 4 5)
5(1 2 3 4 5)
5(1 2 3 4 5)
5(1 2 3 4 5)
5(1 2 3 4 5)
5(1 2 3 4 5)
5(1 2 3 4 5)
5(1 2 3 4 5)
5(1 2 3 4 5)
5(1 2 3 4 5)
5(1 2 3 4 5)
5(1 2 3 4 5)
5(1 2 3 4 5)
5(1 2 3 4 5)
5(1 2 3 4 5)
5(1 2 3 4 5)
5(1 2 3 4 5)
5(1 2 3 4 5)
5(1 2 3 4 5)
5(1 2 3 4 5)
5(1 2 3 4 5)
5(1 2 3 4 5)
5(1 2 3 4 5)
5(1 2 3 4 5)
5(1 2 3 4 5)
5(1 2 3 4 5)
5(1 2 3 4 5)
5(1 2 3 4 5)
5(1 2 3 4 5)
5(1 2 3 4 5)
5(1 2 3 4 5)
5(1 2 3 4 5)
5(1 2 3 4 5)
5(1 2 3 4 5)
5(1 2 3 4 5)
5(1 2 3 4 5)
5(1 2 3 4 5)
5(1 2 3 4 5)
5(1 2 3 4 5)
5(1 2 3 4 5)
5(1 2 3 4 5)
5(1 2 3 4 5)
5(1 2 3 4 5)
5(1 2 3 4 5)
5(1 2 3 4 5)
5(1 2 3 4 5)
5(1 2 3 4 5)
)


60
(
5(1 2 3 4 5)
5(1 2 3 4 5)
5(1 2 3 4 5)
5(1 2 3 4 5)
5(1 2 3 4 5)
5(1 2 3 4 5)
5(1 2 3 4 5)
5(1 2 3 4 5)
5(1 2 3 4 5)
5(1 2 3 4 5)
5(1 2 3 4 5)
5(1 2 3 4 5)
5(1 2 3 4 5)
5(1 2 3 4 5)
5(1 2 3 4 5)
5(1 2 3 4 5)
5(1 2 3 4 5)
5(1 2 3 4 5)
5(1 2 3 4 5)
5(1 2 3 4 5)
5(1 2 3 4 5)
5(1 2 3 4 5)
5(1 2 3 4 5)
5(1 2 3 4 5)
5(1 2 3 4 5)
5(1 2 3 4 5)
5(1 2 3 4 5)
5(1 2 3 4 5)
5(1 2 3 4 5)
5(1 2 3 4 5)
5(1 2 3 4 5)
5(1 2 3 4 5)
5(1 2 3 4 5)
5(1 2 3 4 5)
5(1 2 3 4 5)
5(1 2 3 4 5)
5(1 2 3 4 5)
5(1 2 3 4 5)
5(1 2 3 4 5)
5(1 2 3 4 5)
5(1 2 3 4 5)
5(1 2 3 4 5)
5(1 2 3 4 5)
5(1 2 3 4 5)
5(1 2 3 4 5)
5(1 2 3 4 5)
5(1 2 3 4 5)
5(1 2 3 4 5)
5(1 2 3 4 5)
5(1 2 3 4 5)
5(1 2 3 4 5)
5(1 2 3 4 5)
5(1 2 3 4 5)
5(1 2 3 4 5)
5(1 2 3 4 5)
5(1 2 3 4 5)
5(1 2 3 4 5)
5(1 2 3 4 5)
5(1 2 3 4 5)
5(1 2 3 4 5)
)


60
(
5(1 2 3 4 5)
5(1 2 3 4 5)
5(1 2 3 4 5)
5(1 2 3 4 5)
5(1 2 3 4 5)
5(1 2 3 4 5)
5(1 2 3 4 5)
5(1 2 3 4 5)
5(1 2 3 4 5)
5(1 2 3 4 5)
5(1 2 3 4 5)
5(1 2 3 4 5)
5(1 2 3 4 5)
5(1 2 3 4 5)
5(1 2 3 4 5)
5(1 2 3 4 5)
5(1 2 3 4 5)
5(1 2 3 4 5)
5(1 2 3 4 5)
5(1 2 3 4 5)
5(1 2 3 4 5)
5(1 2 3 4 5)
5(1 2 3 4 5)
5(1 2 3 4 5)
5(1 2 3 4 5)
5(1 2 3 4 5)
5(1 2 3 4 5)
5(1 2 3 4 5)
5(1 2 3 4 5)
5(1 2 3 4 5)
5(1 2 3 4 5)
5(1 2 3 4 5)
5(1 2 3 4 5)
5(1 2 3 4 5)
5(1 2 3 4 5)
5(1 2 3 4 5)
5(1 2 3 4 5)
5(1 2 3 4 5)
5(1 2 3 4 5)
5(1 2 3 4 5)
5(1 2 3 4 5)
5(1 2 3 4 5)
5(1 2 3 4 5)
5(1 2 3 4 5)
5(1 2 3 4 5)
5(1 2 3 4 5)
5(1 2 3 4 5)
5(1 2 3 4 5)
5(1 2 3 4 5)
5(1 2 3 4 5)
5(1 2 3 4 5)
5(1 2 3 4 5)
5(1 2 3 4 5)
5(1 2 3 4 5)
5(1 2 3 4 5)
5(1 2 3 4 5)
5(1 2 3 4 5)
5(1 2 3 4 5)
5(1 2 3 4 5)
5(1 2 3 4 5)
)


60
(
5(1 2 3 4 5)
5(1 2 3 4 5)
5(1 2 3 4 5)
5(1 2 3 4 5)
5(1 2 3 4 5)
5(1 2 3 4 5)
5(1 2 3 4 5)
5(1 2 3 4 5)
5(1 2 3 4 5)
5(1 2 3 4 5)
5(1 2 3 4 5)
5(1 2 3 4 5)
5(1 2 3 4 5)
5(1 2 3 4 5)
5(1 2 3 4 5)
5(1 2 3 4 5)
5(1 2 3 4 5)
5(1 2 3 4 5)
5(1 2 3 4 5)
5(1 2 3 4 5)
5(1 2 3 4 5)
5(1 2 3 4 5)
5(1 2 3 4 5)
5(1 2 3 4 5)
5(1 2 3 4 5)
5(1 2 3 4 5)
5(1 2 3 4 5)
5(1 2 3 4 5)
5(1 2 3 4 5)
5(1 2 3 4 5)
5(1 2 3 4 5)
5(1 2 3 4 5)
5(1 2 3 4 5)
5(1 2 3 4 5)
5(1 2 3 4 5)
5(1 2 3 4 5)
5(1 2 3 4 5)
5(1 2 3 4 5)
5(1 2 3 4 5)
5(1 2 3 4 5)
5(1 2 3 4 5)
5(1 2 3 4 5)
5(1 2 3 4 5)
5(1 2 3 4 5)
5(1 2 3 4 5)
5(1 2 3 4 5)
5(1 2 3 4 5)
5(1 2 3 4 5)
5(1 2 3 4 5)
5(1 2 3 4 5)
5(1 2 3 4 5)
5(1 2 3 4 5)
5(1 2 3 4 5)
5(1 2 3 4 5)
5(1 2 3 4 5)
5(1 2 3 4 5)
5(1 2 3 4 5)
5(1 2 3 4 5)
5(1 2 3 4 5)
5(1 2 3 4 5)
)


60
(
5(1 2 3 4 5)
5(1 2 3 4 5)
5(1 2 3 4 5)
5(1 2 3 4 5)
5(1 2 3 4 5)
5(1 2 3 4 5)
5(1 2 3 4 5)
5(1 2 3 4 5)
5(1 2 3 4 5)
5(1 2 3 4 5)
5(1 2 3 4 5)
5(1 2 3 4 5)
5(1 2 3 4 5)
5(1 2 3 4 5)
5(1 2 3 4 5)
5(1 2 3 4 5)
5(1 2 3 4 5)
5(1 2 3 4 5)
5(1 2 3 4 5)
5(1 2 3 4 5)
5(1 2 3 4 5)
5(1 2 3 4 5)
5(1 2 3 4 5)
5(1 2 3 4 5)
5(1 2 3 4 5)
5(1 2 3 4 5)
5(1 2 3 4 5)
5(1 2 3 4 5)
5(1 2 3 4 5)
5(1 2 3 4 5)
5(1 2 3 4 5)
5(1 2 3 4 5)
5(1 2 3 4 5)
5(1 2 3 4 5)
5(1 2 3 4 5)
5(1 2 3 4 5)
5(1 2 3 4 5)
5(1 2 3 4 5)
5(1 2 3 4 5)
5(1 2 3 4 5)
5(1 2 3 4 5)
5(1 2 3 4 5)
5(1 2 3 4 5)
5(1 2 3 4 5)
5(1 2 3 4 5)
5(1 2 3 4 5)
5(1 2 3 4 5)
5(1 2 3 4 5)
5(1 2 3 4 5)
5(1 2 3 4 5)
5(1 2 3 4 5)
5(1 2 3 4 5)
5(1 2 3 4 5)
5(1 2 3 4 5)
5(1 2 3 4 5)
5(1 2 3 4 5)
5(1 2 3 4 5)
5(1 2 3 4 5)
5(1 2 3 4 5)
5(1 2 3 4 5)
)


60
(
5(1 2 3 4 5)
5(1 2 3 4 5)
5(1 2 3 4 5)
5(1 2 3 4 5)
5(1 2 3 4 5)
5(1 2 3 4 5)
5(1 2 3 4 5)
5(1 2 3 4 5)
5(1 2 3 4 5)
5(1 2 3 4 5)
5(1 2 3 4 5)
5(1 2 3 4 5)
5(1 2 3 4 5)
5(1 2 3 4 5)
5(1 2 3 4 5)
5(1 2 3 4 5)
5(1 2 3 4 5)
5(1 2 3 4 5)
5(1 2 3 4 5)
5(1 2 3 4 5)
5(1 2 3 4 5)
5(1 2 3 4 5)
5(1 2 3 4 5)
5(1 2 3 4 5)
5(1 2 3 4 5)
5(1 2 3 4 5)
5(1 2 3 4 5)
5(1 2 3 4 5)
5(1 2 3 4 5)
5(1 2 3 4 5)
5(1 2 3 4 5)
5(1 2 3 4 5)
5(1 2 3 4 5)
5(1 2 3 4 5)
5(1 2 3 4 5)
5(1 2 3 4 5)
5(1 2 3 4 5)
5(1 2 3 4 5)
5(1 2 3 4 5)
5(1 2 3 4 5)
5(1 2 3 4 5)
5(1 2 3 4 5)
5(1 2 3 4 5)
5(1 2 3 4 5)
5(1 2 3 4 5)
5(1 2 3 4 5)
5(1 2 3 4 5)
5(1 2 3 4 5)
5(1 2 3 4 5)
5(1 2 3 4 5)
5(1 2 3 4 5)
5(1 2 3 4 5)
5(1 2 3 4 5)
5(1 2 3 4 5)
5(1 2 3 4 5)
5(1 2 3 4 5)
5(1 2 3 4 5)
5(1 2 3 4 5)
5(1 2 3 4 5)
5(1 2 3 4 5)
)


60
(
5(1 2 3 4 5)
5(1 2 3 4 5)
5(1 2 3 4 5)
5(1 2 3 4 5)
5(1 2 3 4 5)
5(1 2 3 4 5)
5(1 2 3 4 5)
5(1 2 3 4 5)
5(1 2 3 4 5)
5(1 2 3 4 5)
5(1 2 3 4 5)
5(1 2 3 4 5)
5(1 2 3 4 5)
5(1 2 3 4 5)
5(1 2 3 4 5)
5(1 2 3 4 5)
5(1 2 3 4 5)
5(1 2 3 4 5)
5(1 2 3 4 5)
5(1 2 3 4 5)
5(1 2 3 4 5)
5(1 2 3 4 5)
5(1 2 3 4 5)
5(1 2 3 4 5)
5(1 2 3 4 5)
5(1 2 3 4 5)
5(1 2 3 4 5)
5(1 2 3 4 5)
5(1 2 3 4 5)
5(1 2 3 4 5)
5(1 2 3 4 5)
5(1 2 3 4 5)
5(1 2 3 4 5)
5(1 2 3 4 5)
5(1 2 3 4 5)
5(1 2 3 4 5)
5(1 2 3 4 5)
5(1 2 3 4 5)
5(1 2 3 4 5)
5(1 2 3 4 5)
5(1 2 3 4 5)
5(1 2 3 4 5)
5(1 2 3 4 5)
5(1 2 3 4 5)
5(1 2 3 4 5)
5(1 2 3 4 5)
5(1 2 3 4 5)
5(1 2 3 4 5)
5(1 2 3 4 5)
5(1 2 3 4 5)
5(1 2 3 4 5)
5(1 2 3 4 5)
5(1 2 3 4 5)
5(1 2 3 4 5)
5(1 2 3 4 5)
5(1 2 3 4 5)
5(1 2 3 4 5)
5(1 2 3 4 5)
5(1 2 3 4 5)
5(1 2 3 4 5)
)


60
(
5(1 2 3 4 5)
5(1 2 3 4 5)
5(1 2 3 4 5)
5(1 2 3 4 5)
5(1 2 3 4 5)
5(1 2 3 4 5)
5(1 2 3 4 5)
5(1 2 3 4 5)
5(1 2 3 4 5)
5(1 2 3 4 5)
5(1 2 3 4 5)
5(1 2 3 4 5)
5(1 2 3 4 5)
5(1 2 3 4 5)
5(1 2 3 4 5)
5(1 2 3 4 5)
5(1 2 3 4 5)
5(1 2 3 4 5)
5(1 2 3 4 5)
5(1 2 3 4 5)
5(1 2 3 4 5)
5(1 2 3 4 5)
5(1 2 3 4 5)
5(1 2 3 4 5)
5(1 2 3 4 5)
5(1 2 3 4 5)
5(1 2 3 4 5)
5(1 2 3 4 5)
5(1 2 3 4 5)
5(1 2 3 4 5)
5(1 2 3 4 5)
5(1 2 3 4 5)
5(1 2 3 4 5)
5(1 2 3 4 5)
5(1 2 3 4 5)
5(1 2 3 4 5)
5(1 2 3 4 5)
5(1 2 3 4 5)
5(1 2 3 4 5)
5(1 2 3 4 5)
5(1 2 3 4 5)
5(1 2 3 4 5)
5(1 2 3 4 5)
5(1 2 3 4 5)
5(1 2 3 4 5)
5(1 2 3 4 5)
5(1 2 3 4 5)
5(1 2 3 4 5)
5(1 2 3 4 5)
5(1 2 3 4 5)
5(1 2 3 4 5)
5(1 2 3 4 5)
5(1 2 3 4 5)
5(1 2 3 4 5)
5(1 2 3 4 5)
5(1 2 3 4 5)
5(1 2 3 4 5)
5(1 2 3 4 5)
5(1 2 3 4 5)
5(1 2 3 4 5)
)


60
(
5(1 2 3 4 5)
5(1 2 3 4 5)
5(1 2 3 4 5)
5(1 2 3 4 5)
5(1 2 3 4 5)
5(1 2 3 4 5)
5(1 2 3 4 5)
5(1 2 3 4 5)
5(1 2 3 4 5)
5(1 2 3 4 5)
5(1 2 3 4 5)
5(1 2 3 4 5)
5(1 2 3 4 5)
5(1 2 3 4 5)
5(1 2 3 4 5)
5(1 2 3 4 5)
5(1 2 3 4 5)
5(1 2 3 4 5)
5(1 2 3 4 5)
5(1 2 3 4 5)
5(1 2 3 4 5)
5(1 2 3 4 5)
5(1 2 3 4 5)
5(1 2 3 4 5)
5(1 2 3 4 5)
5(1 2 3 4 5)
5(1 2 3 4 5)
5(1 2 3 4 5)
5(1 2 3 4 5)
5(1 2 3 4 5)
5(1 2 3 4 5)
5(1 2 3 4 5)
5(1 2 3 4 5)
5(1 2 3 4 5)
5(1 2 3 4 5)
5(1 2 3 4 5)
5(1 2 3 4 5)
5(1 2 3 4 5)
5(1 2 3 4 5)
5(1 2 3 4 5)
5(1 2 3 4 5)
5(1 2 3 4 5)
5(1 2 3 4 5)
5(1 2 3 4 5)
5(1 2 3 4 5)
5(1 2 3 4 5)
5(1 2 3 4 5)
5(1 2 3 4 5)
5(1 2 3 4 5)
5(1 2 3 4 5)
5(1 2 3 4 5)
5(1 2 3 4 5)
5(1 2 3 4 5)
5(1 2 3 4 5)
5(1 2 3 4 5)
5(1 2 3 4 5)
5(1 2 3 4 5)
5(1 2 3 4 5)
5(1 2 3 4 5)
5(1 2 3 4 5)
)


60
(
5(1 2 3 4 5)
5(1 2 3 4 5)
5(1 2 3 4 5)
5(1 2 3 4 5)
5(1 2 3 4 5)
5(1 2 3 4 5)
5(1 2 3 4 5)
5(1 2 3 4 5)
5(1 2 3 4 5)
5(1 2 3 4 5)
5(1 2 3 4 5)
5(1 2 3 4 5)
5(1 2 3 4 5)
5(1 2 3 4 5)
5(1 2 3 4 5)
5(1 2 3 4 5)
5(1 2 3 4 5)
5(1 2 3 4 5)
5(1 2 3 4 5)
5(1 2 3 4 5)
5(1 2 3 4 5)
5(1 2 3 4 5)
5(1 2 3 4 5)
5(1 2 3 4 5)
5(1 2 3 4 5)
5(1 2 3 4 5)
5(1 2 3 4 5)
5(1 2 3 4 5)
5(1 2 3 4 5)
5(1 2 3 4 5)
5(1 2 3 4 5)
5(1 2 3 4 5)
5(1 2 3 4 5)
5(1 2 3 4 5)
5(1 2 3 4 5)
5(1 2 3 4 5)
5(1 2 3 4 5)
5(1 2 3 4 5)
5(1 2 3 4 5)
5(1 2 3 4 5)
5(1 2 3 4 5)
5(1 2 3 4 5)
5(1 2 3 4 5)
5(1 2 3 4 5)
5(1 2 3 4 5)
5(1 2 3 4 5)
5(1 2 3 4 5)
5(1 2 3 4 5)
5(1 2 3 4 5)
5(1 2 3 4 5)
5(1 2 3 4 5)
5(1 2 3 4 5)
5(1 2 3 4 5)
5(1 2 3 4 5)
5(1 2 3 4 5)
5(1 2 3 4 5)
5(1 2 3 4 5)
5(1 2 3 4 5)
5(1 2 3 4 5)
5(1 2 3 4 5)
)


60
(
5(1 2 3 4 5)
5(1 2 3 4 5)
5(1 2 3 4 5)
5(1 2 3 4 5)
5(1 2 3 4 5)
5(1 2 3 4 5)
5(1 2 3 4 5)
5(1 2 3 4 5)
5(1 2 3 4 5)
5(1 2 3 4 5)
5(1 2 3 4 5)
5(1 2 3 4 5)
5(1 2 3 4 5)
5(1 2 3 4 5)
5(1 2 3 4 5)
5(1 2 3 4 5)
5(1 2 3 4 5)
5(1 2 3 4 5)
5(1 2 3 4 5)
5(1 2 3 4 5)
5(1 2 3 4 5)
5(1 2 3 4 5)
5(1 2 3 4 5)
5(1 2 3 4 5)
5(1 2 3 4 5)
5(1 2 3 4 5)
5(1 2 3 4 5)
5(1 2 3 4 5)
5(1 2 3 4 5)
5(1 2 3 4 5)
5(1 2 3 4 5)
5(1 2 3 4 5)
5(1 2 3 4 5)
5(1 2 3 4 5)
5(1 2 3 4 5)
5(1 2 3 4 5)
5(1 2 3 4 5)
5(1 2 3 4 5)
5(1 2 3 4 5)
5(1 2 3 4 5)
5(1 2 3 4 5)
5(1 2 3 4 5)
5(1 2 3 4 5)
5(1 2 3 4 5)
5(1 2 3 4 5)
5(1 2 3 4 5)
5(1 2 3 4 5)
5(1 2 3 4 5)
5(1 2 3 4 5)
5(1 2 3 4 5)
5(1 2 3 4 5)
5(1 2 3 4 5)
5(1 2 3 4 5)
5(1 2 3 4 5)
5(1 2 3 4 5)
5(1 2 3 4 5)
5(1 2 3 4 5)
5(1 2 3 4 5)
5(1 2 3 4 5)
5(1 2 3 4 5)
)


60
(
5(1 2 3 4 5)
5(1 2 3 4 5)
5(1 2 3 4 5)
5(1 2 3 4 5)
5(1 2 3 4 5)
5(1 2 3 4 5)
5(1 2 3 4 5)
5(1 2 3 4 5)
5(1 2 3 4 5)
5(1 2 3 4 5)
5(1 2 3 4 5)
5(1 2 3 4 5)
5(1 2 3 4 5)
5(1 2 3 4 5)
5(1 2 3 4 5)
5(1 2 3 4 5)
5(1 2 3 4 5)
5(1 2 3 4 5)
5(1 2 3 4 5)
5(1 2 3 4 5)
5(1 2 3 4 5)
5(1 2 3 4 5)
5(1 2 3 4 5)
5(1 2 3 4 5)
5(1 2 3 4 5)
5(1 2 3 4 5)
5(1 2 3 4 5)
5(1 2 3 4 5)
5(1 2 3 4 5)
5(1 2 3 4 5)
5(1 2 3 4 5)
5(1 2 3 4 5)
5(1 2 3 4 5)
5(1 2 3 4 5)
5(1 2 3 4 5)
5(1 2 3 4 5)
5(1 2 3 4 5)
5(1 2 3 4 5)
5(1 2 3 4 5)
5(1 2 3 4 5)
5(1 2 3 4 5)
5(1 2 3 4 5)
5(1 2 3 4 5)
5(1 2 3 4 5)
5(1 2 3 4 5)
5(1 2 3 4 5)
5(1 2 3 4 5)
5(1 2 3 4 5)
5(1 2 3 4 5)
5(1 2 3 4 5)
5(1 2 3 4 5)
5(1 2 3 4 5)
5(1 2 3 4 5)
5(1 2 3 4 5)
5(1 2 3 4 5)
5(1 2 3 4 5)
5(1 2 3 4 5)
5(1 2 3 4 5)
5(1 2 3 4 5)
5(1 2 3 4 5)
)


60
(
5(1 2 3 4 5)
5(1 2 3 4 5)
5(1 2 3 4 5)
5(1 2 3 4 5)
5(1 2 3 4 5)
5(1 2 3 4 5)
5(1 2 3 4 5)
5(1 2 3 4 5)
5(1 2 3 4 5)
5(1 2 3 4 5)
5(1 2 3 4 5)
5(1 2 3 4 5)
5(1 2 3 4 5)
5(1 2 3 4 5)
5(1 2 3 4 5)
5(1 2 3 4 5)
5(1 2 3 4 5)
5(1 2 3 4 5)
5(1 2 3 4 5)
5(1 2 3 4 5)
5(1 2 3 4 5)
5(1 2 3 4 5)
5(1 2 3 4 5)
5(1 2 3 4 5)
5(1 2 3 4 5)
5(1 2 3 4 5)
5(1 2 3 4 5)
5(1 2 3 4 5)
5(1 2 3 4 5)
5(1 2 3 4 5)
5(1 2 3 4 5)
5(1 2 3 4 5)
5(1 2 3 4 5)
5(1 2 3 4 5)
5(1 2 3 4 5)
5(1 2 3 4 5)
5(1 2 3 4 5)
5(1 2 3 4 5)
5(1 2 3 4 5)
5(1 2 3 4 5)
5(1 2 3 4 5)
5(1 2 3 4 5)
5(1 2 3 4 5)
5(1 2 3 4 5)
5(1 2 3 4 5)
5(1 2 3 4 5)
5(1 2 3 4 5)
5(1 2 3 4 5)
5(1 2 3 4 5)
5(1 2 3 4 5)
5(1 2 3 4 5)
5(1 2 3 4 5)
5(1 2 3 4 5)
5(1 2 3 4 5)
5(1 2 3 4 5)
5(1 2 3 4 5)
5(1 2 3 4 5)
5(1 2 3 4 5)
5(1 2 3 4 5)
5(1 2 3 4 5)
)


60
(
5(1 2 3 4 5)
5(1 2 3 4 5)
5(1 2 3 4 5)
5(1 2 3 4 5)
5(1 2 3 4 5)
5(1 2 3 4 5)
5(1 2 3 4 5)
5(1 2 3 4 5)
5(1 2 3 4 5)
5(1 2 3 4 5)
5(1 2 3 4 5)
5(1 2 3 4 5)
5(1 2 3 4 5)
5(1 2 3 4 5)
5(1 2 3 4 5)
5(1 2 3 4 5)
5(1 2 3 4 5)
5(1 2 3 4 5)
5(1 2 3 4 5)
5(1 2 3 4 5)
5(1 2 3 4 5)
5(1 2 3 4 5)
5(1 2 3 4 5)
5(1 2 3 4 5)
5(1 2 3 4 5)
5(1 2 3 4 5)
5(1 2 3 4 5)
5(1 2 3 4 5)
5(1 2 3 4 5)
5(1 2 3 4 5)
5(1 2 3 4 5)
5(1 2 3 4 5)
5(1 2 3 4 5)
5(1 2 3 4 5)
5(1 2 3 4 5)
5(1 2 3 4 5)
5(1 2 3 4 5)
5(1 2 3 4 5)
5(1 2 3 4 5)
5(1 2 3 4 5)
5(1 2 3 4 5)
5(1 2 3 4 5)
5(1 2 3 4 5)
5(1 2 3 4 5)
5(1 2 3 4 5)
5(1 2 3 4 5)
5(1 2 3 4 5)
5(1 2 3 4 5)
5(1 2 3 4 5)
5(1 2 3 4 5)
5(1 2 3 4 5)
5(1 2 3 4 5)
5(1 2 3 4 5)
5(1 2 3 4 5)
5(1 2 3 4 5)
5(1 2 3 4 5)
5(1 2 3 4 5)
5(1 2 3 4 5)
5(1 2 3 4 5)
5(1 2 3 4 5)
)


60
(
5(1 2 3 4 5)
5(1 2 3 4 5)
5(1 2 3 4 5)
5(1 2 3 4 5)
5(1 2 3 4 5)
5(1 2 3 4 5)
5(1 2 3 4 5)
5(1 2 3 4 5)
5(1 2 3 4 5)
5(1 2 3 4 5)
5(1 2 3 4 5)
5(1 2 3 4 5)
5(1 2 3 4 5)
5(1 2 3 4 5)
5(1 2 3 4 5)
5(1 2 3 4 5)
5(1 2 3 4 5)
5(1 2 3 4 5)
5(1 2 3 4 5)
5(1 2 3 4 5)
5(1 2 3 4 5)
5(1 2 3 4 5)
5(1 2 3 4 5)
5(1 2 3 4 5)
5(1 2 3 4 5)
5(1 2 3 4 5)
5(1 2 3 4 5)
5(1 2 3 4 5)
5(1 2 3 4 5)
5(1 2 3 4 5)
5(1 2 3 4 5)
5(1 2 3 4 5)
5(1 2 3 4 5)
5(1 2 3 4 5)
5(1 2 3 4 5)
5(1 2 3 4 5)
5(1 2 3 4 5)
5(1 2 3 4 5)
5(1 2 3 4 5)
5(1 2 3 4 5)
5(1 2 3 4 5)
5(1 2 3 4 5)
5(1 2 3 4 5)
5(1 2 3 4 5)
5(1 2 3 4 5)
5(1 2 3 4 5)
5(1 2 3 4 5)
5(1 2 3 4 5)
5(1 2 3 4 5)
5(1 2 3 4 5)
5(1 2 3 4 5)
5(1 2 3 4 5)
5(1 2 3 4 5)
5(1 2 3 4 5)
5(1 2 3 4 5)
5(1 2 3 4 5)
5(1 2 3 4 5)
5(1 2 3 4 5)
5(1 2 3 4 5)
5(1 2 3 4 5)
)


60
(
5(1 2 3 4 5)
5(1 2 3 4 5)
5(1 2 3 4 5)
5(1 2 3 4 5)
5(1 2 3 4 5)
5(1 2 3 4 5)
5(1 2 3 4 5)
5(1 2 3 4 5)
5(1 2 3 4 5)
5(1 2 3 4 5)
5(1 2 3 4 5)
5(1 2 3 4 5)
5(1 2 3 4 5)
5(1 2 3 4 5)
5(1 2 3 4 5)
5(1 2 3 4 5)
5(1 2 3 4 5)
5(1 2 3 4 5)
5(1 2 3 4 5)
5(1 2 3 4 5)
5(1 2 3 4 5)
5(1 2 3 4 5)
5(1 2 3 4 5)
5(1 2 3 4 5)
5(1 2 3 4 5)
5(1 2 3 4 5)
5(1 2 3 4 5)
5(1 2 3 4 5)
5(1 2 3 4 5)
5(1 2 3 4 5)
5(1 2 3 4 5)
5(1 2 3 4 5)
5(1 2 3 4 5)
5(1 2 3 4 5)
5(1 2 3 4 5)
5(1 2 3 4 5)
5(1 2 3 4 5)
5(1 2 3 4 5)
5(1 2 3 4 5)
5(1 2 3 4 5)
5(1 2 3 4 5)
5(1 2 3 4 5)
5(1 2 3 4 5)
5(1 2 3 4 5)
5(1 2 3 4 5)
5(1 2 3 4 5)
5(1 2 3 4 5)
5(1 2 3 4 5)
5(1 2 3 4 5)
5(1 2 3 4 5)
5(1 2 3 4 5)
5(1 2 3 4 5)
5(1 2 3 4 5)
5(1 2 3 4 5)
5(1 2 3 4 5)
5(1 2 3 4 5)
5(1 2 3 4 5)
5(1 2 3 4 5)
5(1 2 3 4 5)
5(1 2 3 4 5)
)


60
(
5(1 2 3 4 5)
5(1 2 3 4 5)
5(1 2 3 4 5)
5(1 2 3 4 5)
5(1 2 3 4 5)
5(1 2 3 4 5)
5(1 2 3 4 5)
5(1 2 3 4 5)
5(1 2 3 4 5)
5(1 2 3 4 5)
5(1 2 3 4 5)
5(1 2 3 4 5)
5(1 2 3 4 5)
5(1 2 3 4 5)
5(1 2 3 4 5)
5(1 2 3 4 5)
5(1 2 3 4 5)
5(1 2 3 4 5)
5(1 2 3 4 5)
5(1 2 3 4 5)
5(1 2 3 4 5)
5(1 2 3 4 5)
5(1 2 3 4 5)
5(1 2 3 4 5)
5(1 2 3 4 5)
5(1 2 3 4 5)
5(1 2 3 4 5)
5(1 2 3 4 5)
5(1 2 3 4 5)
5(1 2 3 4 5)
5(1 2 3 4 5)
5(1 2 3 4 5)
5(1 2 3 4 5)
5(1 2 3 4 5)
5(1 2 3 4 5)
5(1 2 3 4 5)
5(1 2 3 4 5)
5(1 2 3 4 5)
5(1 2 3 4 5)
5(1 2 3 4 5)
5(1 2 3 4 5)
5(1 2 3 4 5)
5(1 2 3 4 5)
5(1 2 3 4 5)
5(1 2 3 4 5)
5(1 2 3 4 5)
5(1 2 3 4 5)
5(1 2 3 4 5)
5(1 2 3 4 5)
5(1 2 3 4 5)
5(1 2 3 4 5)
5(1 2 3 4 5)
5(1 2 3 4 5)
5(1 2 3 4 5)
5(1 2 3 4 5)
5(1 2 3 4 5)
5(1 2 3 4 5)
5(1 2 3 4 5)
5(1 2 3 4 5)
5(1 2 3 4 5)
)


60
(
5(1 2 3 4 5)
5(1 2 3 4 5)
5(1 2 3 4 5)
5(1 2 3 4 5)
5(1 2 3 4 5)
5(1 2 3 4 5)
5(1 2 3 4 5)
5(1 2 3 4 5)
5(1 2 3 4 5)
5(1 2 3 4 5)
5(1 2 3 4 5)
5(1 2 3 4 5)
5(1 2 3 4 5)
5(1 2 3 4 5)
5(1 2 3 4 5)
5(1 2 3 4 5)
5(1 2 3 4 5)
5(1 2 3 4 5)
5(1 2 3 4 5)
5(1 2 3 4 5)
5(1 2 3 4 5)
5(1 2 3 4 5)
5(1 2 3 4 5)
5(1 2 3 4 5)
5(1 2 3 4 5)
5(1 2 3 4 5)
5(1 2 3 4 5)
5(1 2 3 4 5)
5(1 2 3 4 5)
5(1 2 3 4 5)
5(1 2 3 4 5)
5(1 2 3 4 5)
5(1 2 3 4 5)
5(1 2 3 4 5)
5(1 2 3 4 5)
5(1 2 3 4 5)
5(1 2 3 4 5)
5(1 2 3 4 5)
5(1 2 3 4 5)
5(1 2 3 4 5)
5(1 2 3 4 5)
5(1 2 3 4 5)
5(1 2 3 4 5)
5(1 2 3 4 5)
5(1 2 3 4 5)
5(1 2 3 4 5)
5(1 2 3 4 5)
5(1 2 3 4 5)
5(1 2 3 4 5)
5(1 2 3 4 5)
5(1 2 3 4 5)
5(1 2 3 4 5)
5(1 2 3 4 5)
5(1 2 3 4 5)
5(1 2 3 4 5)
5(1 2 3 4 5)
5(1 2 3 4 5)
5(1 2 3 4 5)
5(1 2 3 4 5)
5(1 2 3 4 5)
)


60
(
5(1 2 3 4 5)
5(1 2 3 4 5)
5(1 2 3 4 5)
5(1 2 3 4 5)
5(1 2 3 4 5)
5(1 2 3 4 5)
5(1 2 3 4 5)
5(1 2 3 4 5)
5(1 2 3 4 5)
5(1 2 3 4 5)
5(1 2 3 4 5)
5(1 2 3 4 5)
5(1 2 3 4 5)
5(1 2 3 4 5)
5(1 2 3 4 5)
5(1 2 3 4 5)
5(1 2 3 4 5)
5(1 2 3 4 5)
5(1 2 3 4 5)
5(1 2 3 4 5)
5(1 2 3 4 5)
5(1 2 3 4 5)
5(1 2 3 4 5)
5(1 2 3 4 5)
5(1 2 3 4 5)
5(1 2 3 4 5)
5(1 2 3 4 5)
5(1 2 3 4 5)
5(1 2 3 4 5)
5(1 2 3 4 5)
5(1 2 3 4 5)
5(1 2 3 4 5)
5(1 2 3 4 5)
5(1 2 3 4 5)
5(1 2 3 4 5)
5(1 2 3 4 5)
5(1 2 3 4 5)
5(1 2 3 4 5)
5(1 2 3 4 5)
5(1 2 3 4 5)
5(1 2 3 4 5)
5(1 2 3 4 5)
5(1 2 3 4 5)
5(1 2 3 4 5)
5(1 2 3 4 5)
5(1 2 3 4 5)
5(1 2 3 4 5)
5(1 2 3 4 5)
5(1 2 3 4 5)
5(1 2 3 4 5)
5(1 2 3 4 5)
5(1 2 3 4 5)
5(1 2 3 4 5)
5(1 2 3 4 5)
5(1 2 3 4 5)
5(1 2 3 4 5)
5(1 2 3 4 5)
5(1 2 3 4 5)
5(1 2 3 4 5)
5(1 2 3 4 5)
)


60
(
5(1 2 3 4 5)
5(1 2 3 4 5)
5(1 2 3 4 5)
5(1 2 3 4 5)
5(1 2 3 4 5)
5(1 2 3 4 5)
5(1 2 3 4 5)
5(1 2 3 4 5)
5(1 2 3 4 5)
5(1 2 3 4 5)
5(1 2 3 4 5)
5(1 2 3 4 5)
5(1 2 3 4 5)
5(1 2 3 4 5)
5(1 2 3 4 5)
5(1 2 3 4 5)
5(1 2 3 4 5)
5(1 2 3 4 5)
5(1 2 3 4 5)
5(1 2 3 4 5)
5(1 2 3 4 5)
5(1 2 3 4 5)
5(1 2 3 4 5)
5(1 2 3 4 5)
5(1 2 3 4 5)
5(1 2 3 4 5)
5(1 2 3 4 5)
5(1 2 3 4 5)
5(1 2 3 4 5)
5(1 2 3 4 5)
5(1 2 3 4 5)
5(1 2 3 4 5)
5(1 2 3 4 5)
5(1 2 3 4 5)
5(1 2 3 4 5)
5(1 2 3 4 5)
5(1 2 3 4 5)
5(1 2 3 4 5)
5(1 2 3 4 5)
5(1 2 3 4 5)
5(1 2 3 4 5)
5(1 2 3 4 5)
5(1 2 3 4 5)
5(1 2 3 4 5)
5(1 2 3 4 5)
5(1 2 3 4 5)
5(1 2 3 4 5)
5(1 2 3 4 5)
5(1 2 3 4 5)
5(1 2 3 4 5)
5(1 2 3 4 5)
5(1 2 3 4 5)
5(1 2 3 4 5)
5(1 2 3 4 5)
5(1 2 3 4 5)
5(1 2 3 4 5)
5(1 2 3 4 5)
5(1 2 3 4 5)
5(1 2 3 4 5)
5(1 2 3 4 5)
)


60
(
5(1 2 3 4 5)
5(1 2 3 4 5)
5(1 2 3 4 5)
5(1 2 3 4 5)
5(1 2 3 4 5)
5(1 2 3 4 5)
5(1 2 3 4 5)
5(1 2 3 4 5)
5(1 2 3 4 5)
5(1 2 3 4 5)
5(1 2 3 4 5)
5(1 2 3 4 5)
5(1 2 3 4 5)
5(1 2 3 4 5)
5(1 2 3 4 5)
5(1 2 3 4 5)
5(1 2 3 4 5)
5(1 2 3 4 5)
5(1 2 3 4 5)
5(1 2 3 4 5)
5(1 2 3 4 5)
5(1 2 3 4 5)
5(1 2 3 4 5)
5(1 2 3 4 5)
5(1 2 3 4 5)
5(1 2 3 4 5)
5(1 2 3 4 5)
5(1 2 3 4 5)
5(1 2 3 4 5)
5(1 2 3 4 5)
5(1 2 3 4 5)
5(1 2 3 4 5)
5(1 2 3 4 5)
5(1 2 3 4 5)
5(1 2 3 4 5)
5(1 2 3 4 5)
5(1 2 3 4 5)
5(1 2 3 4 5)
5(1 2 3 4 5)
5(1 2 3 4 5)
5(1 2 3 4 5)
5(1 2 3 4 5)
5(1 2 3 4 5)
5(1 2 3 4 5)
5(1 2 3 4 5)
5(1 2 3 4 5)
5(1 2 3 4 5)
5(1 2 3 4 5)
5(1 2 3 4 5)
5(1 2 3 4 5)
5(1 2 3 4 5)
5(1 2 3 4 5)
5(1 2 3 4 5)
5(1 2 3 4 5)
5(1 2 3 4 5)
5(1 2 3 4 5)
5(1 2 3 4 5)
5(1 2 3 4 5)
5(1 2 3 4 5)
5(1 2 3 4 5)
)


60
(
5(1 2 3 4 5)
5(1 2 3 4 5)
5(1 2 3 4 5)
5(1 2 3 4 5)
5(1 2 3 4 5)
5(1 2 3 4 5)
5(1 2 3 4 5)
5(1 2 3 4 5)
5(1 2 3 4 5)
5(1 2 3 4 5)
5(1 2 3 4 5)
5(1 2 3 4 5)
5(1 2 3 4 5)
5(1 2 3 4 5)
5(1 2 3 4 5)
5(1 2 3 4 5)
5(1 2 3 4 5)
5(1 2 3 4 5)
5(1 2 3 4 5)
5(1 2 3 4 5)
5(1 2 3 4 5)
5(1 2 3 4 5)
5(1 2 3 4 5)
5(1 2 3 4 5)
5(1 2 3 4 5)
5(1 2 3 4 5)
5(1 2 3 4 5)
5(1 2 3 4 5)
5(1 2 3 4 5)
5(1 2 3 4 5)
5(1 2 3 4 5)
5(1 2 3 4 5)
5(1 2 3 4 5)
5(1 2 3 4 5)
5(1 2 3 4 5)
5(1 2 3 4 5)
5(1 2 3 4 5)
5(1 2 3 4 5)
5(1 2 3 4 5)
5(1 2 3 4 5)
5(1 2 3 4 5)
5(1 2 3 4 5)
5(1 2 3 4 5)
5(1 2 3 4 5)
5(1 2 3 4 5)
5(1 2 3 4 5)
5(1 2 3 4 5)
5(1 2 3 4 5)
5(1 2 3 4 5)
5(1 2 3 4 5)
5(1 2 3 4 5)
5(1 2 3 4 5)
5(1 2 3 4 5)
5(1 2 3 4 5)
5(1 2 3 4 5)
5(1 2 3 4 5)
5(1 2 3 4 5)
5(1 2 3 4 5)
5(1 2 3 4 5)
5(1 2 3 4 5)
)


60
(
5(1 2 3 4 5)
5(1 2 3 4 5)
5(1 2 3 4 5)
5(1 2 3 4 5)
5(1 2 3 4 5)
5(1 2 3 4 5)
5(1 2 3 4 5)
5(1 2 3 4 5)
5(1 2 3 4 5)
5(1 2 3 4 5)
5(1 2 3 4 5)
5(1 2 3 4 5)
5(1 2 3 4 5)
5(1 2 3 4 5)
5(1 2 3 4 5)
5(1 2 3 4 5)
5(1 2 3 4 5)
5(1 2 3 4 5)
5(1 2 3 4 5)
5(1 2 3 4 5)
5(1 2 3 4 5)
5(1 2 3 4 5)
5(1 2 3 4 5)
5(1 2 3 4 5)
5(1 2 3 4 5)
5(1 2 3 4 5)
5(1 2 3 4 5)
5(1 2 3 4 5)
5(1 2 3 4 5)
5(1 2 3 4 5)
5(1 2 3 4 5)
5(1 2 3 4 5)
5(1 2 3 4 5)
5(1 2 3 4 5)
5(1 2 3 4 5)
5(1 2 3 4 5)
5(1 2 3 4 5)
5(1 2 3 4 5)
5(1 2 3 4 5)
5(1 2 3 4 5)
5(1 2 3 4 5)
5(1 2 3 4 5)
5(1 2 3 4 5)
5(1 2 3 4 5)
5(1 2 3 4 5)
5(1 2 3 4 5)
5(1 2 3 4 5)
5(1 2 3 4 5)
5(1 2 3 4 5)
5(1 2 3 4 5)
5(1 2 3 4 5)
5(1 2 3 4 5)
5(1 2 3 4 5)
5(1 2 3 4 5)
5(1 2 3 4 5)
5(1 2 3 4 5)
5(1 2 3 4 5)
5(1 2 3 4 5)
5(1 2 3 4 5)
5(1 2 3 4 5)
)


60
(
5(1 2 3 4 5)
5(1 2 3 4 5)
5(1 2 3 4 5)
5(1 2 3 4 5)
5(1 2 3 4 5)
5(1 2 3 4 5)
5(1 2 3 4 5)
5(1 2 3 4 5)
5(1 2 3 4 5)
5(1 2 3 4 5)
5(1 2 3 4 5)
5(1 2 3 4 5)
5(1 2 3 4 5)
5(1 2 3 4 5)
5(1 2 3 4 5)
5(1 2 3 4 5)
5(1 2 3 4 5)
5(1 2 3 4 5)
5(1 2 3 4 5)
5(1 2 3 4 5)
5(1 2 3 4 5)
5(1 2 3 4 5)
5(1 2 3 4 5)
5(1 2 3 4 5)
5(1 2 3 4 5)
5(1 2 3 4 5)
5(1 2 3 4 5)
5(1 2 3 4 5)
5(1 2 3 4 5)
5(1 2 3 4 5)
5(1 2 3 4 5)
5(1 2 3 4 5)
5(1 2 3 4 5)
5(1 2 3 4 5)
5(1 2 3 4 5)
5(1 2 3 4 5)
5(1 2 3 4 5)
5(1 2 3 4 5)
5(1 2 3 4 5)
5(1 2 3 4 5)
5(1 2 3 4 5)
5(1 2 3 4 5)
5(1 2 3 4 5)
5(1 2 3 4 5)
5(1 2 3 4 5)
5(1 2 3 4 5)
5(1 2 3 4 5)
5(1 2 3 4 5)
5(1 2 3 4 5)
5(1 2 3 4 5)
5(1 2 3 4 5)
5(1 2 3 4 5)
5(1 2 3 4 5)
5(1 2 3 4 5)
5(1 2 3 4 5)
5(1 2 3 4 5)
5(1 2 3 4 5)
5(1 2 3 4 5)
5(1 2 3 4 5)
5(1 2 3 4 5)
)


60
(
5(1 2 3 4 5)
5(1 2 3 4 5)
5(1 2 3 4 5)
5(1 2 3 4 5)
5(1 2 3 4 5)
5(1 2 3 4 5)
5(1 2 3 4 5)
5(1 2 3 4 5)
5(1 2 3 4 5)
5(1 2 3 4 5)
5(1 2 3 4 5)
5(1 2 3 4 5)
5(1 2 3 4 5)
5(1 2 3 4 5)
5(1 2 3 4 5)
5(1 2 3 4 5)
5(1 2 3 4 5)
5(1 2 3 4 5)
5(1 2 3 4 5)
5(1 2 3 4 5)
5(1 2 3 4 5)
5(1 2 3 4 5)
5(1 2 3 4 5)
5(1 2 3 4 5)
5(1 2 3 4 5)
5(1 2 3 4 5)
5(1 2 3 4 5)
5(1 2 3 4 5)
5(1 2 3 4 5)
5(1 2 3 4 5)
5(1 2 3 4 5)
5(1 2 3 4 5)
5(1 2 3 4 5)
5(1 2 3 4 5)
5(1 2 3 4 5)
5(1 2 3 4 5)
5(1 2 3 4 5)
5(1 2 3 4 5)
5(1 2 3 4 5)
5(1 2 3 4 5)
5(1 2 3 4 5)
5(1 2 3 4 5)
5(1 2 3 4 5)
5(1 2 3 4 5)
5(1 2 3 4 5)
5(1 2 3 4 5)
5(1 2 3 4 5)
5(1 2 3 4 5)
5(1 2 3 4 5)
5(1 2 3 4 5)
5(1 2 3 4 5)
5(1 2 3 4 5)
5(1 2 3 4 5)
5(1 2 3 4 5)
5(1 2 3 4 5)
5(1 2 3 4 5)
5(1 2 3 4 5)
5(1 2 3 4 5)
5(1 2 3 4 5)
5(1 2 3 4 5)
)


60
(
5(1 2 3 4 5)
5(1 2 3 4 5)
5(1 2 3 4 5)
5(1 2 3 4 5)
5(1 2 3 4 5)
5(1 2 3 4 5)
5(1 2 3 4 5)
5(1 2 3 4 5)
5(1 2 3 4 5)
5(1 2 3 4 5)
5(1 2 3 4 5)
5(1 2 3 4 5)
5(1 2 3 4 5)
5(1 2 3 4 5)
5(1 2 3 4 5)
5(1 2 3 4 5)
5(1 2 3 4 5)
5(1 2 3 4 5)
5(1 2 3 4 5)
5(1 2 3 4 5)
5(1 2 3 4 5)
5(1 2 3 4 5)
5(1 2 3 4 5)
5(1 2 3 4 5)
5(1 2 3 4 5)
5(1 2 3 4 5)
5(1 2 3 4 5)
5(1 2 3 4 5)
5(1 2 3 4 5)
5(1 2 3 4 5)
5(1 2 3 4 5)
5(1 2 3 4 5)
5(1 2 3 4 5)
5(1 2 3 4 5)
5(1 2 3 4 5)
5(1 2 3 4 5)
5(1 2 3 4 5)
5(1 2 3 4 5)
5(1 2 3 4 5)
5(1 2 3 4 5)
5(1 2 3 4 5)
5(1 2 3 4 5)
5(1 2 3 4 5)
5(1 2 3 4 5)
5(1 2 3 4 5)
5(1 2 3 4 5)
5(1 2 3 4 5)
5(1 2 3 4 5)
5(1 2 3 4 5)
5(1 2 3 4 5)
5(1 2 3 4 5)
5(1 2 3 4 5)
5(1 2 3 4 5)
5(1 2 3 4 5)
5(1 2 3 4 5)
5(1 2 3 4 5)
5(1 2 3 4 5)
5(1 2 3 4 5)
5(1 2 3 4 5)
5(1 2 3 4 5)
)


60
(
5(1 2 3 4 5)
5(1 2 3 4 5)
5(1 2 3 4 5)
5(1 2 3 4 5)
5(1 2 3 4 5)
5(1 2 3 4 5)
5(1 2 3 4 5)
5(1 2 3 4 5)
5(1 2 3 4 5)
5(1 2 3 4 5)
5(1 2 3 4 5)
5(1 2 3 4 5)
5(1 2 3 4 5)
5(1 2 3 4 5)
5(1 2 3 4 5)
5(1 2 3 4 5)
5(1 2 3 4 5)
5(1 2 3 4 5)
5(1 2 3 4 5)
5(1 2 3 4 5)
5(1 2 3 4 5)
5(1 2 3 4 5)
5(1 2 3 4 5)
5(1 2 3 4 5)
5(1 2 3 4 5)
5(1 2 3 4 5)
5(1 2 3 4 5)
5(1 2 3 4 5)
5(1 2 3 4 5)
5(1 2 3 4 5)
5(1 2 3 4 5)
5(1 2 3 4 5)
5(1 2 3 4 5)
5(1 2 3 4 5)
5(1 2 3 4 5)
5(1 2 3 4 5)
5(1 2 3 4 5)
5(1 2 3 4 5)
5(1 2 3 4 5)
5(1 2 3 4 5)
5(1 2 3 4 5)
5(1 2 3 4 5)
5(1 2 3 4 5)
5(1 2 3 4 5)
5(1 2 3 4 5)
5(1 2 3 4 5)
5(1 2 3 4 5)
5(1 2 3 4 5)
5(1 2 3 4 5)
5(1 2 3 4 5)
5(1 2 3 4 5)
5(1 2 3 4 5)
5(1 2 3 4 5)
5(1 2 3 4 5)
5(1 2 3 4 5)
5(1 2 3 4 5)
5(1 2 3 4 5)
5(1 2 3 4 5)
5(1 2 3 4 5)
5(1 2 3 4 5)
)


60
(
5(1 2 3 4 5)
5(1 2 3 4 5)
5(1 2 3 4 5)
5(1 2 3 4 5)
5(1 2 3 4 5)
5(1 2 3 4 5)
5(1 2 3 4 5)
5(1 2 3 4 5)
5(1 2 3 4 5)
5(1 2 3 4 5)
5(1 2 3 4 5)
5(1 2 3 4 5)
5(1 2 3 4 5)
5(1 2 3 4 5)
5(1 2 3 4 5)
5(1 2 3 4 5)
5(1 2 3 4 5)
5(1 2 3 4 5)
5(1 2 3 4 5)
5(1 2 3 4 5)
5(1 2 3 4 5)
5(1 2 3 4 5)
5(1 2 3 4 5)
5(1 2 3 4 5)
5(1 2 3 4 5)
5(1 2 3 4 5)
5(1 2 3 4 5)
5(1 2 3 4 5)
5(1 2 3 4 5)
5(1 2 3 4 5)
5(1 2 3 4 5)
5(1 2 3 4 5)
5(1 2 3 4 5)
5(1 2 3 4 5)
5(1 2 3 4 5)
5(1 2 3 4 5)
5(1 2 3 4 5)
5(1 2 3 4 5)
5(1 2 3 4 5)
5(1 2 3 4 5)
5(1 2 3 4 5)
5(1 2 3 4 5)
5(1 2 3 4 5)
5(1 2 3 4 5)
5(1 2 3 4 5)
5(1 2 3 4 5)
5(1 2 3 4 5)
5(1 2 3 4 5)
5(1 2 3 4 5)
5(1 2 3 4 5)
5(1 2 3 4 5)
5(1 2 3 4 5)
5(1 2 3 4 5)
5(1 2 3 4 5)
5(1 2 3 4 5)
5(1 2 3 4 5)
5(1 2 3 4 5)
5(1 2 3 4 5)
5(1 2 3 4 5)
5(1 2 3 4 5)
)


60
(
5(1 2 3 4 5)
5(1 2 3 4 5)
5(1 2 3 4 5)
5(1 2 3 4 5)
5(1 2 3 4 5)
5(1 2 3 4 5)
5(1 2 3 4 5)
5(1 2 3 4 5)
5(1 2 3 4 5)
5(1 2 3 4 5)
5(1 2 3 4 5)
5(1 2 3 4 5)
5(1 2 3 4 5)
5(1 2 3 4 5)
5(1 2 3 4 5)
5(1 2 3 4 5)
5(1 2 3 4 5)
5(1 2 3 4 5)
5(1 2 3 4 5)
5(1 2 3 4 5)
5(1 2 3 4 5)
5(1 2 3 4 5)
5(1 2 3 4 5)
5(1 2 3 4 5)
5(1 2 3 4 5)
5(1 2 3 4 5)
5(1 2 3 4 5)
5(1 2 3 4 5)
5(1 2 3 4 5)
5(1 2 3 4 5)
5(1 2 3 4 5)
5(1 2 3 4 5)
5(1 2 3 4 5)
5(1 2 3 4 5)
5(1 2 3 4 5)
5(1 2 3 4 5)
5(1 2 3 4 5)
5(1 2 3 4 5)
5(1 2 3 4 5)
5(1 2 3 4 5)
5(1 2 3 4 5)
5(1 2 3 4 5)
5(1 2 3 4 5)
5(1 2 3 4 5)
5(1 2 3 4 5)
5(1 2 3 4 5)
5(1 2 3 4 5)
5(1 2 3 4 5)
5(1 2 3 4 5)
5(1 2 3 4 5)
5(1 2 3 4 5)
5(1 2 3 4 5)
5(1 2 3 4 5)
5(1 2 3 4 5)
5(1 2 3 4 5)
5(1 2 3 4 5)
5(1 2 3 4 5)
5(1 2 3 4 5)
5(1 2 3 4 5)
5(1 2 3 4 5)
)


60
(
5(1 2 3 4 5)
5(1 2 3 4 5)
5(1 2 3 4 5)
5(1 2 3 4 5)
5(1 2 3 4 5)
5(1 2 3 4 5)
5(1 2 3 4 5)
5(1 2 3 4 5)
5(1 2 3 4 5)
5(1 2 3 4 5)
5(1 2 3 4 5)
5(1 2 3 4 5)
5(1 2 3 4 5)
5(1 2 3 4 5)
5(1 2 3 4 5)
5(1 2 3 4 5)
5(1 2 3 4 5)
5(1 2 3 4 5)
5(1 2 3 4 5)
5(1 2 3 4 5)
5(1 2 3 4 5)
5(1 2 3 4 5)
5(1 2 3 4 5)
5(1 2 3 4 5)
5(1 2 3 4 5)
5(1 2 3 4 5)
5(1 2 3 4 5)
5(1 2 3 4 5)
5(1 2 3 4 5)
5(1 2 3 4 5)
5(1 2 3 4 5)
5(1 2 3 4 5)
5(1 2 3 4 5)
5(1 2 3 4 5)
5(1 2 3 4 5)
5(1 2 3 4 5)
5(1 2 3 4 5)
5(1 2 3 4 5)
5(1 2 3 4 5)
5(1 2 3 4 5)
5(1 2 3 4 5)
5(1 2 3 4 5)
5(1 2 3 4 5)
5(1 2 3 4 5)
5(1 2 3 4 5)
5(1 2 3 4 5)
5(1 2 3 4 5)
5(1 2 3 4 5)
5(1 2 3 4 5)
5(1 2 3 4 5)
5(1 2 3 4 5)
5(1 2 3 4 5)
5(1 2 3 4 5)
5(1 2 3 4 5)
5(1 2 3 4 5)
5(1 2 3 4 5)
5(1 2 3 4 5)
5(1 2 3 4 5)
5(1 2 3 4 5)
5(1 2 3 4 5)
)


60
(
5(1 2 3 4 5)
5(1 2 3 4 5)
5(1 2 3 4 5)
5(1 2 3 4 5)
5(1 2 3 4 5)
5(1 2 3 4 5)
5(1 2 3 4 5)
5(1 2 3 4 5)
5(1 2 3 4 5)
5(1 2 3 4 5)
5(1 2 3 4 5)
5(1 2 3 4 5)
5(1 2 3 4 5)
5(1 2 3 4 5)
5(1 2 3 4 5)
5(1 2 3 4 5)
5(1 2 3 4 5)
5(1 2 3 4 5)
5(1 2 3 4 5)
5(1 2 3 4 5)
5(1 2 3 4 5)
5(1 2 3 4 5)
5(1 2 3 4 5)
5(1 2 3 4 5)
5(1 2 3 4 5)
5(1 2 3 4 5)
5(1 2 3 4 5)
5(1 2 3 4 5)
5(1 2 3 4 5)
5(1 2 3 4 5)
5(1 2 3 4 5)
5(1 2 3 4 5)
5(1 2 3 4 5)
5(1 2 3 4 5)
5(1 2 3 4 5)
5(1 2 3 4 5)
5(1 2 3 4 5)
5(1 2 3 4 5)
5(1 2 3 4 5)
5(1 2 3 4 5)
5(1 2 3 4 5)
5(1 2 3 4 5)
5(1 2 3 4 5)
5(1 2 3 4 5)
5(1 2 3 4 5)
5(1 2 3 4 5)
5(1 2 3 4 5)
5(1 2 3 4 5)
5(1 2 3 4 5)
5(1 2 3 4 5)
5(1 2 3 4 5)
5(1 2 3 4 5)
5(1 2 3 4 5)
5(1 2 3 4 5)
5(1 2 3 4 5)
5(1 2 3 4 5)
5(1 2 3 4 5)
5(1 2 3 4 5)
5(1 2 3 4 5)
5(1 2 3 4 5)
)


60
(