/*--------------------------------*- C++ -*----------------------------------*\
| =========                 |                                                 |
| \\      /  F ield         | OpenFOAM: The Open Source CFD Toolbox           |
|  \\    /   O peration     | Version:  2.3.1                                 |
|   \\  /    A nd           | Web:      www.OpenFOAM.org                      |
|    \\/     M anipulation  |                                                 |
\*---------------------------------------------------------------------------*/
FoamFile
{
    version     2.0;
    format      ascii;
    class       dictionary;
    location    "constant";
    object      PV;
}
// * * * * * * * * * * * * * * * * * * * * * * * * * * * * * * * * * * * * * //

PV_table
101
(
5(0.0012034326 0.00013702319 1.2248223e-06 5.5878233e-05 0.00023581867)
5(0.034372141 0.034733606 0.03560678 0.036869498 0.038147219)
5(0.067540848 0.069277113 0.07118676 0.073739413 0.07605862)
5(0.10070956 0.10380002 0.10676886 0.11058062 0.11397002)
5(0.13387826 0.13831981 0.14234808 0.14743398 0.15188142)
5(0.16704697 0.17282793 0.17787625 0.18425094 0.18979282)
5(0.20021568 0.20733456 0.21342863 0.22106923 0.22770422)
5(0.23338439 0.24181913 0.24897088 0.25789223 0.26561562)
5(0.2665531 0.27629879 0.28447291 0.2946911 0.30352703)
5(0.2997218 0.31078285 0.31996489 0.33151256 0.34143843)
5(0.33289051 0.34528083 0.35548155 0.36838292 0.37934983)
5(0.36605922 0.37980982 0.39101334 0.40521758 0.41726123)
5(0.39922793 0.41433554 0.42654176 0.44204055 0.45517263)
5(0.43239664 0.44883199 0.46203391 0.47880804 0.49308403)
5(0.46556534 0.48330881 0.49753607 0.51552882 0.53099543)
5(0.49873405 0.51776968 0.53304239 0.55231607 0.56890683)
5(0.53190276 0.55221304 0.56855855 0.58912006 0.60681823)
5(0.56507147 0.58668793 0.60407424 0.62592962 0.64472963)
5(0.59824018 0.62119975 0.63959413 0.66275396 0.68264103)
5(0.63140888 0.65570443 0.67510975 0.69957871 0.72055243)
5(0.66457759 0.6902239 0.71066072 0.73643811 0.75846383)
5(0.6977463 0.72473711 0.74619704 0.77326688 0.79637524)
5(0.73091501 0.75928021 0.78175443 0.81015953 0.83428664)
5(0.76408371 0.79385333 0.81732577 0.84704186 0.87219804)
5(0.79725242 0.8284038 0.8528996 0.88394036 0.91010944)
5(0.83042113 0.86301403 0.88849949 0.92086286 0.94802084)
5(0.86358984 0.89762159 0.9241032 0.95779546 0.98593224)
5(0.89675855 0.93223367 0.95971473 0.99475091 1.0238436)
5(0.92992725 0.96688869 0.99530991 1.0317118 1.061755)
5(0.96309596 1.0015268 1.0309077 1.068666 1.0996664)
5(0.99626467 1.0361866 1.066548 1.105679 1.1375778)
5(1.0294334 1.070886 1.1022314 1.1427077 1.1754892)
5(1.0626021 1.1055876 1.1379098 1.1797398 1.2134006)
5(1.0957708 1.1403276 1.1736338 1.2168096 1.251312)
5(1.1289395 1.1750398 1.2093403 1.2538257 1.2892234)
5(1.1621082 1.2098062 1.2450735 1.2909181 1.3271348)
5(1.1952769 1.2445915 1.2808728 1.3281279 1.3650462)
5(1.2284456 1.2793435 1.3165682 1.3649802 1.4029576)
5(1.2616143 1.3140574 1.3523297 1.4020087 1.440869)
5(1.294783 1.3488218 1.3883327 1.4392231 1.4787804)
5(1.3279517 1.3835221 1.4240247 1.4760985 1.5166919)
5(1.3611205 1.4182487 1.4596751 1.5129802 1.5546033)
5(1.3942892 1.4528365 1.4953556 1.5498716 1.5925147)
5(1.4274579 1.4874802 1.5313936 1.5870931 1.6304261)
5(1.4606266 1.5221298 1.5668886 1.623944 1.6683375)
5(1.4937953 1.5568994 1.602453 1.6608921 1.7062489)
5(1.526964 1.5917893 1.6381815 1.6978514 1.7441603)
5(1.5601327 1.626147 1.6739256 1.7346852 1.7820717)
5(1.5933014 1.6605281 1.7097824 1.771605 1.8199831)
5(1.6264701 1.694898 1.7454705 1.8083715 1.8578945)
5(1.6596388 1.7295672 1.7810879 1.8452614 1.8958059)
5(1.6928075 1.7643212 1.8167595 1.8821203 1.9337173)
5(1.7259762 1.7990849 1.8522927 1.918946 1.9716287)
5(1.759145 1.8338564 1.8877763 1.9557501 2.0095401)
5(1.7923137 1.8686308 1.9231613 1.9925098 2.0474515)
5(1.8254824 1.9029972 1.958462 2.0292532 2.0853629)
5(1.8586511 1.937325 1.9937079 2.0659511 2.1232743)
5(1.8918198 1.9715652 2.0288604 2.1025687 2.1611857)
5(1.9249885 2.0059286 2.0641897 2.1392455 2.1990971)
5(1.9581572 2.0403664 2.099596 2.1759615 2.2370085)
5(1.9913259 2.0747841 2.1350006 2.2126779 2.2749199)
5(2.0244946 2.1092275 2.1704156 2.2494123 2.3128313)
5(2.0576633 2.1436527 2.2058238 2.2861407 2.3507427)
5(2.090832 2.1780611 2.2412539 2.3229 2.3886541)
5(2.1240007 2.2124393 2.2766782 2.3596425 2.4265655)
5(2.1571694 2.2468604 2.3121223 2.3964318 2.4644769)
5(2.1903382 2.2812785 2.3475654 2.4332003 2.5023883)
5(2.2235069 2.3157249 2.3830246 2.4700107 2.5402997)
5(2.2566756 2.3501727 2.418485 2.5068003 2.5782111)
5(2.2898443 2.384653 2.4539603 2.543623 2.6161225)
5(2.323013 2.4191373 2.4894362 2.5804405 2.6540339)
5(2.3561817 2.4536414 2.5249194 2.6172697 2.6919453)
5(2.3893504 2.4881339 2.5604083 2.6541151 2.7298567)
5(2.4225191 2.5226801 2.5958959 2.6909528 2.7677681)
5(2.4556878 2.5572096 2.6313986 2.727821 2.8056795)
5(2.4888565 2.5917492 2.6668979 2.764666 2.8435909)
5(2.5220252 2.6263259 2.7024046 2.8015516 2.8815023)
5(2.5551939 2.6608955 2.7379132 2.8384047 2.9194137)
5(2.5883627 2.695467 2.7734133 2.8753112 2.9573251)
5(2.6215314 2.730058 2.8089179 2.9121834 2.9952365)
5(2.6547001 2.7646594 2.8444266 2.9490877 3.0331479)
5(2.6878688 2.7992566 2.8799221 2.9859916 3.0710593)
5(2.7210375 2.8338684 2.9154335 3.022878 3.1089707)
5(2.7542062 2.8684795 2.9509292 3.0597804 3.1468821)
5(2.7873749 2.903135 2.9864358 3.0967071 3.1847935)
5(2.8205436 2.9377739 3.021935 3.1336416 3.2227049)
5(2.8537123 2.9723959 3.0574128 3.1705721 3.2606163)
5(2.886881 3.0071266 3.0929071 3.2075266 3.2985277)
5(2.9200497 3.0418033 3.1283926 3.244498 3.3364391)
5(2.9532184 3.0765066 3.1638846 3.2814864 3.3743505)
5(2.9863871 3.1112525 3.1993665 3.3184929 3.4122619)
5(3.0195559 3.1460401 3.2348256 3.3555074 3.4501733)
5(3.0527246 3.1808553 3.2702934 3.3925812 3.4880847)
5(3.0858933 3.2156103 3.3057318 3.4297044 3.5259961)
5(3.119062 3.2504919 3.341195 3.4669073 3.5639075)
5(3.1522307 3.2854663 3.3766896 3.5042232 3.6018189)
5(3.1853994 3.3204698 3.4121359 3.5416424 3.6397303)
5(3.2185681 3.3558611 3.4476331 3.5791359 3.6776417)
5(3.2517368 3.3918455 3.4830982 3.6169245 3.7155531)
5(3.2849055 3.4290552 3.5185323 3.6554758 3.7534645)
5(3.3180742 3.4731718 3.5542685 3.697189 3.7913759)
)
;