/*--------------------------------*- C++ -*----------------------------------*\
| =========                 |                                                 |
| \\      /  F ield         | OpenFOAM: The Open Source CFD Toolbox           |
|  \\    /   O peration     | Version:  2.3.1                                 |
|   \\  /    A nd           | Web:      www.OpenFOAM.org                      |
|    \\/     M anipulation  |                                                 |
\*---------------------------------------------------------------------------*/
FoamFile
{
    version     2.0;
    format      ascii;
    class       dictionary;
    location    "constant";
    object      theta3;
}
// * * * * * * * * * * * * * * * * * * * * * * * * * * * * * * * * * * * * * //

theta3_table
101
(
5(1 2.1818488 3.3879875 4.2267887 5)
5(1 1.9842482 3.0114909 3.979871 5)
5(1 1.980684 3.0012297 3.981198 5)
5(1 1.9737797 2.9977685 3.9742895 5)
5(1 1.9704299 2.9951423 3.973169 5)
5(1 1.9666991 2.9832529 3.9669027 5)
5(1 1.9641847 2.9795073 3.9628942 5)
5(1 1.959963 2.9754029 3.9605482 5)
5(1 1.9564225 2.9673127 3.95647 5)
5(1 1.9541185 2.9599396 3.9552265 5)
5(1 1.9533832 2.9565253 3.9579908 5)
5(1 1.9549447 2.955111 3.9577575 5)
5(1 1.9560216 2.9536563 3.9568145 5)
5(1 1.9552222 2.9496571 3.9527366 5)
5(1 1.9534882 2.9469457 3.9466772 5)
5(1 1.9512002 2.9448748 3.944831 5)
5(1 1.9483948 2.9436745 3.94402 5)
5(1 1.9473159 2.94259 3.9435561 5)
5(1 1.9478867 2.9418575 3.9437747 5)
5(1 1.9481162 2.9409805 3.943987 5)
5(1 1.9488693 2.9419394 3.9455096 5)
5(1 1.949328 2.9421171 3.9457662 5)
5(1 1.9507452 2.9432242 3.9482316 5)
5(1 1.9529962 2.944834 3.9501375 5)
5(1 1.9543597 2.9464108 3.9524024 5)
5(1 1.9573662 2.9488894 3.955224 5)
5(1 1.9600592 2.9513212 3.9581272 5)
5(1 1.9626699 2.9538573 3.9614657 5)
5(1 1.9662116 2.9556357 3.9647161 5)
5(1 1.9690752 2.9573779 3.9675638 5)
5(1 1.9722734 2.9604044 3.9717277 5)
5(1 1.9761913 2.9646002 3.9760146 5)
5(1 1.9799105 2.9683816 3.9801138 5)
5(1 1.9842448 2.973293 3.9848431 5)
5(1 1.9877236 2.9774064 3.9880789 5)
5(1 1.9921287 2.9820384 3.9928062 5)
5(1 1.9966643 2.9882163 3.9997782 5)
5(1 2.0003987 2.9912952 3.9989464 5)
5(1 2.0040676 2.9959252 4.0021845 5)
5(1 2.0088241 3.0050058 4.0101813 5)
5(1 2.0117604 3.006807 4.0095071 5)
5(1 2.0151867 3.0077399 4.009017 5)
5(1 2.0151966 3.00918 4.0087738 5)
5(1 2.0164863 3.0169436 4.0160369 5)
5(1 2.0178458 3.0148691 4.0147479 5)
5(1 2.0217725 3.0140705 4.0156265 5)
5(1 2.0280983 3.016049 4.0167027 5)
5(1 2.0230153 3.0181991 4.0151261 5)
5(1 2.0186212 3.0220646 4.0153656 5)
5(1 2.0141835 3.0231258 4.0125395 5)
5(1 2.0158147 3.0230583 4.0122354 5)
5(1 2.0190142 3.0238083 4.0113501 5)
5(1 2.0222754 3.022485 4.0098747 5)
5(1 2.0255583 3.0204919 4.0080564 5)
5(1 2.0287704 3.0171698 4.0055013 5)
5(1 2.0245723 3.0127893 4.0027494 5)
5(1 2.0198446 3.0078144 3.9994497 5)
5(1 2.0137722 3.0017527 3.9957507 5)
5(1 2.0099997 2.9977544 3.9929626 5)
5(1 2.0075935 2.9947017 3.990781 5)
5(1 2.0049395 2.991724 3.9886761 5)
5(1 2.0027875 2.9890099 3.9868684 5)
5(1 2.0004148 2.9862774 3.9850435 5)
5(1 1.9984277 2.9839723 3.9836546 5)
5(1 1.996271 2.9816511 3.9821062 5)
5(1 1.9946556 2.9797011 3.9811593 5)
5(1 1.9930582 2.977796 3.9799994 5)
5(1 1.9918126 2.9761834 3.9793539 5)
5(1 1.9906196 2.9746351 3.9784925 5)
5(1 1.989801 2.9733447 3.9780246 5)
5(1 1.9890468 2.9720994 3.9775141 5)
5(1 1.9885143 2.9709906 3.9771441 5)
5(1 1.9878813 2.9699913 3.9769568 5)
5(1 1.9877956 2.9690009 3.9766934 5)
5(1 1.9875491 2.9682374 3.9767551 5)
5(1 1.9874071 2.9674507 3.9765766 5)
5(1 1.9876191 2.9667798 3.9768139 5)
5(1 1.9877603 2.9661511 3.9767201 5)
5(1 1.9879144 2.9654318 3.9771545 5)
5(1 1.9882431 2.9647854 3.9772446 5)
5(1 1.988656 2.9642071 3.9776418 5)
5(1 1.9890216 2.963482 3.9780244 5)
5(1 1.9895066 2.9629652 3.9782339 5)
5(1 1.9899741 2.9622754 3.9785861 5)
5(1 1.9908094 2.9617291 3.9791531 5)
5(1 1.9914847 2.9611101 3.9797766 5)
5(1 1.9920033 2.9602617 3.98035 5)
5(1 1.9934079 2.9596188 3.9811223 5)
5(1 1.9943389 2.9588919 3.9820247 5)
5(1 1.9954646 2.9582544 3.9830542 5)
5(1 1.9969037 2.95752 3.9842146 5)
5(1 1.9986414 2.9565554 3.9854179 5)
5(1 2.0007603 2.9557051 3.9870893 5)
5(1 2.002686 2.9545622 3.9891343 5)
5(1 2.0058935 2.9537023 3.991787 5)
5(1 2.0099926 2.9531862 3.9952979 5)
5(1 2.0143037 2.9521865 3.9995635 5)
5(1 2.0224532 2.9517232 4.0055158 5)
5(1 2.03638 2.9509469 4.0144128 5)
5(1 2.0621811 2.9498791 4.0306746 5)
5(1 2.1553023 2.9517999 4.0775795 5)
)
;