/*--------------------------------*- C++ -*----------------------------------*\
| =========                 |                                                 |
| \\      /  F ield         | OpenFOAM: The Open Source CFD Toolbox           |
|  \\    /   O peration     | Version:  2.3.1                                 |
|   \\  /    A nd           | Web:      www.OpenFOAM.org                      |
|    \\/     M anipulation  |                                                 |
\*---------------------------------------------------------------------------*/
FoamFile
{
    version     2.0;
    format      ascii;
    class       dictionary;
    location    "constant";
    object      theta1;
}
// * * * * * * * * * * * * * * * * * * * * * * * * * * * * * * * * * * * * * //

theta1_table
101
(
5{60}
5{60}
5{60}
5{60}
5{60}
5{60}
5{60}
5{60}
5{60}
5{60}
5{60}
5{60}
5{60}
5{60}
5{60}
5{60}
5{60}
5{60}
5{60}
5{60}
5{60}
5{60}
5{60}
5{60}
5{60}
5{60}
5{60}
5{60}
5{60}
5{60}
5{60}
5{60}
5{60}
5{60}
5{60}
5{60}
5{60}
5{60}
5{60}
5{60}
5{60}
5{60}
5{60}
5(60 60 60 59.985149 59.073961)
5(60 60 59.98496 58.974712 58.05512)
5(60 60 59.971197 57.938644 57.036278)
5(60 60 59.950528 56.902427 56.017437)
5(60 60 59.925055 55.86859 54.998595)
5(60 60 59.886289 54.833126 53.979754)
5(60 59.994981 59.511224 53.800276 52.960913)
5(60 59.976219 58.364331 52.76523 51.942071)
5(60 59.949542 57.21284 51.730648 50.92323)
5(60 59.915273 56.072906 50.696509 49.904388)
5(60 59.873396 54.936272 49.662589 48.885547)
5(60 59.824401 53.806177 48.629174 47.866705)
5(60 58.640773 52.68077 47.595821 46.847864)
5(60 57.3878 51.557354 46.565145 45.829023)
5(60 56.141322 50.438146 45.547773 44.810181)
5(59.167697 54.880241 49.309509 44.525176 43.79134)
5(57.782752 53.610626 48.17609 43.499096 42.772498)
5(56.397807 52.341695 47.041447 42.472166 41.753657)
5(55.012862 51.069423 45.904624 41.443429 40.734816)
5(53.627916 49.797699 44.767167 40.414352 39.715974)
5(52.242971 48.52147 43.626852 39.383012 38.697133)
5(50.858026 47.244928 42.485996 38.352011 37.678291)
5(49.473081 45.966042 41.342772 37.318247 36.65945)
5(48.088136 44.686769 40.198819 36.285095 35.640608)
5(46.703191 43.406005 39.053058 35.249735 34.621767)
5(45.318245 42.12482 37.906589 34.215018 33.602926)
5(43.9333 40.842226 36.758629 33.178709 32.584084)
5(42.548355 39.559272 35.610142 32.142438 31.565243)
5(41.16341 38.275519 34.460788 31.105585 30.546401)
5(39.778465 36.991942 33.310725 30.068061 29.52756)
5(38.39352 35.706748 32.160361 29.03073 28.508718)
5(37.008574 34.421959 31.008939 27.992371 27.489877)
5(35.623629 33.136857 29.85739 26.954713 26.471036)
5(34.238684 31.85087 28.705257 25.915873 25.452194)
5(32.853739 30.56509 27.552813 24.877959 24.433353)
5(31.468794 29.27931 26.400468 23.838693 23.414511)
5(30.083849 27.993191 25.247724 22.800354 22.39567)
5(28.698903 26.706969 24.094623 21.761333 21.376828)
5(27.313958 25.420921 22.941742 20.722435 20.357987)
5(25.929013 24.13473 21.788163 19.683981 19.339146)
5(24.544068 22.848666 20.63484 18.645296 18.320304)
5(23.159123 21.562104 19.481023 17.6063 17.301463)
5(21.774178 20.275952 18.327206 16.567336 16.282621)
5(20.389232 18.990157 17.173653 15.528595 15.26378)
5(19.004287 17.703307 16.019515 14.48969 14.244939)
5(17.619342 16.417311 14.865339 13.450782 13.226097)
5(16.234397 15.131288 13.710835 12.411921 12.207256)
5(14.849452 13.845176 12.556291 11.373146 11.188414)
5(13.464507 12.559083 11.401828 10.334593 10.169573)
5(12.079561 11.272829 10.246983 9.2958857 9.1507314)
5(10.694616 9.9869148 9.0921841 8.2572621 8.13189)
5(9.309671 8.7004857 7.9368506 7.2186893 7.1130485)
5(7.9247258 7.4143192 6.7810553 6.1802326 6.0942071)
5(6.5397807 6.1291398 5.6253812 5.1422339 5.0753657)
5(5.1548355 4.8435719 4.4692226 4.1062498 4.0565243)
5(3.7698903 3.5586411 3.3130235 3.0705366 3.0376828)
5(2.3849452 2.2758559 2.1566551 2.0349973 2.0188414)
5{1}
)
;