/*--------------------------------*- C++ -*----------------------------------*\
| =========                 |                                                 |
| \\      /  F ield         | OpenFOAM: The Open Source CFD Toolbox           |
|  \\    /   O peration     | Version:  2.3.1                                 |
|   \\  /    A nd           | Web:      www.OpenFOAM.org                      |
|    \\/     M anipulation  |                                                 |
\*---------------------------------------------------------------------------*/
FoamFile
{
    version     2.0;
    format      ascii;
    class       dictionary;
    location    "constant";
    object      Zmax;
}
// * * * * * * * * * * * * * * * * * * * * * * * * * * * * * * * * * * * * * //

Zmax_table
101
(
5{0.088893072}
5{0.0970663}
5{0.10040635}
5{0.10270539}
5{0.1044495}
5{0.10578105}
5{0.10679102}
5{0.10755596}
5{0.1081207}
5{0.10853675}
5{0.10882689}
5{0.10899693}
5{0.10906998}
5{0.10906067}
5{0.10899128}
5{0.10887062}
5{0.10870657}
5{0.10850988}
5{0.10827774}
5{0.10802545}
5{0.10775725}
5{0.10747277}
5{0.10718032}
5{0.10688126}
5{0.10657871}
5{0.10627485}
5{0.10597267}
5{0.10567389}
5{0.10537871}
5{0.10508781}
5{0.10480681}
5{0.10453499}
5{0.10426888}
5{0.10401925}
5{0.10377253}
5{0.10354362}
5{0.10332802}
5{0.10311242}
5{0.10291271}
5{0.10273786}
5{0.102563}
5{0.10238815}
5{0.10221329}
5{0.10206984}
5{0.10192956}
5{0.10179748}
5{0.10167436}
5{0.10155278}
5{0.10144201}
5{0.10133148}
5{0.10122669}
5{0.10112344}
5{0.1010223}
5{0.10092252}
5{0.10082311}
5{0.100724}
5{0.10062435}
5{0.10052384}
5{0.10042218}
5{0.10031878}
5{0.10021369}
5{0.10010632}
5{0.099996695}
5{0.099884552}
5{0.099769637}
5{0.099652059}
5{0.09953124}
5{0.099407649}
5{0.099280292}
5{0.099150075}
5{0.099015949}
5{0.098878652}
5{0.098737407}
5{0.098592595}
5{0.098443749}
5{0.098291055}
5{0.098134009}
5{0.097973137}
5{0.097807167}
5{0.097636822}
5{0.097461767}
5{0.09728094}
5{0.097094785}
5{0.096903048}
5{0.096705171}
5{0.096500567}
5{0.096288732}
5{0.09606914}
5{0.095841263}
5{0.095603771}
5{0.095355742}
5{0.095095679}
5{0.0948221}
5{0.094532652}
5{0.09422442}
5{0.093892953}
5{0.093531737}
5{0.093131917}
5{0.092676995}
5{0.092134288}
5{0.091416396}
)
;