/*--------------------------------*- C++ -*----------------------------------*\
| =========                 |                                                 |
| \\      /  F ield         | OpenFOAM: The Open Source CFD Toolbox           |
|  \\    /   O peration     | Version:  2.3.1                                 |
|   \\  /    A nd           | Web:      www.OpenFOAM.org                      |
|    \\/     M anipulation  |                                                 |
\*---------------------------------------------------------------------------*/
FoamFile
{
    version     2.0;
    format      ascii;
    class       dictionary;
    location    "constant";
    object      Zmin;
}
// * * * * * * * * * * * * * * * * * * * * * * * * * * * * * * * * * * * * * //

Zmin_table
101
(
5{0.077645364}
5{0.082727393}
5{0.085241733}
5{0.087082938}
5{0.088515348}
5{0.089677917}
5{0.090661079}
5{0.091460919}
5{0.092117181}
5{0.092653691}
5{0.093092085}
5{0.093458438}
5{0.093733587}
5{0.093944376}
5{0.094090003}
5{0.094189636}
5{0.094240128}
5{0.094248863}
5{0.094225516}
5{0.094173774}
5{0.094090475}
5{0.093985178}
5{0.093861926}
5{0.093719408}
5{0.093562319}
5{0.093393697}
5{0.093212622}
5{0.093022974}
5{0.092827498}
5{0.092622446}
5{0.092413577}
5{0.092201983}
5{0.091987809}
5{0.091770879}
5{0.091553378}
5{0.09133577}
5{0.091118966}
5{0.090902693}
5{0.090689049}
5{0.090476278}
5{0.090267356}
5{0.090060689}
5{0.089857073}
5{0.08965976}
5{0.089462448}
5{0.089273858}
5{0.089093219}
5{0.088912579}
5{0.08873194}
5{0.0885513}
5{0.088395584}
5{0.088246381}
5{0.088097178}
5{0.087947975}
5{0.087798773}
5{0.08764957}
5{0.087500367}
5{0.087351164}
5{0.087216355}
5{0.087091112}
5{0.086968558}
5{0.086850281}
5{0.086733442}
5{0.086620114}
5{0.086507465}
5{0.086397368}
5{0.086287509}
5{0.08617858}
5{0.086069615}
5{0.08596042}
5{0.085850692}
5{0.085739901}
5{0.085627798}
5{0.085514325}
5{0.085398483}
5{0.08528095}
5{0.085160699}
5{0.085037895}
5{0.084912028}
5{0.084782904}
5{0.084650595}
5{0.084514268}
5{0.084373578}
5{0.084228854}
5{0.084079161}
5{0.08392434}
5{0.083763312}
5{0.083596947}
5{0.083421757}
5{0.083239585}
5{0.083048381}
5{0.082846162}
5{0.082632767}
5{0.082403712}
5{0.082156969}
5{0.081889194}
5{0.081589152}
5{0.081251763}
5{0.080850645}
5{0.080341029}
5{0.07960466}
)
;