/*--------------------------------*- C++ -*----------------------------------*\
| =========                 |                                                 |
| \\      /  F ield         | OpenFOAM: The Open Source CFD Toolbox           |
|  \\    /   O peration     | Version:  2.3.1                                 |
|   \\  /    A nd           | Web:      www.OpenFOAM.org                      |
|    \\/     M anipulation  |                                                 |
\*---------------------------------------------------------------------------*/
FoamFile
{
    version     2.0;
    format      ascii;
    class       dictionary;
    location    "constant";
    object      C2H6;
}
// * * * * * * * * * * * * * * * * * * * * * * * * * * * * * * * * * * * * * //

C2H6_table
60
(

60
(
5(0.0003561447595 0.0001863897359 0.0003364783296 0.0002203442279 0.0002695122842)
5(0.0002196087628 5.849164504e-05 0.0001826649589 0.0001254183924 0.000127296128)
5(0 9.872825955e-05 9.965526287e-05 6.42081074e-05 0)
5(0 0.0001112465343 0.0001075826467 2.623485256e-05 6.912203964e-05)
5(0 0.0001010856028 0.0001084685211 6.247344287e-05 4.774620467e-05)
5(8.789154655e-05 8.96903801e-05 5.354614892e-05 6.481000018e-05 3.746359583e-05)
5(0.0001319771762 8.170946152e-05 6.407570342e-05 4.728129435e-05 6.548667543e-05)
5(8.13175634e-05 8.090272419e-05 8.882495166e-05 5.465887363e-05 2.500311094e-05)
5(9.913550179e-05 8.426944861e-05 7.655860122e-05 5.605275899e-05 3.785632963e-05)
5(8.754064273e-05 8.800763403e-05 8.988933946e-05 5.135468702e-05 4.01795721e-05)
5(9.038275064e-05 8.687563814e-05 8.789755134e-05 5.222573777e-05 4.059947611e-05)
5(9.825386247e-05 8.707779749e-05 7.805852055e-05 5.232673634e-05 3.668372938e-05)
5(9.591446382e-05 8.784451911e-05 7.529304754e-05 5.607571364e-05 3.908258793e-05)
5(0.000107278036 8.88091194e-05 7.62905684e-05 4.986987249e-05 3.619381522e-05)
5(9.708422555e-05 8.460681474e-05 7.231824119e-05 5.230463232e-05 3.515793455e-05)
5(9.908419364e-05 8.414188809e-05 7.369340287e-05 5.206533553e-05 3.512097115e-05)
5(9.845393165e-05 8.288200479e-05 7.286364309e-05 5.167288355e-05 3.643376574e-05)
5(9.788938862e-05 8.205480942e-05 7.242444119e-05 5.288046644e-05 3.649094332e-05)
5(9.629784457e-05 8.195437608e-05 7.172009004e-05 5.157193661e-05 3.582443771e-05)
5(9.883329323e-05 8.511307928e-05 7.307702365e-05 5.422105162e-05 3.470697926e-05)
5(9.663871252e-05 8.118448389e-05 6.923155205e-05 5.219831693e-05 3.378286033e-05)
5(9.586607697e-05 7.959471752e-05 6.914531752e-05 4.486517167e-05 3.004822728e-05)
5(9.793149461e-05 7.960328642e-05 6.720773071e-05 4.759451003e-05 3.182718567e-05)
5(9.493442293e-05 8.134105809e-05 6.615869123e-05 4.628767747e-05 3.027741354e-05)
5(9.507204973e-05 7.9898836e-05 6.586808605e-05 4.667331856e-05 3.01763063e-05)
5(9.3729623e-05 7.745639257e-05 6.705065416e-05 4.748892964e-05 2.877182602e-05)
5(9.302708515e-05 7.44374621e-05 6.25511308e-05 4.657742258e-05 2.754921211e-05)
5(9.010664749e-05 7.279556035e-05 6.207650883e-05 4.490003956e-05 2.579400546e-05)
5(9.114320737e-05 7.180659681e-05 5.823630043e-05 4.16401228e-05 2.425963854e-05)
5(8.924469891e-05 7.099593717e-05 5.487566332e-05 3.707481222e-05 2.168234591e-05)
5(8.852526974e-05 6.925381204e-05 5.350660531e-05 3.56559071e-05 1.984615113e-05)
5(8.564296377e-05 6.495516094e-05 4.822145159e-05 3.005618553e-05 1.455367874e-05)
5(8.150308688e-05 6.163297736e-05 4.514443892e-05 2.67887504e-05 1.481843222e-05)
5(7.801785492e-05 5.820610097e-05 4.234141106e-05 2.266571812e-05 9.826977364e-06)
5(7.376353132e-05 5.25149663e-05 3.67336815e-05 1.892686674e-05 8.361412123e-06)
5(6.817027023e-05 4.88379002e-05 3.47160569e-05 1.550741719e-05 6.31279201e-06)
5(6.183503214e-05 3.959043786e-05 2.433638274e-05 1.069715982e-05 3.986084614e-06)
5(5.453531246e-05 3.461233629e-05 1.921519761e-05 8.099062016e-06 1.220260747e-06)
5(4.747730755e-05 2.7520787e-05 1.517999806e-05 5.0201849e-06 1.412655044e-06)
5(4.10337149e-05 2.141737246e-05 1.161112681e-05 3.187601509e-06 3.963236884e-09)
5(3.237701214e-05 1.461219226e-05 6.490742751e-06 1.655016096e-06 3.98448112e-09)
5(2.364711074e-05 9.649614174e-06 3.590777083e-06 8.169567999e-07 3.568503826e-35)
5(1.656329673e-05 5.33315006e-06 1.569680366e-06 0 0)
5(1.092996076e-05 3.086985557e-06 1.22212995e-06 0 3.032849991e-07)
5(6.542314826e-06 1.355188227e-06 4.068647065e-07 0 5.371813241e-08)
5(3.193323546e-06 5.732092481e-07 5.857768204e-08 0 0)
5(1.352912611e-06 1.583399891e-07 1.628946439e-08 3.549007062e-08 0)
5(6.792987769e-07 9.912750412e-09 5.631755328e-09 0 0)
5(1.377076618e-07 1.902088535e-09 9.975395094e-10 0 0)
5(2.624843859e-08 3.852169745e-11 0 0 0)
5(4.679020342e-09 0 0 0 0)
5(6.192947931e-10 0 0 0 0)
5(2.584338722e-13 0 0 0 0)
5{0}
5(0 3.098752755e-37 0 0 0)
5(0 9.97856263e-37 0 0 0)
5(0 3.142878309e-36 0 0 1.345735774e-35)
5(0 9.773801534e-37 2.863150637e-36 9.67243349e-36 2.038224223e-35)
5(0 5.850727045e-37 3.827222048e-36 1.269491704e-36 1.891430627e-36)
5(1.419481918e-39 1.510756474e-38 0 1.619776094e-36 6.383424115e-36)
)


60
(
5(0.0005183240158 0.0003966767681 0.0005030140923 0.0004055672004 0.0004246681504)
5(0.0004579144552 0.0004032164597 0.0004129071314 0.0003574317829 0.0003230583191)
5(0.0004293802775 0.0004096828837 0.0003741905638 0.0003385711072 0.0002767471285)
5(0.000427310179 0.0004170258684 0.000373344867 0.0003392548332 0.0002718245403)
5(0.0004423237279 0.000426419809 0.0003923214584 0.0003500403467 0.0002893783027)
5(0.0004625964966 0.0004355208456 0.0004105633956 0.0003605044926 0.0003086882668)
5(0.000474271038 0.0004421807176 0.0004178381345 0.0003664256643 0.0003165043194)
5(0.0004782908126 0.0004465554458 0.0004197070677 0.0003687323776 0.0003165761061)
5(0.0004801413489 0.0004496127318 0.0004193089819 0.000369517212 0.0003150070257)
5(0.0004840408223 0.0004532594264 0.0004209483062 0.0003716040478 0.0003156627251)
5(0.0004877724361 0.0004569990377 0.0004239383403 0.0003741164016 0.0003181439904)
5(0.0004926649903 0.0004601201057 0.0004276431112 0.0003764170599 0.0003208680562)
5(0.0004964791989 0.0004629325083 0.0004303819917 0.0003780566943 0.0003223228928)
5(0.0004993237246 0.0004651231077 0.0004320591009 0.0003794581012 0.0003229083082)
5(0.0005016033837 0.0004667270623 0.0004330702869 0.0003799759798 0.0003229554427)
5(0.0005038610843 0.0004683621344 0.0004341106539 0.0003802224817 0.0003226781781)
5(0.000505552152 0.0004695526753 0.0004349469592 0.0003802852365 0.0003221161383)
5(0.0005071317083 0.0004705112161 0.0004352920171 0.0003797944872 0.0003211649667)
5(0.0005084657186 0.0004707968125 0.0004351151428 0.0003789865755 0.0003196595758)
5(0.0005093376628 0.0004708809508 0.0004343524903 0.0003776761468 0.0003177154112)
5(0.0005098493333 0.000470441983 0.0004331075296 0.0003755337637 0.0003148990198)
5(0.0005097898341 0.0004695192382 0.000431030891 0.0003727669957 0.0003114649583)
5(0.0005092436518 0.0004678119679 0.0004283320771 0.0003689598703 0.0003072813914)
5(0.0005084237971 0.0004655556301 0.0004249705964 0.0003641033088 0.0003021453596)
5(0.000506647563 0.0004623355979 0.0004204069584 0.0003586982103 0.0002961011405)
5(0.0005043796564 0.000458315562 0.0004153995768 0.0003523580816 0.0002890058049)
5(0.0005011375977 0.0004529218866 0.0004087746475 0.0003448022959 0.0002807462469)
5(0.0004967743897 0.0004466660215 0.0004007417583 0.0003357331293 0.0002712102048)
5(0.0004911905136 0.0004389135523 0.000391324794 0.0003249925465 0.000260384301)
5(0.000484323488 0.0004293353798 0.0003799925729 0.0003126777978 0.0002479086523)
5(0.0004756169313 0.0004178817385 0.0003667498334 0.0002984495186 0.0002339633449)
5(0.0004649332208 0.0004042821667 0.0003511895485 0.0002823501959 0.0002183091713)
5(0.0004519558504 0.0003883576603 0.0003335458357 0.0002641184873 0.0002008154251)
5(0.0004364201129 0.0003697953854 0.0003133059475 0.0002437821374 0.0001817602109)
5(0.0004177859877 0.0003483428187 0.0002904597378 0.0002214182651 0.000161186063)
5(0.0003961620337 0.0003239886462 0.0002650733404 0.0001973307719 0.0001396733033)
5(0.000370706409 0.0002965555634 0.0002373629049 0.0001716427034 0.0001178109207)
5(0.0003420498253 0.0002664382002 0.0002076243455 0.0001451632816 9.603268836e-05)
5(0.0003097911435 0.0002338787693 0.0001766403714 0.0001187934432 7.47904159e-05)
5(0.0002743293092 0.0001998387166 0.0001452809998 9.318950859e-05 5.490771322e-05)
5(0.0002364834594 0.0001650232741 0.0001146583302 6.954585271e-05 3.737613133e-05)
5(0.0001974833735 0.0001312771639 8.626479978e-05 4.864413665e-05 2.329782276e-05)
5(0.000158669758 9.943135178e-05 6.130680406e-05 3.135285148e-05 1.317055369e-05)
5(0.0001215251685 7.105578766e-05 4.07021937e-05 1.835188319e-05 6.606913381e-06)
5(8.80805715e-05 4.749190295e-05 2.482267401e-05 9.520489973e-06 2.878886534e-06)
5(5.957630221e-05 2.93312058e-05 1.364515673e-05 4.306063679e-06 1.050660023e-06)
5(3.725639806e-05 1.638557712e-05 6.50369236e-06 1.659466115e-06 3.087849192e-07)
5(2.100878187e-05 8.102297759e-06 2.622525464e-06 5.245787441e-07 7.02801571e-08)
5(1.059897085e-05 3.442919209e-06 8.625111784e-07 1.303780738e-07 1.191295561e-08)
5(4.493808417e-06 1.187351099e-06 2.280800936e-07 2.335395913e-08 1.505443216e-09)
5(1.603741576e-06 3.207332411e-07 4.314723215e-08 3.110158288e-09 1.222458617e-10)
5(4.248022083e-07 6.386548986e-08 5.941870183e-09 2.812390869e-10 6.462315464e-12)
5(8.95557395e-08 8.982959484e-09 5.786148575e-10 1.677071399e-11 2.004770701e-13)
5(1.112172046e-08 7.349050353e-10 2.912679329e-11 6.067183553e-13 3.386091728e-15)
5(8.191306814e-10 3.795200468e-11 8.033069777e-13 2.188417898e-14 2.698460692e-17)
5(2.373852311e-11 6.281446169e-13 1.246369268e-14 9.055767248e-16 1.651948853e-19)
5(2.954054844e-13 3.722813483e-15 1.924927609e-16 2.283328527e-17 2.81360475e-22)
5(1.064054605e-15 3.505620434e-17 3.758515697e-18 2.800295627e-19 1.174960327e-25)
5(3.243378208e-19 -6.36855469e-19 -1.619030341e-18 -2.038353564e-20 2.071585047e-29)
5(4.271654242e-26 1.393977595e-27 0 1.059542108e-32 2.850619876e-35)
)


60
(
5(0.0006543622875 0.0005507612202 0.0006486188501 0.0005631606957 0.0005675491456)
5(0.0006286462976 0.0005814731564 0.0005849037012 0.0005320888547 0.0004859758551)
5(0.0006205278226 0.0006005686524 0.0005645207776 0.000524161522 0.0004531069269)
5(0.0006273623167 0.0006144047659 0.0005720064627 0.0005308592783 0.0004543664637)
5(0.0006470334106 0.0006281984583 0.0005933914991 0.0005449448054 0.0004739715752)
5(0.0006691153569 0.0006413813364 0.0006131072343 0.0005582299961 0.0004944764179)
5(0.0006835975417 0.0006510561077 0.0006237858134 0.0005665770225 0.0005044696734)
5(0.0006915150539 0.0006588611206 0.0006286015286 0.0005713341014 0.0005071790525)
5(0.0006975900102 0.0006655129778 0.0006316199592 0.0005749567386 0.0005080708484)
5(0.0007040690403 0.0006717332133 0.0006356250647 0.0005789552188 0.0005109603477)
5(0.0007108082399 0.0006776408919 0.0006409354225 0.0005832516784 0.0005147696406)
5(0.0007174662345 0.0006828596824 0.0006460773366 0.0005870574725 0.0005184155402)
5(0.0007235724615 0.0006876477335 0.0006504420288 0.0005901011488 0.0005209155034)
5(0.0007284601255 0.0006916691982 0.0006535787351 0.0005923208083 0.0005222488278)
5(0.0007327056414 0.0006950398166 0.0006561076484 0.0005937598749 0.0005227882709)
5(0.0007362270628 0.0006978796404 0.0006579397591 0.0005946806242 0.0005228004369)
5(0.0007397495061 0.0007000763224 0.0006595092107 0.0005950662145 0.0005222975434)
5(0.0007426071737 0.0007018303106 0.0006602318484 0.0005948213634 0.0005210503739)
5(0.0007449382807 0.0007029921535 0.0006605088782 0.0005938128215 0.0005191161658)
5(0.0007467071158 0.0007034594526 0.0006597361359 0.0005921056635 0.0005163028157)
5(0.0007476184939 0.0007033226047 0.0006582489329 0.0005893729572 0.0005125808626)
5(0.000748283501 0.0007023712121 0.0006556448514 0.0005854170786 0.0005076781419)
5(0.0007479296877 0.000700449704 0.000652292154 0.0005805192891 0.0005017795278)
5(0.0007468365723 0.000697516994 0.0006477176781 0.0005742426852 0.0004946308274)
5(0.0007446788735 0.0006933972639 0.0006419075851 0.0005667776509 0.0004861494393)
5(0.0007416710444 0.0006880280134 0.0006345915972 0.0005579456121 0.0004761583635)
5(0.0007373168396 0.000681007222 0.000625554204 0.0005474252398 0.0004646113742)
5(0.0007313073152 0.0006726726107 0.0006149750773 0.0005351705649 0.0004512879883)
5(0.0007241170311 0.0006621038288 0.0006020637604 0.000520508476 0.000435949558)
5(0.0007146567362 0.0006494340781 0.0005869320964 0.0005037603244 0.0004183943562)
5(0.0007032043259 0.000634528635 0.0005692589495 0.0004843886369 0.0003987742983)
5(0.0006890980446 0.0006165457367 0.0005485560475 0.0004622716529 0.0003764954753)
5(0.0006720288875 0.0005953928423 0.00052491252 0.0004372763764 0.0003517396556)
5(0.0006516048574 0.0005711802388 0.000497745572 0.0004093407065 0.0003241665015)
5(0.0006274074568 0.0005428936031 0.0004668072778 0.0003782585305 0.0002942877101)
5(0.0005986026276 0.0005106806056 0.0004325233701 0.0003441092976 0.0002622142152)
5(0.0005655375553 0.0004742784303 0.000394479976 0.0003072741668 0.0002285883398)
5(0.0005282713099 0.0004337887311 0.0003532084334 0.0002683747162 0.0001941445876)
5(0.0004856196384 0.0003894045092 0.0003093768428 0.0002282224426 0.0001594379058)
5(0.0004386355403 0.0003418748572 0.0002635358204 0.0001878799238 0.0001252134642)
5(0.0003876852577 0.0002926034332 0.0002174124459 0.0001487580782 9.336763637e-05)
5(0.0003337000337 0.0002424715134 0.0001727000665 0.000112324857 6.531653307e-05)
5(0.0002786304424 0.0001934312713 0.0001311114161 7.997258138e-05 4.265207258e-05)
5(0.0002240996407 0.0001474936442 9.423509202e-05 5.284862236e-05 2.565791519e-05)
5(0.0001724298442 0.0001065498834 6.334800842e-05 3.212955829e-05 1.396363159e-05)
5(0.0001255627868 7.214807058e-05 3.932667749e-05 1.771046709e-05 6.714680901e-06)
5(8.593782261e-05 4.527995871e-05 2.199152715e-05 8.64440301e-06 2.814691706e-06)
5(5.437151504e-05 2.581895468e-05 1.091427655e-05 3.670108369e-06 9.781822225e-07)
5(3.130971808e-05 1.31035645e-05 4.651175645e-06 1.335196159e-06 2.782421742e-07)
5(1.6012188e-05 5.715572878e-06 1.670688736e-06 3.832534463e-07 6.123825304e-08)
5(7.067088696e-06 2.06225905e-06 4.828147278e-07 8.900297771e-08 9.755925276e-09)
5(2.523800883e-06 5.848514547e-07 1.046600835e-07 1.472455908e-08 1.206745593e-09)
5(6.917780539e-07 1.237147631e-07 1.661325503e-08 1.744855576e-09 9.318289571e-11)
5(1.313656813e-07 1.825503972e-08 1.643274728e-09 1.192984432e-10 4.018492806e-12)
5(1.718123545e-08 1.702556563e-09 1.042408249e-10 5.855513608e-12 1.173685355e-13)
5(1.210170112e-09 9.063517485e-11 3.282294411e-12 1.730611792e-13 1.208259059e-15)
5(4.472740915e-11 1.926212243e-12 6.293828906e-14 3.412344321e-15 4.640307879e-18)
5(3.984027447e-13 2.240913023e-14 6.195495906e-16 5.292679035e-17 1.120954995e-20)
5(9.617251321e-16 -1.148950366e-14 -1.489844838e-14 -5.773558854e-17 1.423345529e-24)
5(4.010199965e-19 4.747822235e-24 0 1.419001147e-31 9.336500307e-31)
)


60
(
5(0.0007770252533 0.0006863721564 0.0007830584603 0.0007087340795 0.0007038179839)
5(0.0007776116156 0.000736773921 0.0007396655271 0.0006907738785 0.0006379792207)
5(0.0007837359031 0.0007664455674 0.0007320191363 0.0006912866179 0.000615092328)
5(0.000797810944 0.0007859369427 0.0007463321406 0.0007031573376 0.000621817836)
5(0.0008211643909 0.0008037401967 0.0007706189713 0.0007204330356 0.0006438817117)
5(0.0008461393054 0.0008204913354 0.0007925446409 0.0007365365134 0.0006663549687)
5(0.0008636948244 0.0008336225652 0.0008060904241 0.0007473243479 0.0006786047002)
5(0.000875030495 0.0008444099532 0.0008138825152 0.000754582126 0.00068373829)
5(0.0008839924176 0.0008536659931 0.000819574842 0.0007604866303 0.0006868542679)
5(0.0008931607734 0.0008624468648 0.0008259790084 0.000766493665 0.0006913760188)
5(0.0009024760022 0.0008704378929 0.0008330265178 0.000772327212 0.0006965439475)
5(0.0009111921009 0.0008777896851 0.0008398059844 0.0007775254134 0.000701359924)
5(0.0009189318006 0.0008841547425 0.0008455472364 0.0007818093103 0.0007047984659)
5(0.0009257277341 0.0008897045391 0.0008500399558 0.0007851044046 0.0007068390607)
5(0.0009316769285 0.0008944170526 0.0008536454973 0.0007874074515 0.0007080413276)
5(0.0009368605049 0.0008985171873 0.0008566113178 0.0007889370845 0.0007084132822)
5(0.0009413350023 0.0009018856557 0.000858827216 0.0007898059125 0.0007080723506)
5(0.0009454826147 0.0009044296747 0.0008601107615 0.0007896020408 0.0007068476427)
5(0.0009486068679 0.0009063346547 0.0008606624177 0.0007887616767 0.0007045740584)
5(0.0009512442105 0.0009072945172 0.0008600026946 0.000786746024 0.0007012946197)
5(0.0009529680637 0.0009072757898 0.0008585474882 0.0007837929269 0.000696811993)
5(0.0009536458443 0.0009065425819 0.0008558034006 0.0007792576107 0.0006910094451)
5(0.000953542564 0.000904467397 0.0008518664744 0.0007735288822 0.0006840106447)
5(0.0009527566536 0.0009011309209 0.0008463648362 0.0007662937488 0.0006754504902)
5(0.0009504998709 0.0008963782987 0.0008397311744 0.000757490628 0.0006653822197)
5(0.0009469753764 0.0008903680294 0.0008312624209 0.0007470513276 0.0006534303608)
5(0.0009420141397 0.0008825057819 0.0008208661295 0.0007346900586 0.0006395189957)
5(0.0009353561175 0.0008727156142 0.0008083189788 0.0007201001475 0.0006235283353)
5(0.0009268178166 0.0008607006531 0.0007933619401 0.0007029011496 0.0006051324975)
5(0.0009160801662 0.0008461836885 0.0007756965409 0.0006831395031 0.0005841711388)
5(0.0009028065546 0.0008288513787 0.0007550430453 0.0006603140801 0.0005602977587)
5(0.0008866042237 0.0008083166093 0.0007308374264 0.0006342649095 0.0005334157807)
5(0.0008670902145 0.0007842473484 0.0007034069207 0.0006046109892 0.0005032373704)
5(0.0008438060941 0.0007561768649 0.0006717057188 0.0005713743418 0.0004697044458)
5(0.0008162707565 0.0007237143691 0.000635635904 0.0005341035767 0.000432549628)
5(0.0007841128636 0.000686546034 0.0005951539156 0.0004928135771 0.0003926163448)
5(0.0007468034105 0.0006444887244 0.0005499157951 0.0004478256504 0.0003498509038)
5(0.0007038540163 0.000597260417 0.000500611427 0.0003994255042 0.0003050333486)
5(0.000655380357 0.0005452154428 0.0004471273892 0.0003484092531 0.0002587405586)
5(0.0006013557099 0.0004887601082 0.000390346539 0.0002959958971 0.0002120503267)
5(0.0005419268229 0.0004284397786 0.0003319099459 0.0002435837951 0.0001665433465)
5(0.000478508762 0.0003659168586 0.0002733513389 0.0001926595059 0.0001244293678)
5(0.00041183791 0.0003029944326 0.0002167005799 0.0001452975435 8.819425784e-05)
5(0.0003442556887 0.0002418227505 0.0001643520847 0.0001034576845 5.849749395e-05)
5(0.0002775056556 0.0001846132078 0.0001181664347 6.885227465e-05 3.579291389e-05)
5(0.0002147308226 0.0001338412846 7.939473878e-05 4.24089151e-05 1.987315822e-05)
5(0.0001580532042 9.15640949e-05 4.911090331e-05 2.386481837e-05 9.882249974e-06)
5(0.0001096175216 5.776226741e-05 2.773790431e-05 1.1929615e-05 4.263322464e-06)
5(7.05747497e-05 3.309681447e-05 1.384696408e-05 5.216346564e-06 1.585058269e-06)
5(4.165294055e-05 1.689164907e-05 5.884448619e-06 1.906450535e-06 4.812814797e-07)
5(2.19790101e-05 7.433114219e-06 2.130482369e-06 5.877005325e-07 1.147564949e-07)
5(1.000192227e-05 2.651123385e-06 6.205410992e-07 1.358296532e-07 1.965049398e-08)
5(3.649781546e-06 7.583680785e-07 1.363637256e-07 2.382031018e-08 2.588125775e-09)
5(1.03272963e-06 1.594918209e-07 2.05200962e-08 2.913743517e-09 2.161714851e-10)
5(2.145067662e-07 2.245962722e-08 1.911520399e-09 2.130396038e-10 1.001600302e-11)
5(2.52506649e-08 1.829490306e-09 1.089494852e-10 8.896202358e-12 3.034701766e-13)
5(1.154212978e-09 1.082674272e-10 2.98639812e-12 2.342994534e-13 2.644196558e-15)
5(5.810160396e-11 2.820015464e-12 5.885321586e-14 4.148278732e-15 1.239674829e-17)
5(4.505761815e-13 8.874353999e-14 1.223069013e-13 -6.218887576e-15 9.461505109e-21)
5(1.107067548e-14 1.564579202e-10 3.342178597e-10 1.070602857e-12 1.541939623e-29)
)


60
(
5(0.0008908910491 0.0008112405539 0.0009101704256 0.0008469099524 0.0008356321509)
5(0.0009137026444 0.0008794872948 0.0008840251963 0.0008403230932 0.0007836375372)
5(0.0009319073949 0.0009187881967 0.0008871525933 0.0008483690734 0.0007695058675)
5(0.0009520502154 0.0009433377715 0.0009075041617 0.0008649831326 0.000781173376)
5(0.0009792024494 0.0009649170997 0.0009350141945 0.0008854239628 0.0008060012204)
5(0.001007241517 0.0009852729209 0.0009593035266 0.0009041708778 0.0008306179903)
5(0.001027668181 0.001001351484 0.0009755429859 0.0009174587164 0.000845104904)
5(0.001041972312 0.001014938359 0.0009860456127 0.0009271830323 0.0008525263613)
5(0.001053892684 0.001026862312 0.0009942139306 0.0009351301099 0.0008576837649)
5(0.001065541445 0.001037667499 0.001002720524 0.0009429655018 0.0008638491515)
5(0.001077014081 0.001047879046 0.00101159989 0.0009503768654 0.0008704036305)
5(0.001087679782 0.001056923496 0.00101994634 0.0009570722898 0.0008763393611)
5(0.001097329295 0.001064919684 0.001027158667 0.0009624503735 0.0008807412662)
5(0.001105442876 0.00107204788 0.001032848922 0.0009667724374 0.0008836972402)
5(0.001112996814 0.001078130631 0.001037562957 0.0009699596228 0.0008854437046)
5(0.001119648475 0.001083435011 0.001041260443 0.0009722357738 0.0008862942615)
5(0.001125386577 0.001087718447 0.001044326278 0.0009735306189 0.0008862398165)
5(0.001130444283 0.001091184079 0.00104636492 0.0009736843741 0.000885143937)
5(0.00113465243 0.001093741734 0.001047212821 0.0009731143995 0.0008828609876)
5(0.00113792319 0.001095232644 0.001046967762 0.0009711614326 0.000879333683)
5(0.001140279147 0.001095721239 0.001045553839 0.0009679086488 0.00087448889)
5(0.001141699363 0.001095105622 0.001042752419 0.0009632615748 0.0008681421728)
5(0.001141950814 0.001093111926 0.001038563303 0.0009569401435 0.0008603797263)
5(0.001140994437 0.001089753424 0.001032898754 0.0009490184207 0.0008507934298)
5(0.001138837659 0.001084870044 0.001025576569 0.00093943074 0.0008395797527)
5(0.001135228598 0.001078104604 0.001016303879 0.0009279915374 0.0008262943382)
5(0.001130058443 0.001069994951 0.001004953391 0.0009143608828 0.0008108405913)
5(0.001122935 0.001059434245 0.0009913267285 0.0008983136794 0.0007930117968)
5(0.001113733369 0.00104649163 0.000975077653 0.0008794889393 0.0007724429209)
5(0.00110224789 0.001030892846 0.0009558573176 0.000857666395 0.0007490013505)
5(0.001088034635 0.001012290158 0.000933321362 0.0008325909916 0.0007223354432)
5(0.001070783715 0.000990362123 0.0009072583588 0.000803821202 0.0006919920477)
5(0.001050110705 0.0009646145671 0.0008771455604 0.0007711335092 0.0006581580669)
5(0.001025465745 0.0009344598698 0.0008425481908 0.0007342114144 0.0006201035757)
5(0.0009962934199 0.000899678546 0.000803293204 0.0006927934244 0.0005779455715)
5(0.000962170451 0.0008597447664 0.0007589153318 0.0006466904154 0.0005318571581)
5(0.0009226849793 0.0008144523526 0.0007090924086 0.0005958713547 0.0004820400062)
5(0.0008775057496 0.0007634054628 0.0006540143718 0.0005404549543 0.0004289319914)
5(0.0008260424432 0.0007064285025 0.0005937951828 0.00048119927 0.0003729999997)
5(0.0007683784859 0.0006441138346 0.0005293032711 0.0004191137895 0.0003152351843)
5(0.000704600477 0.0005767613735 0.0004612593571 0.0003552457939 0.0002571316426)
5(0.0006353948655 0.0005057064988 0.0003914803763 0.0002915163136 0.0002017070008)
5(0.000561684911 0.0004323367328 0.0003220206388 0.0002299733861 0.0001510374948)
5(0.0004853307241 0.0003585177702 0.0002553084433 0.000172975859 0.0001072111206)
5(0.0004079478855 0.0002872366811 0.0001934213387 0.0001231998143 7.158738275e-05)
5(0.0003318324654 0.0002207338508 0.0001387537983 8.22199527e-05 4.433180855e-05)
5(0.0002600525719 0.0001615060276 9.309790635e-05 5.114083571e-05 2.499345515e-05)
5(0.0001945443728 0.0001114053915 5.767078307e-05 2.882711164e-05 1.260119536e-05)
5(0.0001380524963 7.134502306e-05 3.248195285e-05 1.453391727e-05 5.54152227e-06)
5(9.184196819e-05 4.178037005e-05 1.628501613e-05 6.458800143e-06 2.065038653e-06)
5(5.625247689e-05 2.179553683e-05 7.057810108e-06 2.41609296e-06 6.419928239e-07)
5(3.121480062e-05 9.65617261e-06 2.543741408e-06 7.452260186e-07 1.63526218e-07)
5(1.523717264e-05 3.674176113e-06 7.359795963e-07 1.723539486e-07 2.747513496e-08)
5(6.144126726e-06 1.120228589e-06 1.564798416e-07 2.913167949e-08 3.88667214e-09)
5(1.85398642e-06 2.401390405e-07 2.323072084e-08 3.151282432e-09 3.067159207e-10)
5(4.836216868e-07 3.54962167e-08 2.086532878e-09 2.145877969e-10 9.894496319e-12)
5(7.080960299e-08 3.024324963e-09 9.140020645e-11 9.125730489e-12 2.9132615e-13)
5(5.043896766e-09 1.681176969e-10 3.230743201e-12 1.785957875e-13 1.799271293e-15)
5(2.680664745e-10 3.932050038e-12 9.021287579e-14 1.458962088e-15 3.921383008e-18)
5(3.66633458e-10 5.905697389e-13 0 2.940552619e-20 4.884384737e-24)
)


60
(
5(0.000998477757 0.0009288464435 0.001031901617 0.0009797415656 0.0009641172201)
5(0.001041066398 0.001013673401 0.001021175979 0.0009836359358 0.0009248681944)
5(0.00107013427 0.001061884981 0.001033999724 0.0009986149517 0.000918852835)
5(0.001095802622 0.001091367625 0.001060045034 0.001019763202 0.0009351680612)
5(0.001126509493 0.001116591964 0.001090768241 0.001043318434 0.000962779867)
5(0.001157509886 0.001140208848 0.001117500466 0.001064640536 0.0009896362107)
5(0.001180905262 0.001159178134 0.001136265386 0.001080405241 0.001006350053)
5(0.001197967071 0.001175493919 0.00114942658 0.001092364558 0.001015962959)
5(0.001212538401 0.001189715194 0.001159830904 0.001102391541 0.001023085451)
5(0.001226529924 0.001202861578 0.001170437471 0.001111966696 0.001030898595)
5(0.001239984783 0.001214790247 0.001180940044 0.001120944271 0.001038792536)
5(0.001252596584 0.001225695616 0.001190896687 0.001128936256 0.001045902176)
5(0.001263835617 0.001235289208 0.001199388886 0.001135551778 0.001051286428)
5(0.001273842285 0.001243759816 0.001206389375 0.001140878923 0.001055126962)
5(0.001282557491 0.001251156348 0.001212131004 0.001144978225 0.001057580282)
5(0.001290429717 0.001257500839 0.00121687573 0.00114801287 0.001059025935)
5(0.001297423256 0.001262924348 0.001220650016 0.001149858737 0.001059314618)
5(0.001303415541 0.001267173249 0.001223230869 0.001150657283 0.001058481841)
5(0.00130860358 0.001270458232 0.001224695455 0.001150189345 0.001056277102)
5(0.001312617967 0.001272589993 0.001224796882 0.001148464299 0.001052739819)
5(0.001315613474 0.001273516434 0.001223584351 0.001145307555 0.001047711658)
5(0.001317624621 0.001273230574 0.001221003485 0.001140474394 0.001041095652)
5(0.001318200669 0.001271527902 0.001216764488 0.00113398278 0.001032847533)
5(0.001317607817 0.00126826578 0.001210946421 0.001125700808 0.001022747742)
5(0.001315694575 0.001263412887 0.001203363943 0.001115591327 0.001010628198)
5(0.001312132017 0.001256802446 0.001193704012 0.001103541548 0.0009965036028)
5(0.001306774547 0.001248166753 0.001181893576 0.001089198479 0.0009799459107)
5(0.001299623148 0.001237297532 0.001167585492 0.001072202496 0.0009607750278)
5(0.001290379125 0.001224022863 0.001150569462 0.001052323382 0.0009387396917)
5(0.00127858319 0.001207991155 0.001130400903 0.001029277211 0.0009136349292)
5(0.001263933294 0.001188725668 0.001106828976 0.001002659818 0.0008849159492)
5(0.001246239755 0.001165978559 0.0010795179 0.0009722966341 0.0008524130394)
5(0.001225074664 0.001139369733 0.001048009248 0.0009376606953 0.0008157588813)
5(0.001200012874 0.001108486 0.001011858309 0.0008984032891 0.0007744892257)
5(0.001170348185 0.001072705602 0.0009706079259 0.0008542005642 0.00072850713)
5(0.001135742227 0.001031538804 0.0009239281401 0.0008046836243 0.0006779444195)
5(0.001095873447 0.0009846876569 0.0008714444961 0.0007497112539 0.0006228672205)
5(0.001049917393 0.0009316364168 0.0008130075327 0.0006895073833 0.0005633736603)
5(0.000997812264 0.0008724854437 0.0007485855708 0.0006242351526 0.0004996365731)
5(0.0009390218214 0.0008072507287 0.0006784749137 0.0005545732326 0.0004325171815)
5(0.0008738054857 0.0007358691555 0.0006038069439 0.0004816797608 0.0003643011608)
5(0.000802322623 0.0006594857079 0.0005255926723 0.0004073710554 0.0002958923111)
5(0.0007252170734 0.0005792650542 0.0004461869644 0.0003333264356 0.0002318853533)
5(0.0006438660546 0.0004965247723 0.0003671097532 0.0002620237769 0.0001733719046)
5(0.0005595824815 0.0004142250322 0.00029132538 0.0001968538926 0.0001233828746)
5(0.0004742227515 0.000334528957 0.0002210998888 0.0001402130166 8.218969435e-05)
5(0.0003915658371 0.000260109883 0.0001591421656 9.38357356e-05 5.066737875e-05)
5(0.000310765796 0.0001931625951 0.0001074582795 5.849117095e-05 2.879827404e-05)
5(0.000237599695 0.0001357350251 6.741744668e-05 3.32310904e-05 1.458006075e-05)
5(0.0001746123885 8.942175339e-05 3.84324615e-05 1.675240051e-05 6.424341286e-06)
5(0.0001196697244 5.383470535e-05 1.95769847e-05 7.413433492e-06 2.402830441e-06)
5(7.681526046e-05 2.974034571e-05 8.644136741e-06 2.774887155e-06 7.536050342e-07)
5(4.460840705e-05 1.397573412e-05 3.260617742e-06 8.242603382e-07 1.78738624e-07)
5(2.38470203e-05 5.67953597e-06 9.492943174e-07 1.95687272e-07 3.265025329e-08)
5(1.041456431e-05 1.872546083e-06 2.012883919e-07 3.130771552e-08 3.673151176e-09)
5(4.26800127e-06 4.633675305e-07 2.598568017e-08 3.13758288e-09 2.582393156e-10)
5(1.218490949e-06 9.329114894e-08 2.956164606e-09 1.877275393e-10 6.787525947e-12)
5(2.91102736e-07 8.076667283e-09 1.497260939e-10 7.270223116e-12 1.619218066e-13)
5(5.3342835e-08 6.225518129e-10 -1.540958047e-12 9.370901885e-14 4.034920391e-16)
5(8.299046381e-08 1.008502929e-09 0 5.858583212e-16 1.422327606e-12)
)


60
(
5(0.001101176588 0.00104104558 0.001149423618 0.00110849599 0.001089862868)
5(0.001162034657 0.001141586753 0.001152947309 0.001122228623 0.001062656944)
5(0.00120102974 0.001198280403 0.001174800924 0.001143753179 0.00106431048)
5(0.001231785658 0.001232396258 0.001206201641 0.001169274425 0.001085228549)
5(0.001266011233 0.001261110718 0.001240092775 0.001195835738 0.00111558786)