/*--------------------------------*- C++ -*----------------------------------*\
| =========                 |                                                 |
| \\      /  F ield         | OpenFOAM: The Open Source CFD Toolbox           |
|  \\    /   O peration     | Version:  2.3.1                                 |
|   \\  /    A nd           | Web:      www.OpenFOAM.org                      |
|    \\/     M anipulation  |                                                 |
\*---------------------------------------------------------------------------*/
FoamFile
{
    version     2.0;
    format      ascii;
    class       dictionary;
    location    "constant";
    object      CH3O;
}
// * * * * * * * * * * * * * * * * * * * * * * * * * * * * * * * * * * * * * //

CH3O_table
60
(

60
(
5(4.753105136e-10 1.6552121e-10 5.995013122e-10 3.695100283e-10 5.698453572e-10)
5(1.810490558e-10 2.273757228e-11 2.158889439e-10 1.576876558e-10 2.229662956e-10)
5(0 4.936696722e-11 6.27202352e-11 4.654180498e-11 0)
5(0 5.913132841e-11 5.832879682e-11 0 4.864354133e-11)
5(0 5.149453907e-11 7.231563944e-11 4.216530722e-11 3.264113384e-11)
5(2.934298466e-11 4.323833538e-11 2.56338339e-11 5.135608414e-11 3.423685468e-11)
5(6.315692957e-11 3.599981903e-11 3.877319581e-11 3.125884301e-11 7.607838804e-11)
5(2.488574201e-11 3.299448371e-11 5.792651092e-11 3.591374906e-11 1.675249604e-11)
5(3.810628546e-11 3.18748682e-11 3.594890153e-11 3.235811102e-11 2.64629745e-11)
5(2.892470296e-11 3.257795347e-11 3.868071184e-11 2.349941032e-11 2.326650594e-11)
5(3.148058884e-11 2.927429063e-11 3.20585019e-11 1.982543712e-11 1.928960022e-11)
5(3.283970049e-11 1.88896134e-11 2.257238475e-11 1.477961687e-11 1.350450108e-11)
5(1.520494446e-11 1.456347331e-11 1.658366033e-11 1.192737845e-11 9.689907145e-12)
5(1.41250493e-11 1.119333489e-11 1.240611458e-11 7.124740983e-12 5.952058283e-12)
5(9.225881083e-12 8.012042127e-12 8.495331898e-12 5.69275102e-12 4.0758694e-12)
5(8.954405897e-12 1.413665613e-11 8.0779873e-12 5.749557523e-12 3.38472653e-12)
5(7.671033611e-12 1.114386547e-11 6.959241281e-12 4.047019335e-12 2.560698669e-12)
5(5.782136342e-12 8.149814385e-12 4.452375164e-12 3.026127959e-12 2.103498932e-12)
5(4.274560548e-12 5.195988357e-12 3.727500487e-12 2.517657438e-12 1.901405224e-12)
5(3.955911642e-12 3.550221128e-12 3.388338442e-12 2.408271367e-12 1.596613538e-12)
5(3.47927049e-12 3.083230373e-12 2.860149698e-12 2.105250535e-12 1.300452113e-12)
5(3.214967669e-12 2.831682836e-12 2.738174038e-12 1.635822843e-12 1.054069247e-12)
5(3.201699089e-12 2.793332197e-12 2.570436788e-12 1.774527529e-12 1.138012476e-12)
5(3.038888831e-12 2.951592166e-12 2.543312981e-12 1.788671879e-12 1.119322068e-12)
5(3.17740132e-12 3.186503596e-12 2.705357463e-12 1.996597012e-12 1.242340534e-12)
5(3.341326812e-12 3.616051939e-12 3.124865252e-12 2.380046408e-12 1.379902879e-12)
5(3.6782279e-12 3.900799609e-12 3.363081059e-12 2.848031955e-12 1.632631573e-12)
5(4.132678753e-12 4.324967554e-12 4.145244783e-12 3.49933671e-12 1.978102842e-12)
5(5.191604815e-12 5.456585998e-12 4.96441918e-12 4.273877697e-12 2.528975008e-12)
5(6.477194124e-12 7.189383068e-12 6.249008371e-12 5.15556698e-12 3.143413147e-12)
5(8.583565989e-12 9.635753761e-12 8.531262392e-12 7.09148173e-12 4.165613858e-12)
5(1.136165668e-11 1.261468837e-11 1.081276088e-11 8.492037666e-12 4.343215632e-12)
5(1.51869408e-11 1.724509345e-11 1.47777053e-11 1.11749802e-11 6.857951272e-12)
5(2.094781762e-11 2.380937396e-11 2.060046345e-11 1.404892407e-11 6.612094159e-12)
5(2.892620803e-11 3.140938697e-11 2.648788474e-11 1.76396695e-11 7.852395825e-12)
5(3.930586266e-11 4.351843908e-11 3.800047234e-11 2.192074711e-11 9.110792944e-12)
5(5.266675779e-11 5.17811859e-11 3.906762565e-11 2.270687504e-11 9.951382931e-12)
5(6.860607607e-11 6.755429165e-11 4.641359714e-11 2.626820393e-11 4.766819514e-12)
5(8.823977466e-11 7.946093955e-11 5.540366651e-11 2.489477677e-11 8.669742673e-12)
5(1.128596808e-10 9.162771899e-11 6.374519701e-11 2.432104941e-11 4.171595119e-14)
5(1.306996822e-10 9.244167123e-11 5.386993161e-11 1.901037131e-11 6.941805191e-14)
5(1.39499486e-10 9.053234314e-11 4.534184391e-11 1.194773221e-11 2.359225745e-25)
5(1.430268393e-10 7.52165597e-11 3.134090622e-11 2.060444069e-25 6.155818052e-25)
5(1.378268122e-10 6.547374411e-11 3.709467151e-11 5.416228753e-25 2.586287207e-13)
5(1.216562346e-10 4.469170422e-11 2.003550763e-11 1.297967768e-24 2.284870362e-14)
5(8.912241606e-11 3.008734549e-11 5.790096733e-12 3.265460102e-24 9.299032044e-24)
5(5.848767681e-11 1.435520574e-11 1.563780522e-12 5.652313423e-14 2.171367075e-23)
5(3.999265615e-11 2.328968609e-12 3.298479215e-13 1.779316885e-23 4.987088285e-23)
5(1.623177091e-11 1.009715232e-12 3.51101813e-14 3.965790441e-23 1.112766155e-22)
5(6.219301531e-12 1.935719887e-14 2.462893572e-23 8.600971771e-23 2.397760623e-22)
5(2.27132012e-12 1.583825091e-23 5.322791806e-23 1.838451948e-22 5.056240214e-22)
5(4.386713837e-13 3.386848356e-23 1.12577171e-22 3.811250198e-22 1.038142413e-21)
5(4.222200646e-15 7.081416443e-23 2.321203704e-22 7.716859063e-22 2.077653854e-21)
5(3.66608688e-23 1.433727047e-22 4.697074041e-22 1.522004659e-21 4.090699876e-21)
5(7.4669454e-23 2.846207605e-22 9.277459403e-22 2.951347372e-21 7.841051982e-21)
5(3.040962174e-22 5.537500662e-22 1.797057858e-21 5.558514386e-21 1.467538835e-20)
5(9.443517908e-22 1.065224199e-21 3.422594129e-21 1.025724397e-20 2.643655808e-20)
5(1.589219254e-21 2.832201394e-21 6.461632467e-21 1.844281013e-20 4.617703531e-20)
5(2.192231077e-21 5.541536807e-21 1.442353277e-20 2.484596818e-20 7.827659319e-20)
5(2.890919145e-21 9.712634817e-21 3.050490566e-20 9.657595848e-20 2.090065845e-19)
)


60
(
5(1.200757823e-09 6.982933373e-10 1.315599855e-09 9.286252606e-10 9.230047967e-10)
5(8.647748186e-10 7.22500076e-10 8.834843255e-10 7.634171266e-10 6.927925874e-10)
5(7.305298029e-10 7.417882955e-10 7.289256049e-10 6.983455875e-10 5.82995542e-10)
5(7.14297429e-10 7.618960318e-10 7.176640944e-10 6.897820052e-10 5.624446736e-10)
5(7.724786362e-10 7.830595431e-10 7.725891904e-10 7.028937821e-10 5.834693891e-10)
5(8.291551091e-10 7.895446452e-10 8.110937248e-10 7.049274472e-10 5.954828226e-10)
5(8.371094464e-10 7.66885202e-10 7.990882062e-10 6.753141682e-10 5.71792349e-10)
5(7.99623055e-10 7.209795092e-10 7.435595223e-10 6.207691509e-10 5.21844374e-10)
5(7.35507616e-10 6.558766278e-10 6.659902996e-10 5.496825299e-10 4.581501605e-10)
5(6.498048902e-10 5.715480355e-10 5.783411144e-10 4.679659432e-10 3.880437457e-10)
5(5.633902089e-10 4.745488725e-10 4.823475884e-10 3.799333442e-10 3.145128133e-10)
5(4.602592772e-10 3.765476455e-10 3.827621597e-10 2.93275536e-10 2.41963073e-10)
5(3.629830137e-10 2.864599004e-10 2.894866214e-10 2.158678269e-10 1.771247388e-10)
5(2.758469292e-10 2.12900486e-10 2.113851312e-10 1.546979395e-10 1.25733344e-10)
5(2.071976069e-10 1.577489509e-10 1.52972541e-10 1.107976554e-10 8.897063346e-11)
5(1.56609649e-10 1.190094737e-10 1.124793542e-10 8.123457582e-11 6.443099922e-11)
5(1.216779941e-10 9.244427528e-11 8.51065884e-11 6.172591224e-11 4.842845234e-11)
5(9.735881373e-11 7.40701747e-11 6.683710176e-11 4.881230387e-11 3.810080308e-11)
5(7.992805659e-11 6.121744897e-11 5.435755718e-11 4.006906027e-11 3.113644285e-11)
5(6.734960819e-11 5.199444953e-11 4.565917692e-11 3.407245307e-11 2.645930622e-11)
5(5.797519435e-11 4.530388364e-11 3.955458224e-11 3.000893738e-11 2.340516608e-11)
5(5.113450807e-11 4.055484923e-11 3.540809801e-11 2.739829198e-11 2.157044825e-11)
5(4.626486085e-11 3.744688392e-11 3.283165377e-11 2.604230204e-11 2.072868018e-11)
5(4.273639717e-11 3.575849011e-11 3.167998928e-11 2.590294863e-11 2.089268324e-11)
5(4.08448615e-11 3.545653722e-11 3.189154735e-11 2.697266288e-11 2.211822089e-11)
5(4.040284273e-11 3.66797631e-11 3.362308662e-11 2.951586416e-11 2.462606083e-11)
5(4.160083667e-11 3.96698587e-11 3.723435387e-11 3.388490024e-11 2.875013409e-11)
5(4.479244804e-11 4.493698322e-11 4.322789539e-11 4.063010237e-11 3.494525445e-11)
5(5.047844302e-11 5.319555241e-11 5.239890656e-11 5.055604986e-11 4.400275279e-11)
5(5.937667232e-11 6.544626328e-11 6.58277909e-11 6.475391855e-11 5.683840246e-11)
5(7.285295062e-11 8.310193169e-11 8.506170603e-11 8.464681789e-11 7.447873624e-11)
5(9.232950533e-11 1.080772992e-10 1.117459494e-10 1.117853733e-10 9.824883409e-11)
5(1.198954046e-10 1.423910821e-10 1.482740107e-10 1.479916849e-10 1.295776324e-10)
5(1.581990527e-10 1.889664835e-10 1.969762505e-10 1.950101709e-10 1.686067302e-10)
5(2.105383824e-10 2.507749144e-10 2.603817687e-10 2.536827889e-10 2.160147063e-10)
5(2.802502697e-10 3.298915682e-10 3.39674626e-10 3.240439055e-10 2.702752131e-10)
5(3.707227125e-10 4.280132562e-10 4.347519646e-10 4.036087579e-10 3.286435959e-10)
5(4.832678986e-10 5.445392556e-10 5.423955424e-10 4.877055762e-10 3.856770557e-10)
5(6.179447355e-10 6.738745864e-10 6.552614016e-10 5.675803116e-10 4.309228969e-10)
5(7.698066111e-10 8.092135641e-10 7.617676166e-10 6.309865049e-10 4.516397086e-10)
5(9.284358633e-10 9.327523456e-10 8.446734863e-10 6.645188359e-10 4.385309439e-10)
5(1.075017531e-09 1.029897919e-09 8.905745097e-10 6.546710629e-10 3.906681243e-10)
5(1.190558273e-09 1.076021922e-09 8.828298618e-10 5.945153213e-10 3.173185283e-10)
5(1.249139911e-09 1.054051596e-09 8.157071051e-10 4.909150139e-10 2.329725673e-10)
5(1.228604579e-09 9.639397555e-10 6.917034417e-10 3.635579282e-10 1.518461225e-10)
5(1.122011353e-09 8.113594148e-10 5.292994379e-10 2.387396715e-10 8.606022051e-11)
5(9.417269668e-10 6.201670871e-10 3.56563283e-10 1.374683822e-10 4.167087315e-11)
5(7.127896022e-10 4.216831809e-10 2.078752888e-10 6.812547003e-11 1.712120792e-11)
5(4.806075871e-10 2.493369208e-10 1.026655583e-10 2.853017757e-11 6.012247732e-12)
5(2.781695028e-10 1.235217908e-10 4.264323151e-11 9.888889916e-12 1.869017529e-12)
5(1.360792275e-10 4.990617777e-11 1.423698375e-11 2.957596637e-12 5.147853009e-13)
5(5.202685989e-11 1.603072099e-11 3.922004064e-12 7.668430421e-13 1.282684134e-13)
5(1.605111309e-11 4.047954485e-12 9.084655151e-13 1.739240658e-13 2.846483671e-14)
5(3.355166167e-12 7.483226281e-13 1.639256237e-13 3.367491432e-14 5.641118088e-15)
5(4.850672349e-13 1.127130757e-13 2.413300453e-14 5.314758531e-15 8.997766242e-16)
5(4.169213192e-14 1.035832037e-14 2.726402726e-15 6.20317726e-16 1.152734652e-16)
5(2.407193829e-15 7.762605245e-16 1.619340415e-16 4.916866183e-17 8.70234234e-18)
5(6.919027527e-17 3.983895319e-17 5.58379528e-18 2.855917879e-16 6.177129999e-19)
5(3.605358942e-19 -5.80596392e-16 3.362164584e-18 -4.28345718e-16 4.334214398e-19)
5(4.294935312e-20 8.712955148e-20 3.42023157e-14 3.175167592e-19 5.958443649e-19)
)


60
(
5(2.366437202e-09 1.512899002e-09 2.304786514e-09 1.587585586e-09 1.248787213e-09)
5(2.098954987e-09 1.734266688e-09 1.829109592e-09 1.442098051e-09 1.062296817e-09)
5(1.998355907e-09 1.873494077e-09 1.680854682e-09 1.394348219e-09 9.818980269e-10)
5(2.049566402e-09 1.958850517e-09 1.708658255e-09 1.398706165e-09 9.69281387e-10)
5(2.190386716e-09 2.023559583e-09 1.80381068e-09 1.417391616e-09 9.847985474e-10)
5(2.339168195e-09 2.055559902e-09 1.865956407e-09 1.412744812e-09 9.889034313e-10)
5(2.376147739e-09 2.024657412e-09 1.837695283e-09 1.362111354e-09 9.551016348e-10)
5(2.302466989e-09 1.932114121e-09 1.735568689e-09 1.271744136e-09 8.898319747e-10)
5(2.146235119e-09 1.783238586e-09 1.583809509e-09 1.150227629e-09 8.04429134e-10)
5(1.950214869e-09 1.587947255e-09 1.403881966e-09 1.005294249e-09 7.041015185e-10)
5(1.717161809e-09 1.355330537e-09 1.196917858e-09 8.436983759e-10 5.941772875e-10)
5(1.441859111e-09 1.107324325e-09 9.776717903e-10 6.768972448e-10 4.801255103e-10)
5(1.157672135e-09 8.658636086e-10 7.637042209e-10 5.205348668e-10 3.714528839e-10)
5(8.993360511e-10 6.551799908e-10 5.745562451e-10 3.87466229e-10 2.780727534e-10)
5(6.790977926e-10 4.889168496e-10 4.228634753e-10 2.848501474e-10 2.04534308e-10)
5(5.134271848e-10 3.66410122e-10 3.121225141e-10 2.10728939e-10 1.519600307e-10)
5(3.931716295e-10 2.80776135e-10 2.350270894e-10 1.596331395e-10 1.15548167e-10)
5(3.088272111e-10 2.210007444e-10 1.825715692e-10 1.250339576e-10 9.113427745e-11)
5(2.494344712e-10 1.790198486e-10 1.462324681e-10 1.014820136e-10 7.445286472e-11)
5(2.06148436e-10 1.489324535e-10 1.208596693e-10 8.513419792e-11 6.299582908e-11)
5(1.752630546e-10 1.269745913e-10 1.028791573e-10 7.376535207e-11 5.514791661e-11)
5(1.504441259e-10 1.108477456e-10 9.016601266e-11 6.59901033e-11 5.013800479e-11)
5(1.328673778e-10 9.92717989e-11 8.129660647e-11 6.098854421e-11 4.726101418e-11)
5(1.191261571e-10 9.131772226e-11 7.570741551e-11 5.851852301e-11 4.631526382e-11)
5(1.099991062e-10 8.655719036e-11 7.307131325e-11 5.845765453e-11 4.738633221e-11)
5(1.03810704e-10 8.48768752e-11 7.340192009e-11 6.107041339e-11 5.077503727e-11)
5(1.012282162e-10 8.643293624e-11 7.6945889e-11 6.662856283e-11 5.688596988e-11)
5(1.024756396e-10 9.162789877e-11 8.421519199e-11 7.610700004e-11 6.663582821e-11)
5(1.073014217e-10 1.015182621e-10 9.655633934e-11 9.067092133e-11 8.126812296e-11)
5(1.17600417e-10 1.173347283e-10 1.155184789e-10 1.121190111e-10 1.025858375e-10)
5(1.341929343e-10 1.410784064e-10 1.431620323e-10 1.426737689e-10 1.318833435e-10)
5(1.595258761e-10 1.755271585e-10 1.824411791e-10 1.851704576e-10 1.725400858e-10)
5(1.963840252e-10 2.237608444e-10 2.370631899e-10 2.429381315e-10 2.262933261e-10)
5(2.485379061e-10 2.899878419e-10 3.109859587e-10 3.187287873e-10 2.964837702e-10)
5(3.201289962e-10 3.78783797e-10 4.08312297e-10 4.160606036e-10 3.831982156e-10)
5(4.169266808e-10 4.947137342e-10 5.325702024e-10 5.365714054e-10 4.877783281e-10)
5(5.446900444e-10 6.409756206e-10 6.855657488e-10 6.790689738e-10 6.071829194e-10)
5(7.028538835e-10 8.192137991e-10 8.650175848e-10 8.38425279e-10 7.330478979e-10)
5(8.992752006e-10 1.026561641e-09 1.063148787e-09 1.003664559e-09 8.512652829e-10)
5(1.12528722e-09 1.25202052e-09 1.266514154e-09 1.157502112e-09 9.428304726e-10)
5(1.371132488e-09 1.478618924e-09 1.452958637e-09 1.276745449e-09 9.842962039e-10)
5(1.619895843e-09 1.681487318e-09 1.593471956e-09 1.335135337e-09 9.640185767e-10)
5(1.839030787e-09 1.826474265e-09 1.659793461e-09 1.309789842e-09 8.796527157e-10)
5(1.992612672e-09 1.882190837e-09 1.629107489e-09 1.19259897e-09 7.412289727e-10)
5(2.048747758e-09 1.823926651e-09 1.488517742e-09 9.985739241e-10 5.701753949e-10)
5(1.978591741e-09 1.648135434e-09 1.250509103e-09 7.607679165e-10 3.936384899e-10)
5(1.77558442e-09 1.374055405e-09 9.490624761e-10 5.197255927e-10 2.409274205e-10)
5(1.465598789e-09 1.03782509e-09 6.415368777e-10 3.139243805e-10 1.27754357e-10)
5(1.095118976e-09 6.975003737e-10 3.782105298e-10 1.653307041e-10 5.808578586e-11)
5(7.241739096e-10 4.06922095e-10 1.91263652e-10 7.307196182e-11 2.233307192e-11)
5(4.138910248e-10 1.99505821e-10 8.060928777e-11 2.73225399e-11 7.155861164e-12)
5(1.943891409e-10 7.914154989e-11 2.716997441e-11 8.201637122e-12 2.016111536e-12)
5(7.156766154e-11 2.452336091e-11 7.224940301e-12 2.024268058e-12 4.790416543e-13)
5(1.900446091e-11 5.613669326e-12 1.409392782e-12 3.860368555e-13 9.459069951e-14)
5(3.54981516e-12 9.035110482e-13 2.112045185e-13 6.215098274e-14 1.62688692e-14)
5(3.840621716e-13 9.72591769e-14 2.120530548e-14 7.377712433e-15 1.963317477e-15)
5(2.418418763e-14 5.069652195e-15 1.46990372e-15 4.752762972e-16 1.479256291e-16)
5(4.617731256e-16 -1.598858346e-14 9.299314843e-17 -1.299133505e-14 7.364617996e-18)
5(3.404664075e-18 -6.831728835e-12 -5.951687858e-17 -4.349916596e-12 1.467592522e-18)
5(4.091152426e-19 5.593114874e-19 7.529619524e-14 1.162249851e-18 1.748550898e-18)
)


60
(
5(4.046854813e-09 2.715079443e-09 3.553712028e-09 2.351979479e-09 1.570940944e-09)
5(4.050939507e-09 3.30121052e-09 3.118713987e-09 2.250834954e-09 1.418167605e-09)
5(4.128234429e-09 3.657461456e-09 3.025178839e-09 2.238176381e-09 1.363213082e-09)
5(4.30823433e-09 3.857692213e-09 3.116776981e-09 2.268425392e-09 1.367394946e-09)
5(4.613016279e-09 3.997847491e-09 3.270786749e-09 2.302804644e-09 1.396880899e-09)
5(4.898214106e-09 4.075179218e-09 3.359477948e-09 2.301736386e-09 1.413056454e-09)
5(4.978996675e-09 4.030900377e-09 3.315291286e-09 2.239063636e-09 1.385554179e-09)
5(4.855650356e-09 3.882307632e-09 3.159877893e-09 2.12112296e-09 1.318170022e-09)
5(4.604921237e-09 3.632712277e-09 2.924462945e-09 1.954958995e-09 1.22222623e-09)
5(4.238111461e-09 3.282861339e-09 2.63459373e-09 1.749597619e-09 1.102892185e-09)
5(3.762292876e-09 2.860216807e-09 2.297099976e-09 1.512286804e-09 9.639967859e-10)
5(3.224691391e-09 2.389706579e-09 1.924923456e-09 1.256501793e-09 8.105723538e-10)
5(2.648958882e-09 1.917884855e-09 1.545549178e-09 1.002572376e-09 6.540366701e-10)
5(2.093872588e-09 1.486903106e-09 1.196521112e-09 7.738710934e-10 5.120161422e-10)
5(1.601574359e-09 1.129104679e-09 9.029612544e-10 5.863406388e-10 3.910931924e-10)
5(1.218242833e-09 8.539489819e-10 6.770651437e-10 4.427987275e-10 2.991295625e-10)
5(9.322289017e-10 6.51289868e-10 5.129256612e-10 3.385878346e-10 2.313012624e-10)
5(7.247901849e-10 5.078404441e-10 3.978778862e-10 2.659029281e-10 1.840816425e-10)
5(5.792367181e-10 4.069420217e-10 3.17563169e-10 2.152581028e-10 1.509308092e-10)
5(4.743579735e-10 3.353034967e-10 2.611657139e-10 1.797221503e-10 1.276036013e-10)
5(3.973963195e-10 2.831657092e-10 2.205615887e-10 1.544050416e-10 1.114483959e-10)
5(3.388856173e-10 2.443818056e-10 1.913816863e-10 1.36606658e-10 1.0051238e-10)
5(2.95483661e-10 2.159222799e-10 1.706072215e-10 1.242119004e-10 9.34329585e-11)
5(2.623223969e-10 1.953456171e-10 1.562986939e-10 1.164032136e-10 8.971510079e-11)
5(2.375341173e-10 1.810578814e-10 1.469531238e-10 1.127420613e-10 8.881997376e-11)
5(2.201850509e-10 1.720309083e-10 1.425323184e-10 1.130745835e-10 9.163463342e-11)
5(2.086918393e-10 1.682021072e-10 1.431128787e-10 1.178255269e-10 9.849556926e-11)
5(2.034892174e-10 1.699104169e-10 1.490593326e-10 1.278077532e-10 1.100345405e-10)
5(2.037390288e-10 1.779393187e-10 1.615809723e-10 1.44535924e-10 1.284291462e-10)
5(2.109248327e-10 1.935801271e-10 1.825691983e-10 1.70021155e-10 1.551013461e-10)
5(2.265625192e-10 2.189353162e-10 2.146570663e-10 2.073155546e-10 1.93819735e-10)
5(2.527350029e-10 2.571914741e-10 2.612732058e-10 2.600625384e-10 2.472670148e-10)
5(2.923996697e-10 3.120308467e-10 3.269009648e-10 3.328386365e-10 3.199142e-10)
5(3.499713277e-10 3.888537048e-10 4.169418304e-10 4.300142071e-10 4.148898779e-10)
5(4.306167107e-10 4.933723177e-10 5.373316563e-10 5.571612761e-10 5.377970238e-10)
5(5.400593494e-10 6.31522918e-10 6.933188793e-10 7.180405132e-10 6.865965594e-10)
5(6.853226112e-10 8.084376034e-10 8.895604239e-10 9.134287458e-10 8.640427358e-10)
5(8.733197217e-10 1.028984244e-09 1.125892334e-09 1.140434795e-09 1.062202676e-09)
5(1.105521124e-09 1.291564802e-09 1.397611355e-09 1.388664476e-09 1.263549422e-09)
5(1.38141782e-09 1.589193326e-09 1.690699142e-09 1.638887755e-09 1.44488707e-09)
5(1.695151284e-09 1.906454827e-09 1.97985272e-09 1.86306307e-09 1.573506328e-09)
5(2.02381918e-09 2.213941653e-09 2.231704338e-09 2.023540921e-09 1.62758727e-09)
5(2.343606008e-09 2.47342766e-09 2.405796048e-09 2.08258102e-09 1.583869113e-09)
5(2.61013418e-09 2.64090478e-09 2.462365976e-09 2.012738103e-09 1.443985019e-09)
5(2.781896973e-09 2.675827247e-09 2.370023061e-09 1.81273321e-09 1.219429052e-09)
5(2.812627694e-09 2.551952704e-09 2.120668737e-09 1.507405643e-09 9.390080566e-10)
5(2.675525604e-09 2.271067654e-09 1.74180883e-09 1.145920654e-09 6.534837007e-10)
5(2.377235942e-09 1.860036766e-09 1.298730958e-09 7.820164066e-10 4.019544051e-10)
5(1.945731283e-09 1.379053983e-09 8.612065712e-10 4.713146129e-10 2.169378971e-10)
5(1.445966815e-09 9.080722347e-10 4.943426462e-10 2.440285144e-10 9.977768294e-11)
5(9.574231503e-10 5.16690704e-10 2.433432703e-10 1.081527762e-10 3.850027422e-11)
5(5.465545307e-10 2.4286136e-10 9.883473537e-11 3.850504609e-11 1.202782462e-11)
5(2.539523836e-10 9.241420799e-11 3.149538927e-11 1.107185307e-11 3.163263e-12)
5(9.154949061e-11 2.652581714e-11 7.335587708e-12 2.453936669e-12 6.652610828e-13)
5(2.465817685e-11 5.28801042e-12 1.174138816e-12 3.940554384e-13 1.097634036e-13)
5(3.87007355e-12 6.4277871e-13 1.298658303e-13 4.453541999e-14 1.449603542e-14)
5(2.541093327e-13 5.317893893e-14 7.514756633e-15 3.602444417e-15 1.030167081e-15)
5(1.644759207e-14 6.530669807e-14 -5.916825474e-16 8.012484825e-14 4.272354326e-17)
5(1.880286194e-16 3.079398821e-11 -3.162143455e-13 3.259619962e-11 4.114857131e-18)
5(6.154334619e-18 4.086022124e-14 0 3.28063631e-17 4.520441334e-18)
)


60
(
5(6.278062924e-09 4.329755201e-09 5.013442961e-09 3.189694445e-09 1.895477286e-09)
5(6.796128026e-09 5.428597436e-09 4.695008403e-09 3.154225566e-09 1.778106234e-09)
5(7.195500356e-09 6.086166267e-09 4.706046261e-09 3.194122138e-09 1.755533874e-09)
5(7.595057206e-09 6.448461629e-09 4.88688362e-09 3.264275426e-09 1.789653874e-09)
5(8.111286735e-09 6.687741364e-09 5.103160307e-09 3.327479418e-09 1.847646956e-09)
5(8.564291848e-09 6.816488216e-09 5.220133425e-09 3.34395246e-09 1.891797759e-09)
5(8.713257674e-09 6.769981607e-09 5.16675443e-09 3.284363288e-09 1.885515201e-09)
5(8.543740982e-09 6.559641268e-09 4.966240206e-09 3.152336081e-09 1.829271035e-09)
5(8.146962921e-09 6.194066237e-09 4.653614658e-09 2.956666537e-09 1.733537092e-09)
5(7.574900283e-09 5.683368504e-09 4.25383227e-09 2.70207232e-09 1.604474324e-09)
5(6.810618669e-09 5.030055048e-09 3.773589058e-09 2.394073107e-09 1.441386375e-09)
5(5.909069825e-09 4.295145557e-09 3.230830094e-09 2.046220737e-09 1.250791636e-09)
5(4.936741199e-09 3.526687533e-09 2.663928723e-09 1.686320612e-09 1.046642574e-09)
5(3.985220868e-09 2.796669648e-09 2.118101156e-09 1.34515697e-09 8.474202125e-10)
5(3.105715968e-09 2.163083042e-09 1.642231612e-09 1.048820639e-09 6.715327477e-10)
5(2.384217132e-09 1.654932521e-09 1.257496871e-09 8.097440725e-10 5.27610751e-10)
5(1.830939918e-09 1.270677833e-09 9.634386828e-10 6.289268694e-10 4.155849303e-10)
5(1.419882768e-09 9.902763444e-10 7.502677318e-10 4.978009809e-10 3.346511389e-10)
5(1.128023226e-09 7.904323462e-10 5.9939303e-10 4.035550302e-10 2.759628811e-10)
5(9.167874854e-10 6.471985474e-10 4.917614714e-10 3.366539889e-10 2.344841383e-10)
5(7.621451803e-10 5.431131379e-10 4.144988363e-10 2.887028372e-10 2.044033827e-10)
5(6.477910064e-10 4.663783761e-10 3.585404326e-10 2.541315622e-10 1.838606508e-10)
5(5.616541428e-10 4.095504762e-10 3.177132334e-10 2.295542758e-10 1.694548628e-10)
5(4.968366753e-10 3.67450593e-10 2.88176833e-10 2.126101886e-10 1.60311968e-10)
5(4.457784572e-10 3.368094844e-10 2.677237799e-10 2.021341558e-10 1.558870109e-10)
5(4.09529554e-10 3.154805188e-10 2.551571423e-10 1.975970043e-10 1.565253447e-10)
5(3.820144821e-10 3.014647154e-10 2.495963361e-10 1.990873915e-10 1.619575052e-10)
5(3.649017622e-10 2.957538659e-10 2.510622803e-10 2.071736647e-10 1.736936267e-10)
5(3.563841979e-10 2.982601308e-10 2.606825637e-10 2.234139228e-10 1.935435233e-10)
5(3.571250622e-10 3.099626029e-10 2.803642015e-10 2.499422547e-10 2.238271808e-10)
5(3.674163457e-10 3.328784329e-10 3.127615554e-10 2.899790273e-10 2.678960188e-10)
5(3.894073717e-10 3.697047367e-10 3.612869437e-10 3.481833843e-10 3.309408147e-10)
5(4.263687498e-10 4.251255351e-10 4.315052739e-10 4.294490665e-10 4.153362284e-10)
5(4.825029878e-10 5.046227717e-10 5.296369564e-10 5.399302471e-10 5.295283109e-10)
5(5.635543158e-10 6.139975035e-10 6.619135627e-10 6.861547734e-10 6.775733125e-10)
5(6.763527692e-10 7.610720327e-10 8.365691392e-10 8.742419117e-10 8.635883707e-10)
5(8.272965872e-10 9.528481802e-10 1.06038373e-09 1.108240966e-09 1.090211137e-09)
5(1.023300259e-09 1.195827778e-09 1.336238113e-09 1.388759948e-09 1.35316463e-09)
5(1.272509248e-09 1.493531361e-09 1.662535806e-09 1.707773479e-09 1.636612717e-09)
5(1.575897959e-09 1.841337644e-09 2.027615955e-09 2.048130019e-09 1.914489194e-09)
5(1.929811228e-09 2.227404145e-09 2.410862482e-09 2.380823505e-09 2.152513782e-09)
5(2.320173174e-09 2.626014555e-09 2.776743561e-09 2.662135152e-09 2.314340344e-09)
5(2.72326633e-09 3.000376709e-09 3.077942199e-09 2.842362132e-09 2.361584344e-09)
5(3.098592729e-09 3.300632545e-09 3.263473803e-09 2.876188712e-09 2.278155347e-09)
5(3.400206108e-09 3.473580708e-09 3.278173771e-09 2.737869001e-09 2.05658314e-09)
5(3.57459701e-09 3.474971737e-09 3.097649099e-09 2.433096305e-09 1.721779083e-09)
5(3.583143882e-09 3.277532869e-09 2.718576264e-09 2.002037242e-09 1.318701886e-09)
5(3.398804479e-09 2.888453566e-09 2.190393247e-09 1.501239407e-09 9.106717468e-10)
5(3.019505497e-09 2.346069362e-09 1.600078581e-09 1.01059564e-09 5.571587082e-10)
5(2.489923061e-09 1.730185001e-09 1.041253446e-09 6.012831701e-10 2.951252605e-10)
5(1.878959908e-09 1.133342531e-09 5.886465248e-10 3.066212745e-10 1.336010773e-10)
5(1.274144997e-09 6.365356317e-10 2.795390616e-10 1.310276939e-10 5.090504062e-11)
5(7.534181029e-10 3.048923166e-10 1.077203697e-10 4.416915429e-11 1.479438414e-11)
5(3.712790531e-10 1.174304755e-10 3.146296687e-11 1.145038021e-11 3.67924049e-12)
5(1.401540529e-10 3.244110005e-11 6.60247406e-12 2.077011595e-12 6.42328154e-13)
5(4.389916017e-11 6.182884945e-12 8.728000827e-13 2.602126821e-13 6.862450632e-14)
5(8.066319843e-12 6.752269446e-13 5.797743315e-14 2.116127875e-14 6.154543575e-15)
5(7.297674111e-13 8.7366502e-14 2.286821804e-15 4.438877049e-14 2.351546065e-16)
5(4.647133294e-14 1.646812183e-11 6.448307264e-17 1.178856911e-11 1.046518753e-17)
5(5.566360812e-14 1.911614767e-16 3.589658354e-13 7.790586632e-18 9.577690267e-18)
)


60
(
5(9.050217244e-09 6.333883218e-09 6.632965384e-09 4.072479557e-09 2.226361358e-09)
5(1.032914804e-08 8.069433868e-09 6.489637137e-09 4.116378407e-09 2.146501477e-09)
5(1.119231258e-08 9.099081858e-09 6.641809742e-09 4.224910434e-09 2.165644854e-09)
5(1.188472405e-08 9.644937454e-09 6.928444342e-09 4.350872612e-09 2.24254559e-09)
5(1.266258337e-08 9.998207875e-09 7.217913411e-09 4.459154369e-09 2.344229676e-09)
5(1.332136724e-08 1.020386967e-08 7.371905946e-09 4.511038484e-09 2.43024118e-09)
5(1.351694787e-08 1.016243107e-08 7.325456842e-09 4.474523453e-09 2.459567515e-09)
5(1.330959266e-08 9.895628426e-09 7.095889906e-09 4.349344741e-09 2.427198313e-09)
5(1.276013719e-08 9.412028284e-09 6.720318178e-09 4.140702533e-09 2.344737402e-09)
5(1.195275077e-08 8.71776383e-09 6.221410379e-09 3.852487933e-09 2.214042051e-09)
5(1.0852235e-08 7.836825955e-09 5.608870761e-09 3.485466968e-09 2.036594568e-09)
5(9.555687564e-09 6.807005952e-09 4.896771635e-09 3.053998916e-09 1.813071852e-09)
5(8.097369768e-09 5.706434947e-09 4.12811001e-09 2.585980171e-09 1.56148678e-09)
5(6.635481264e-09 4.63171404e-09 3.36499077e-09 2.12149079e-09 1.30244241e-09)
5(5.264858987e-09 3.661863256e-09 2.670263702e-09 1.69879268e-09 1.060906819e-09)
5(4.097001475e-09 2.845561565e-09 2.086807034e-09 1.342537466e-09 8.540859234e-10)
5(3.169557426e-09 2.202632516e-09 1.625673107e-09 1.059516896e-09 6.8676947e-10)
5(2.478709393e-09 1.722626904e-09 1.277739025e-09 8.459985993e-10 5.603607616e-10)
5(1.96094549e-09 1.37408242e-09 1.02368569e-09 6.900133315e-10 4.656581084e-10)
5(1.58133069e-09 1.122512664e-09 8.409698985e-10 5.769333682e-10 3.981079227e-10)
5(1.310957049e-09 9.391563901e-10 7.085812464e-10 4.948737857e-10 3.478642939e-10)
5(1.108268367e-09 8.038760638e-10 6.118319366e-10 4.352322857e-10 3.11731614e-10)
5(9.595710868e-10 7.034025396e-10 5.411952164e-10 3.916568335e-10 2.86238005e-10)
5(8.435680116e-10 6.28288204e-10 4.892019011e-10 3.606481638e-10 2.691475198e-10)
5(7.558239857e-10 5.720114627e-10 4.515846805e-10 3.396788015e-10 2.590694817e-10)
5(6.899549213e-10 5.308070303e-10 4.259638835e-10 3.271187336e-10 2.551588034e-10)
5(6.419542003e-10 5.023998609e-10 4.103255325e-10 3.226209078e-10 2.578855221e-10)
5(6.061836263e-10 4.850832728e-10 4.041892434e-10 3.2643085e-10 2.68394528e-10)
5(5.821391964e-10 4.780296781e-10 4.079789971e-10 3.396270421e-10 2.875564156e-10)
5(5.714377617e-10 4.820573086e-10 4.233988374e-10 3.644035643e-10 3.185457424e-10)
5(5.726449904e-10 4.989724704e-10 4.526955225e-10 4.041537612e-10 3.656759125e-10)
5(5.873456107e-10 5.311642258e-10 4.995842082e-10 4.629321449e-10 4.32583053e-10)
5(6.175317831e-10 5.823973074e-10 5.693258931e-10 5.469874389e-10 5.254224954e-10)
5(6.665169381e-10 6.577940616e-10 6.679867534e-10 6.631439059e-10 6.527554858e-10)
5(7.421757394e-10 7.64397064e-10 8.038141731e-10 8.192261387e-10 8.186983497e-10)
5(8.486306545e-10 9.10513786e-10 9.855984474e-10 1.023523765e-09 1.031548939e-09)
5(9.940244943e-10 1.104684254e-09 1.222356755e-09 1.283234828e-09 1.295634336e-09)
5(1.187716798e-09 1.355134883e-09 1.52016522e-09 1.600624676e-09 1.610727076e-09)
5(1.436312804e-09 1.666607695e-09 1.880426743e-09 1.973430642e-09 1.966477796e-09)
5(1.74667306e-09 2.040526143e-09 2.298230474e-09 2.38807496e-09 2.336927458e-09)
5(2.116989486e-09 2.471145923e-09 2.755381026e-09 2.818275944e-09 2.679198114e-09)
5(2.541355867e-09 2.938149474e-09 3.221904246e-09 3.220037078e-09 2.968783045e-09)
5(3.000211233e-09 3.408728746e-09 3.650645001e-09 3.538416346e-09 3.139799343e-09)
5(3.462008248e-09 3.836456732e-09 3.983431006e-09 3.713968736e-09 3.164845082e-09)
5(3.887203338e-09 4.16616497e-09 4.153105258e-09 3.698719757e-09 3.010754644e-09)
5(4.217385402e-09 4.339949608e-09 4.108962927e-09 3.469934636e-09 2.683029464e-09)
5(4.386881317e-09 4.308450815e-09 3.821324227e-09 3.041854775e-09 2.212637776e-09)
5(4.393423769e-09 4.043457147e-09 3.307750663e-09 2.467350923e-09 1.669584444e-09)
5(4.175778355e-09 3.556268713e-09 2.641360749e-09 1.82327755e-09 1.13349196e-09)
5(3.736578259e-09 2.900801715e-09 1.912163555e-09 1.202858818e-09 6.78437246e-10)
5(3.138467532e-09 2.157938433e-09 1.232865967e-09 6.973489451e-10 3.506367927e-10)
5(2.428556061e-09 1.453927193e-09 6.893991216e-10 3.44215615e-10 1.544656213e-10)
5(1.69376829e-09 8.413469566e-10 3.278300416e-10 1.376782581e-10 5.413644499e-11)
5(1.069350355e-09 4.169298497e-10 1.221327048e-10 4.443009337e-11 1.512579768e-11)