/*--------------------------------*- C++ -*----------------------------------*\
| =========                 |                                                 |
| \\      /  F ield         | OpenFOAM: The Open Source CFD Toolbox           |
|  \\    /   O peration     | Version:  2.3.1                                 |
|   \\  /    A nd           | Web:      www.OpenFOAM.org                      |
|    \\/     M anipulation  |                                                 |
\*---------------------------------------------------------------------------*/
FoamFile
{
    version     2.0;
    format      ascii;
    class       dictionary;
    location    "constant";
    object      CO2;
}
// * * * * * * * * * * * * * * * * * * * * * * * * * * * * * * * * * * * * * //

CO2_table
60
(

60
(
5(0.1460282807 0.1521582176 0.1566391619 0.1623644794 0.1668582637)
5(0.1466627549 0.1523222526 0.1575721975 0.1629268461 0.1680998403)
5(0.1469726973 0.1523965053 0.1579947328 0.1631865334 0.1686703573)
5(0.1470546546 0.1524099244 0.1580737926 0.1632416342 0.1687835666)
5(0.1470051732 0.1523914585 0.1579764013 0.1631902414 0.1686532202)
5(0.1469207997 0.1523699752 0.1578684169 0.1631297891 0.1684928933)
5(0.1468841583 0.1523631736 0.1578403452 0.1631139976 0.168445312)
5(0.1468930105 0.1523662999 0.1578627117 0.1631263109 0.1684743043)
5(0.146913178 0.1523719109 0.1578953454 0.1631438244 0.1685159987)
5(0.1469210113 0.1523738108 0.1579086832 0.163149539 0.1685287542)
5(0.1469186647 0.1523723381 0.1579058692 0.1631460031 0.1685207705)
5(0.1469121491 0.1523699636 0.1578963305 0.1631398042 0.1685070291)
5(0.1469073663 0.1523686469 0.1578892849 0.1631361863 0.1685001527)
5(0.1469065585 0.1523683009 0.1578878853 0.1631350308 0.1684998423)
5(0.1469075303 0.1523683277 0.1578884359 0.163134881 0.1685013962)
5(0.1469080367 0.152368234 0.1578877272 0.1631344221 0.1685010301)
5(0.1469076443 0.1523679166 0.1578857699 0.1631330957 0.1684986448)
5(0.1469068204 0.152367363 0.1578833344 0.1631305951 0.168495063)
5(0.1469060347 0.1523665607 0.1578811096 0.163126713 0.1684910211)
5(0.1469055568 0.1523655004 0.1578792023 0.1631221302 0.1684866532)
5(0.1469053816 0.1523642809 0.1578774651 0.1631179947 0.168481836)
5(0.1469054838 0.1523631211 0.157875739 0.1631152176 0.1684764261)
5(0.1469058382 0.152362081 0.1578737746 0.1631129571 0.1684701003)
5(0.1469064199 0.1523611069 0.1578712764 0.1631095962 0.168462437)
5(0.1469072014 0.1523601415 0.1578679644 0.1631036207 0.1684530156)
5(0.1469081479 0.1523591076 0.1578637813 0.1630949118 0.1684414408)
5(0.1469092223 0.1523579137 0.1578588349 0.1630843297 0.1684273354)
5(0.1469103886 0.1523564627 0.1578532125 0.1630727121 0.1684103208)
5(0.1469116207 0.1523545666 0.1578466414 0.1630599217 0.1683899469)
5(0.1469128989 0.1523519586 0.1578385695 0.1630448544 0.1683656675)
5(0.1469141977 0.1523483684 0.1578284387 0.1630263825 0.1683369502)
5(0.1469154204 0.1523434913 0.1578157343 0.1630038367 0.1683038188)
5(0.1469164208 0.1523369794 0.157799997 0.1629770319 0.1682669109)
5(0.1469170378 0.1523284818 0.1577807692 0.1629458022 0.1682268544)
5(0.1469169184 0.1523176138 0.1577575127 0.1629097845 0.1681824892)
5(0.1469156117 0.1523039378 0.1577295741 0.16286832 0.1681302306)
5(0.1469126829 0.1522870108 0.1576962937 0.1628207291 0.1680663729)
5(0.1469076417 0.1522662434 0.1576572707 0.1627666252 0.167993356)
5(0.1468998809 0.1522407164 0.157612569 0.1627061603 0.1679254721)
5(0.1468887776 0.1522094654 0.1575622981 0.1626395478 0.167878351)
5(0.1468734947 0.15217176 0.1575056125 0.1625694887 0.1678598277)
5(0.1468526365 0.1521275538 0.1574393277 0.1625053341 0.1678567132)
5(0.1468247181 0.1520769252 0.1573599083 0.1624575341 0.1678523091)
5(0.1467883869 0.1520192947 0.1572670128 0.1624317506 0.16783268)
5(0.1467427681 0.1519513575 0.1571721535 0.1624167632 0.1677964797)
5(0.1466870943 0.1518691034 0.1570895917 0.1623976325 0.1677459464)
5(0.1466205923 0.15177083 0.1570293198 0.1623614573 0.1676821223)
5(0.1465424596 0.1516677634 0.1569826951 0.1623050564 0.1675991457)
5(0.1464518851 0.151575628 0.1569359909 0.1622281439 0.1674886834)
5(0.1463493677 0.1515066977 0.1568765129 0.1621298545 0.1673426245)
5(0.1462435888 0.1514521123 0.1567978406 0.1620052888 0.1671544376)
5(0.1461463831 0.1513950233 0.1566959103 0.1618478326 0.166918267)
5(0.1460682542 0.1513196952 0.1565666378 0.1616506748 0.1666276881)
5(0.146007165 0.1512203113 0.1564056348 0.1614052904 0.1662712043)
5(0.1459542209 0.151096206 0.1562083117 0.161102247 0.1658346641)
5(0.145900464 0.1509467576 0.155970075 0.1607321038 0.1653038931)
5(0.1458369751 0.1507713443 0.1556863313 0.16028542 0.1646647165)
5(0.1457547501 0.1505693655 0.1553524873 0.1597527549 0.1639029599)
5(0.1456447392 0.150340136 0.1549639729 0.1591246678 0.1630044486)
5(0.1454979209 0.1500830975 0.1545161246 0.1583917178 0.161955008)
)


60
(
5(0.1449742656 0.1509734319 0.1552769932 0.1607965122 0.16522064)
5(0.145395307 0.1509270811 0.1560475713 0.1612371568 0.1663144542)
5(0.1455829595 0.1508808135 0.1563551925 0.161407416 0.1667853055)
5(0.1455941758 0.1508256747 0.1563579628 0.1613987342 0.1668321843)
5(0.145488519 0.1507537969 0.1562070256 0.1612981766 0.1666540896)
5(0.1453531197 0.150682122 0.1560559015 0.1611947414 0.1664525771)
5(0.145271297 0.1506313475 0.1559864529 0.1611394426 0.1663661878)
5(0.1452385557 0.1505939403 0.1559693542 0.1611150587 0.166358588)
5(0.1452197449 0.1505622343 0.1559661141 0.161098655 0.166366281)
5(0.1451915235 0.1505293588 0.1559461918 0.1610725886 0.1663477419)
5(0.1451556245 0.1504953378 0.1559122709 0.161039413 0.1663106881)
5(0.1451175506 0.1504623946 0.1558733193 0.161005242 0.1662695952)
5(0.1450828849 0.1504320583 0.1558385353 0.1609751107 0.1662366581)
5(0.1450536353 0.1504041396 0.1558106313 0.1609485497 0.1662114228)
5(0.1450274741 0.1503779204 0.155785871 0.1609242423 0.1661891523)
5(0.1450020632 0.1503526673 0.1557608967 0.1609005976 0.1661660135)
5(0.1449768648 0.1503283151 0.155735709 0.1608769853 0.1661418029)
5(0.1449522425 0.1503046331 0.1557109915 0.160853158 0.1661172566)
5(0.144928577 0.1502816697 0.1556873037 0.1608287133 0.1660930375)
5(0.1449060631 0.1502592071 0.1556647308 0.1608043109 0.1660692205)
5(0.1448846338 0.1502373798 0.155642992 0.1607810836 0.1660456324)
5(0.1448642109 0.1502162921 0.1556219877 0.160759741 0.1660220893)
5(0.1448447222 0.150196047 0.1556013826 0.1607395578 0.1659982345)
5(0.1448261008 0.1501764515 0.1555807711 0.1607189654 0.16597362)
5(0.1448082825 0.150157568 0.1555600708 0.1606963399 0.1659478001)
5(0.1447911987 0.1501390398 0.1555388787 0.1606714828 0.1659203597)
5(0.1447747842 0.150120898 0.1555175506 0.1606451307 0.1658909052)
5(0.1447589758 0.1501029128 0.1554960113 0.1606182091 0.1658590379)
5(0.144743723 0.150084989 0.1554739654 0.1605905883 0.1658242932)
5(0.1447289862 0.1500668394 0.1554509347 0.1605611567 0.1657861376)
5(0.1447147228 0.1500481318 0.1554262318 0.1605287511 0.1657440509)
5(0.1447008173 0.1500285595 0.1553994595 0.1604927418 0.165698005)
5(0.1446871279 0.1500077913 0.1553700141 0.1604528677 0.1656485504)
5(0.1446734968 0.1499854978 0.155337629 0.1604090036 0.1655963011)
5(0.1446594817 0.1499611372 0.1553015742 0.1603607796 0.1655401567)
5(0.1446445981 0.1499344989 0.1552614074 0.1603076168 0.1654765923)
5(0.1446284855 0.149904971 0.1552163 0.1602486054 0.1654019444)
5(0.1446106554 0.1498718606 0.1551655072 0.1601834906 0.1653186009)
5(0.144590493 0.1498346619 0.1551096286 0.1601126312 0.1652406116)
5(0.1445673857 0.1497919732 0.1550486788 0.1600358627 0.1651833342)
5(0.1445405057 0.1497433622 0.1549817946 0.1599560793 0.165154457)
5(0.1445084847 0.1496887472 0.1549057033 0.1598820539 0.1651410233)
5(0.1444698937 0.1496278694 0.1548168944 0.1598242994 0.1651266606)
5(0.144423341 0.1495605279 0.1547151671 0.1597893335 0.1650976524)
5(0.1443678771 0.1494834087 0.1546118379 0.1597653616 0.1650525932)
5(0.1443028228 0.1493927812 0.1545205918 0.1597373991 0.1649936562)
5(0.1442274697 0.1492863345 0.1544516373 0.1596927634 0.16492193)
5(0.1441410124 0.1491751593 0.1543971715 0.1596284809 0.1648316922)
5(0.144042662 0.1490752287 0.1543429253 0.1595443788 0.1647147544)
5(0.1439329312 0.1489987696 0.1542762526 0.1594396682 0.1645631453)
5(0.1438203838 0.148937509 0.1541909421 0.1593093558 0.164370448)
5(0.1437166575 0.1488738087 0.1540832153 0.159146994 0.1641309222)
5(0.1436320885 0.1487922103 0.1539487978 0.158945989 0.1638382918)
5(0.143564699 0.148687602 0.1537835916 0.1586980335 0.16348128)
5(0.143505737 0.1485588313 0.1535830847 0.1583937772 0.1630459565)
5(0.1434464613 0.1484058032 0.1533429925 0.1580240659 0.162518405)
5(0.1433782441 0.1482277983 0.1530587917 0.1575796917 0.1618848271)
5(0.1432922938 0.1480243254 0.1527260451 0.1570515905 0.1611314453)
5(0.14317992 0.1477952982 0.1523405255 0.1564303953 0.1602444877)
5(0.1430327521 0.1475394411 0.1518972073 0.1557071148 0.1592101838)
)


60
(
5(0.1439202504 0.1497886462 0.1539148246 0.1592285449 0.1635830163)
5(0.1441278592 0.1495315331 0.1545232235 0.1595469229 0.1645290681)
5(0.1441932216 0.149365114 0.1547165236 0.1596286709 0.1649002537)
5(0.1441336969 0.1492414997 0.1546422304 0.1595561776 0.164880802)
5(0.1439718648 0.1491162813 0.1544381423 0.1594063602 0.164654959)
5(0.1437854397 0.1489942836 0.1542438457 0.1592597276 0.1644122608)
5(0.1436584356 0.1488995971 0.1541322412 0.1591649363 0.1642870636)
5(0.143584101 0.1488216434 0.154076067 0.1591039039 0.1642428716)
5(0.1435263119 0.1487524595 0.1540367599 0.1590533427 0.1642165633)
5(0.1434620357 0.1486849233 0.1539837182 0.158995681 0.1641667296)
5(0.1433925842 0.148618421 0.1539186585 0.1589328779 0.1641006058)
5(0.1433229521 0.1485548031 0.1538504401 0.1588707114 0.1640321614)
5(0.1432584036 0.1484955236 0.1537878452 0.1588140009 0.1639731636)
5(0.1432007121 0.1484400566 0.1537334413 0.1587621854 0.1639230033)
5(0.143147418 0.1483875174 0.1536833069 0.1587136247 0.1638769085)
5(0.1430960896 0.1483371708 0.1536340956 0.1586667391 0.163830997)
5(0.1430460854 0.1482887411 0.1535857152 0.1586209675 0.163784961)
5(0.1429976646 0.1482419908 0.1535386972 0.1585757531 0.1637394501)
5(0.1429511193 0.1481968189 0.1534935976 0.1585307415 0.1636950539)
5(0.1429065693 0.1481529636 0.1534502818 0.1584865968 0.1636517877)
5(0.1428638861 0.1481105641 0.1534086546 0.1584442194 0.1636094287)
5(0.1428229381 0.1480695917 0.1533682678 0.1584042799 0.1635677526)
5(0.1427836062 0.1480300684 0.1533290646 0.1583663 0.1635263686)
5(0.1427457818 0.1479919589 0.1532904649 0.1583283603 0.1634848029)
5(0.1427093635 0.1479550809 0.1532522103 0.1582891896 0.1634425845)
5(0.1426742495 0.1479191934 0.1532141757 0.1582480871 0.1633992786)
5(0.142640346 0.1478838707 0.1531762413 0.1582059868 0.1633544751)
5(0.142607563 0.1478495785 0.1531389884 0.158163873 0.163307755)
5(0.1425758253 0.1478155384 0.1531014332 0.1581212443 0.1632586395)
5(0.1425450736 0.1477818185 0.1530633426 0.1580775632 0.1632066077)
5(0.1425152479 0.14774816 0.1530242825 0.1580312516 0.1631511516)
5(0.1424862141 0.1477138275 0.1529832152 0.1579816717 0.1630921913)
5(0.1424578349 0.1476786638 0.152940405 0.1579287437 0.1630301898)
5(0.1424299557 0.1476428132 0.1528947027 0.1578724359 0.1629657478)
5(0.1424020449 0.1476049275 0.152845769 0.1578120885 0.1628978242)
5(0.1423735844 0.1475652817 0.1527935557 0.1577470439 0.1628229541)
5(0.1423442882 0.1475231708 0.1527363258 0.1576767483 0.1627375158)
5(0.1423136691 0.1474780902 0.1526741776 0.1576008645 0.1626438458)
5(0.1422811051 0.1474289468 0.1526074372 0.1575195571 0.1625557511)
5(0.1422459937 0.1473748245 0.1525355461 0.1574328013 0.1624883175)
5(0.1422075167 0.1473156513 0.1524583878 0.1573431459 0.1624490863)
5(0.1421643329 0.1472504282 0.152372578 0.1572600262 0.1624253335)
5(0.1421150692 0.1471797275 0.1522748245 0.1571932645 0.1624010121)
5(0.1420582951 0.1471026857 0.1521645325 0.1571483549 0.1623626248)
5(0.141992986 0.1470165357 0.1520527377 0.1571147679 0.1623087066)
5(0.1419185512 0.1469169972 0.1519534913 0.1570774391 0.162241366)
5(0.1418343471 0.1468025798 0.1518763516 0.1570239953 0.1621617376)
5(0.1417395653 0.1466840589 0.1518132257 0.1569518165 0.1620642386)
5(0.1416334388 0.1465771815 0.1517504968 0.1568604819 0.1619408253)
5(0.1415164948 0.1464933094 0.151676224 0.1567491698 0.1617836662)
5(0.1413971789 0.1464240292 0.1515840685 0.1566131812 0.1615864585)
5(0.1412869319 0.1463528558 0.1514702445 0.1564460452 0.1613435774)
5(0.1411959228 0.1462649068 0.1513309014 0.1562412203 0.1610488955)
5(0.141122233 0.1461546351 0.1511614377 0.1559907133 0.1606913558)
5(0.1410572532 0.1460215744 0.1509578791 0.1556853243 0.1602572488)
5(0.1409924651 0.1458648971 0.1507159872 0.1553160631 0.159732917)
5(0.1409195781 0.145684296 0.1504313483 0.1548740354 0.1591049378)
5(0.1408299731 0.1454794301 0.1500997402 0.1543502667 0.1583599307)
5(0.1407152337 0.1452498852 0.1497168451 0.1537361778 0.1574845269)
5(0.1405675833 0.1449957847 0.14927829 0.1530225117 0.1564653595)
)


60
(
5(0.1428662353 0.1486038606 0.1525526559 0.1576605777 0.1619453926)
5(0.1428604113 0.1481359236 0.1529976626 0.1578562495 0.162743682)
5(0.1428034837 0.1478493993 0.1530776442 0.1578497742 0.1630152019)
5(0.1426732181 0.1476573415 0.1529265496 0.157713485 0.1629294198)
5(0.1424552106 0.1474787432 0.1526691372 0.1575144966 0.1626558284)
5(0.1422177597 0.1473064488 0.1524317261 0.1573248562 0.1623719446)
5(0.1420455743 0.1471678179 0.1522782066 0.1571903999 0.1622079394)
5(0.1419296462 0.147049316 0.1521827094 0.1570926576 0.1621271553)
5(0.1418328789 0.1469427048 0.1521074278 0.157008064 0.1620668456)
5(0.1417325478 0.1468404691 0.1520212125 0.1569187647 0.1619857173)
5(0.141629544 0.1467414547 0.1519250677 0.1568263067 0.1618905234)
5(0.1415283536 0.1466472445 0.1518275011 0.1567361512 0.1617947275)
5(0.1414339222 0.1465589442 0.1517370999 0.1566528753 0.1617096691)
5(0.1413477889 0.1464759189 0.151656194 0.1565757933 0.1616345838)
5(0.1412673618 0.146397052 0.1515806966 0.1565029662 0.1615646646)
5(0.141190116 0.1463216667 0.1515073029 0.156432883 0.1614959805)
5(0.141115306 0.1462491638 0.1514357294 0.1563649176 0.1614281191)
5(0.1410430867 0.1461792551 0.151366303 0.1562982705 0.1613616437)
5(0.1409736616 0.1461119254 0.1512998421 0.1562327735 0.1612970703)
5(0.1409070755 0.1460467606 0.1512357467 0.1561686871 0.161234355)
5(0.1408431383 0.145983549 0.1511741993 0.1561073737 0.1611732251)
5(0.1407816652 0.1459228604 0.1511146109 0.1560487887 0.1611134158)
5(0.1407224901 0.1458640308 0.1510567399 0.155992902 0.1610545028)
5(0.1406654627 0.1458073612 0.1509997936 0.1559377747 0.1609959859)
5(0.1406104445 0.1457523824 0.1509443346 0.1558818786 0.160937369)
5(0.1405573004 0.1456991839 0.1508893368 0.1558247322 0.1608781974)
5(0.1405059079 0.145646981 0.1508350642 0.1557668095 0.1608180449)
5(0.1404561501 0.1455960133 0.1507817276 0.1557093378 0.160756472)
5(0.1404079275 0.1455460618 0.1507288092 0.1556519038 0.1606929858)
5(0.1403611609 0.1454967831 0.1506757405 0.1555938829 0.1606270778)
5(0.1403157729 0.1454478569 0.1506221879 0.1555335611 0.1605582523)
5(0.140271611 0.1453989633 0.1505667516 0.1554707376 0.1604863775)
5(0.140228542 0.1453497615 0.1505105687 0.1554044183 0.1604118293)
5(0.1401864147 0.1452996783 0.1504516234 0.1553357814 0.1603351945)
5(0.1401446081 0.1452486755 0.1503900592 0.1552632021 0.1602554917)
5(0.1401025708 0.1451958237 0.1503254355 0.1551863412 0.1601693158)
5(0.1400600908 0.1451412793 0.1502561133 0.1551048965 0.1600730873)
5(0.1400166827 0.1450838417 0.1501827986 0.1550180297 0.1599690907)
5(0.1399717172 0.1450229983 0.1501047136 0.1549261319 0.1598708907)
5(0.1399246018 0.1449579346 0.1500222147 0.1548293976 0.1597933007)
5(0.1398745277 0.1448873833 0.1499348383 0.1547302525 0.1597437155)
5(0.1398201812 0.1448119142 0.149839193 0.154637388 0.1597096437)
5(0.1397602447 0.1447310994 0.1497321168 0.1545611974 0.1596753636)
5(0.1396932493 0.1446445217 0.1496133137 0.1545070826 0.1596275972)
5(0.139618095 0.1445489523 0.1494932859 0.1544638058 0.15956482)
5(0.1395342796 0.1444408111 0.14938573 0.1544173408 0.1594890758)
5(0.1394412244 0.1443187371 0.1492998333 0.1543555579 0.1594015453)
5(0.1393381181 0.1441924955 0.149228836 0.1542751954 0.159296785)
5(0.1392242156 0.1440779304 0.1491580307 0.1541766703 0.1591668963)
5(0.1391000583 0.1439868135 0.1490758961 0.1540587486 0.159004187)
5(0.1389739739 0.1439101579 0.1489772095 0.1539171551 0.1588024689)
5(0.1388572062 0.1438316546 0.1488575493 0.1537449788 0.1585562325)
5(0.1387597571 0.1437374661 0.1487129902 0.1535365361 0.1582594991)
5(0.1386797671 0.1436218076 0.1485393869 0.1532833496 0.1579014315)
5(0.1386087693 0.1434841675 0.1483326898 0.152976873 0.1574685411)
5(0.138538469 0.1433239975 0.1480889375 0.1526080999 0.156947429)
5(0.138460912 0.143140834 0.1478039108 0.1521683865 0.1563250484)
5(0.1383676524 0.1429342843 0.1474734154 0.1516490496 0.1555884162)
5(0.1382505474 0.1427046442 0.1470932475 0.1510418772 0.1547245661)
5(0.1381024146 0.1424521284 0.1466593726 0.1503379086 0.1537205353)
)


60
(
5(0.1418122201 0.1474190749 0.1511904873 0.1560926104 0.1603077689)
5(0.1415929635 0.1467402394 0.1514720264 0.156165521 0.1609582959)
5(0.1414137458 0.1463337075 0.151438778 0.1560709006 0.1611301501)
5(0.1412127392 0.146073201 0.1512108743 0.1558707926 0.1609780375)
5(0.1409385564 0.1458412182 0.1509001547 0.1556226452 0.1606566978)
5(0.1406500797 0.1456186377 0.1506196288 0.1553899505 0.1603316283)
5(0.140432713 0.1454360363 0.1504241856 0.1552158853 0.1601288152)
5(0.1402751915 0.1452769625 0.1502893351 0.1550814661 0.160011439)
5(0.1401394458 0.1451330109 0.1501780857 0.1549627502 0.1599171279)
5(0.14000306 0.1449959746 0.1500587235 0.1548418411 0.159804705)
5(0.1398665038 0.144864526 0.149931467 0.1547196998 0.159680441)
5(0.1397337551 0.1447396715 0.1498045266 0.1546016814 0.1595572937)
5(0.1396094408 0.1446223455 0.1496864548 0.1544917458 0.1594461746)
5(0.1394948657 0.1445118054 0.1495789262 0.1543893716 0.1593461643)
5(0.1393873057 0.1444066206 0.1494781808 0.1542923303 0.1592524207)
5(0.1392841425 0.1443061498 0.1493803774 0.1541990702 0.159160964)
5(0.1391845266 0.1442095409 0.1492856597 0.1541088524 0.1590712771)
5(0.1390885088 0.1441165918 0.1491941045 0.1540207074 0.1589838372)
5(0.1389962039 0.144027086 0.1491060147 0.1539348731 0.1588990867)
5(0.1389075817 0.1439404121 0.1490213362 0.1538510245 0.1588169223)
5(0.1388223906 0.1438567703 0.1489398016 0.1537702674 0.1587370215)
5(0.1387403924 0.1437760274 0.1488607944 0.1536935206 0.158659079)
5(0.1386613741 0.1436980376 0.1487842696 0.1536194656 0.158582637)
5(0.1385851437 0.1436227657 0.1487096096 0.1535470881 0.1585071688)
5(0.1385115256 0.1435500841 0.1486364142 0.1534746241 0.1584321534)
5(0.1384403512 0.1434787278 0.1485644107 0.1534013939 0.1583571163)
5(0.1383714698 0.1434101511 0.1484937866 0.1533276283 0.1582816148)
5(0.1383047373 0.1433424569 0.1484245249 0.1532548594 0.1582051891)
5(0.1382400298 0.1432765528 0.1483561832 0.1531826052 0.1581273321)
5(0.1381772483 0.1432117127 0.1482882338 0.1531102463 0.1580475478)
5(0.138116298 0.1431476212 0.1482198702 0.1530359917 0.157965353)
5(0.1380570078 0.1430841522 0.1481509153 0.1529595188 0.1578805638)
5(0.1379992491 0.1430206787 0.1480805412 0.1528804835 0.1577934688)
5(0.1379428737 0.1429569159 0.1480083648 0.1527989459 0.1577046413)
5(0.1378871713 0.142892329 0.1479344238 0.1527142258 0.1576131592)
5(0.1378315571 0.142826475 0.1478573673 0.1526257735 0.1575156776)
5(0.1377758935 0.1427593163 0.1477763134 0.1525329757 0.1574086588)
5(0.1377196964 0.1426898651 0.1476911346 0.1524351113 0.1572943356)
5(0.1376623293 0.1426170797 0.1476018913 0.1523328214 0.1571860302)
5(0.1376032098 0.1425405843 0.1475090604 0.1522261092 0.157098284)
5(0.1375415388 0.1424592837 0.1474112369 0.1521170141 0.1570383448)
5(0.1374760294 0.1423734423 0.14730567 0.1520148688 0.1569939539)
5(0.1374054203 0.1422825934 0.1471895594 0.1519292283 0.1569497151)
5(0.1373282034 0.142186108 0.1470621083 0.1518655127 0.1568925696)
5(0.137243204 0.1420816161 0.1469338528 0.1518129596 0.1568209334)
5(0.137150008 0.1419648904 0.1468176758 0.1517571063 0.1567367856)
5(0.1370481018 0.1418343896 0.1467237167 0.1516869787 0.1566413529)
5(0.1369366709 0.1417008496 0.1466439054 0.1515989515 0.1565293315)
5(0.1368149924 0.1415788303 0.1465653739 0.1514926351 0.1563929672)
5(0.1366836218 0.1414803336 0.1464760005 0.1513686775 0.1562247079)
5(0.1365507689 0.1413962137 0.146370354 0.1512209629 0.1560184794)
5(0.1364274806 0.1413105116 0.146244677 0.1510442447 0.1557688877)
5(0.1363235914 0.141210002 0.1460951314 0.1508317633 0.1554701028)
5(0.1362373011 0.1410890415 0.1459172664 0.150576125 0.1551115072)
5(0.1361602854 0.1409467894 0.1457074086 0.1502683911 0.1546798335)
5(0.1360844728 0.140782962 0.1454618185 0.1499001001 0.154161941)
5(0.136002246 0.1405970975 0.145176366 0.1494626556 0.153545159)
5(0.1359053316 0.1403891571 0.1448469296 0.1489478117 0.1528169016)
5(0.1357858612 0.1401594799 0.144469643 0.1483475551 0.1519646052)
5(0.1356372458 0.139908472 0.1440404553 0.1476533056 0.1509757111)
)


60
(
5(0.140758205 0.1462342892 0.1498283186 0.1545246432 0.1586701452)
5(0.1403255156 0.1453444737 0.1499463119 0.1544747433 0.1591729098)
5(0.1400240079 0.1448179582 0.1497998676 0.1542920236 0.1592450983)
5(0.1397522604 0.1444891091 0.1494951871 0.1540281208 0.1590266552)
5(0.1394219022 0.1442037518 0.1491312067 0.1537308407 0.1586575672)
5(0.1390823997 0.1439308026 0.1488075761 0.1534550158 0.1582913121)
5(0.1388198517 0.1437042405 0.1485701079 0.1532413617 0.158049691)
5(0.1386207367 0.1435046688 0.1483960371 0.1530702565 0.1578957226)
5(0.1384460128 0.1433232141 0.1482487015 0.1529174881 0.1577674102)
5(0.1382735722 0.1431516091 0.1480962738 0.1527648946 0.1576236927)
5(0.1381034635 0.1429874963 0.147937808 0.1526131534 0.1574703586)
5(0.1379391566 0.142832137 0.1477816435 0.152467119 0.1573198598)
5(0.1377849594 0.1426857776 0.1476356468 0.1523306703 0.1571826801)
5(0.1376419426 0.1425476623 0.1475017766 0.1522029475 0.1570577448)
5(0.1375072495 0.1424162389 0.1473755447 0.1520816207 0.1569401769)
5(0.1373781689 0.1422905322 0.1472536323 0.1519653005 0.1568259474)
5(0.1372537471 0.1421700261 0.1471356344 0.1518526876 0.1567144352)
5(0.1371339308 0.1420538755 0.1470217015 0.151743483 0.1566060308)
5(0.1370187462 0.1419421408 0.1469122992 0.1516367158 0.1565011031)
5(0.136908088 0.1418342496 0.1468068766 0.1515332133 0.1563994896)
5(0.1368016428 0.1417298276 0.1467052316 0.1514334741 0.1563008179)
5(0.1366991196 0.1416292402 0.1466072827 0.1513379484 0.1562047422)
5(0.136600258 0.1415320153 0.1465118281 0.1512462173 0.1561107712)
5(0.1365048247 0.1414381064 0.1464190656 0.1511564679 0.1560183518)
5(0.1364126066 0.1413474792 0.1463286074 0.1510672931 0.1559269379)
5(0.136323402 0.1412592775 0.1462395667 0.1509779439 0.1558360352)
5(0.1362370317 0.1411728333 0.1461525572 0.1508886048 0.1557451846)
5(0.1361533245 0.1410889425 0.1460673501 0.1508003292 0.1556539062)
5(0.136072132 0.1410070699 0.1459836482 0.1507133305 0.1555616785)
5(0.1359933357 0.1409267293 0.1459004907 0.1506265131 0.1554680179)
5(0.1359168231 0.140847439 0.1458178057 0.1505384711 0.1553724537)
5(0.1358424047 0.1407693477 0.1457345449 0.1504484254 0.15527475)
5(0.1357699562 0.1406914246 0.1456508551 0.1503564361 0.1551751082)
5(0.1356993326 0.1406139916 0.1455653339 0.1502621941 0.155074088)
5(0.1356297346 0.1405360532 0.1454785469 0.1501654114 0.1549708267)
5(0.1355605434 0.1404572191 0.1453892564 0.150065073 0.1548620393)
5(0.1354916961 0.140377417 0.1452963328 0.1499608519 0.1547442302)
5(0.1354227101 0.1402956533 0.1451997872 0.1498524065 0.1546195805)
5(0.1353529414 0.1402112499 0.1450993967 0.1497395846 0.1545011697)
5(0.1352818178 0.1401234531 0.144995539 0.1496226413 0.1544032672)
5(0.1352085498 0.1400312233 0.144887691 0.1495038285 0.1543329741)
5(0.1351318776 0.1399348448 0.144772216 0.1493922375 0.154278264)
5(0.1350505958 0.1398340362 0.1446470195 0.1492972846 0.1542240666)
5(0.1349631575 0.1397279211 0.1445107544 0.149224024 0.154157542)
5(0.1348683129 0.1396141119 0.1443742776 0.1491618261 0.1540770469)
5(0.1347657364 0.1394888238 0.1442497396 0.1490972069 0.1539844954)
5(0.1346549792 0.1393503061 0.1441472842 0.1490179658 0.1538811606)
5(0.1345352237 0.1392089928 0.1440595013 0.148922353 0.1537618779)
5(0.1344057693 0.139079617 0.1439725749 0.1488093662 0.1536190381)
5(0.1342671854 0.1389738823 0.1438759122 0.1486780463 0.1534452287)
5(0.134127564 0.1388817005 0.143763527 0.1485249338 0.1532344898)
5(0.133997755 0.1387901362 0.1436317987 0.1483433184 0.1529815429)
5(0.1338874257 0.1386824501 0.1434774697 0.1481267602 0.1526807065)
5(0.1337948351 0.1385560719 0.143295076 0.1478689763 0.152321583)
5(0.1337118016 0.1384096699 0.1430821791 0.1475599185 0.1518911258)
5(0.1336304767 0.1382419962 0.1428345395 0.1471920755 0.151376453)
5(0.13354358 0.1380536822 0.1425488472 0.1467569803 0.1507652697)
5(0.1334430109 0.1378440417 0.1422205035 0.1462467091 0.150045387)
5(0.1333211749 0.1376142415 0.1418460236 0.1456531988 0.1492046444)
5(0.133172077 0.1373648156 0.1414215379 0.1449687025 0.1482308868)
)


60
(
5(0.1397041899 0.1450495035 0.14846615 0.152956676 0.1570325216)
5(0.1390580678 0.1439486316 0.1484205905 0.1527838812 0.1573875237)
5(0.13863427 0.1433021794 0.1481609352 0.1525131164 0.1573600465)
5(0.1382917815 0.1429050365 0.1477795567 0.1521854959 0.1570752729)
5(0.137905248 0.1425663082 0.1473621735 0.1518389646 0.1566584367)
5(0.1375147197 0.1422429688 0.1469955484 0.1515201993 0.1562509959)
5(0.1372069903 0.1419724845 0.1467160631 0.151266815 0.1559705667)
5(0.136966282 0.1417323357 0.1465027 0.1510590374 0.1557800063)
5(0.1367525798 0.1415134679 0.1463193324 0.1508721919 0.1556176925)
5(0.1365440844 0.1413071344 0.1461338285 0.150687975 0.1554426804)
5(0.1363404233 0.1411105307 0.1459441589 0.1505065643 0.1552602762)
5(0.1361445581 0.14092458 0.1457587661 0.1503326037 0.1550824259)
5(0.1359604781 0.1407491889 0.1455848775 0.1501695565 0.1549191856)
5(0.1357890194 0.1405836041 0.1454245861 0.1500165497 0.1547693253)
5(0.1356271933 0.1404257456 0.1452729053 0.1498709577 0.154627933)
5(0.1354721953 0.1402750999 0.1451269059 0.1497314869 0.1544909309)
5(0.1353229677 0.1401303332 0.1449854954 0.1495965822 0.1543575933)
5(0.1351793529 0.1399912928 0.1448494775 0.1494660822 0.1542282243)
5(0.1350412884 0.139857229 0.1447184193 0.1493386728 0.1541031195)
5(0.1349085942 0.1397278488 0.1445923972 0.1492155511 0.1539820569)
5(0.1347808951 0.1396031851 0.1444710306 0.1490964309 0.1538646142)
5(0.1346578467 0.1394823537 0.1443533158 0.1489825731 0.1537504054)
5(0.134539142 0.1393659529 0.1442395582 0.1488728303 0.1536389053)
5(0.1344245056 0.1392536714 0.1441287697 0.1487657755 0.1535295348)
5(0.1343136876 0.1391446732 0.1440204312 0.1486602568 0.1534217224)
5(0.1342064529 0.1390392349 0.1439149111 0.1485544497 0.1533149541)
5(0.1341025935 0.1389360239 0.1438114982 0.1484492275 0.1532087545)
5(0.1340019116 0.138835421 0.1437099025 0.1483459734 0.1531026233)
5(0.1339042343 0.1387374768 0.1436110174 0.148244234 0.1529960248)
5(0.133809423 0.1386417385 0.1435130422 0.1481424796 0.152888488)
5(0.1337173481 0.1385472809 0.1434156025 0.1480408698 0.1527795544)
5(0.1336278015 0.1384543394 0.1433183553 0.1479374956 0.1526689363)
5(0.1335406632 0.1383625856 0.1432209618 0.1478323312 0.1525567477)
5(0.1334557916 0.1382710673 0.1431223941 0.1477254414 0.1524435347)
5(0.1333722978 0.13817958 0.1430226039 0.1476165411 0.1523284942)
5(0.1332895298 0.1380880345 0.1429212665 0.1475044518 0.1522084011)
5(0.1332074988 0.1379954058 0.1428163838 0.1473888254 0.1520798017)
5(0.1331257238 0.1379016081 0.1427080743 0.1472693743 0.1519448254)
5(0.1330435535 0.1378054316 0.1425967325 0.1471462482 0.1518163093)
5(0.1329604259 0.1377060981 0.1424823042 0.1470193644 0.1517082505)
5(0.1328755608 0.1376031771 0.1423640115 0.1468907292 0.1516276033)
5(0.1327877258 0.1374964112 0.1422389693 0.1467698004 0.1515625742)
5(0.1326957713 0.1373854265 0.1421042724 0.1466649794 0.1514984181)
5(0.1325981116 0.1372697067 0.1419596205 0.1465825452 0.1514225144)
5(0.1324934219 0.1371466295 0.1418145557 0.1465110165 0.1513331603)
5(0.1323814649 0.1370125912 0.1416818513 0.1464369742 0.1512322052)
5(0.1322618566 0.136866453 0.141571079 0.1463494488 0.1511209682)
5(0.1321337765 0.1367172874 0.1414743459 0.1462458378 0.1509944243)
5(0.1319965461 0.1365804838 0.1413798696 0.1461251214 0.1508451091)
5(0.1318507489 0.1364670749 0.1412757688 0.1459881282 0.1506657496)
5(0.131704359 0.1363678545 0.1411567244 0.1458288225 0.1504505002)
5(0.1315680293 0.1362684424 0.141019102 0.1456427601 0.1501941981)
5(0.13145126 0.1361549132 0.1408599442 0.1454218021 0.1498913102)
5(0.1313523691 0.1360233231 0.1406725463 0.145161816 0.1495316587)
5(0.1312633177 0.1358722653 0.1404571844 0.1448514339 0.1491024181)
5(0.1311764805 0.1357012126 0.1402079222 0.1444839341 0.148590965)
5(0.131084914 0.1355100527 0.1399212317 0.1440511978 0.1479853803)
5(0.1309806902 0.1352991011 0.1395941685 0.143545304 0.1472738724)
5(0.1308564886 0.1350691155 0.1392222911 0.1429586198 0.1464446836)
5(0.1307069082 0.1348211592 0.1388026206 0.1422840994 0.1454860626)
)


60
(
5(0.1386501747 0.1438647179 0.1471039814 0.1513887087 0.1553948979)
5(0.1377906199 0.1425526758 0.1468948208 0.1510929967 0.1556021376)
5(0.1372445321 0.141786428 0.1465219262 0.1507341813 0.1554749947)
5(0.1368313027 0.1413210343 0.1460639205 0.1503428075 0.1551238907)
5(0.1363885938 0.1409288058 0.1455933135 0.1499472263 0.1546593061)
5(0.1359470397 0.1405552087 0.1451833762 0.1495852621 0.1542106796)
5(0.135594129 0.1402406918 0.1448621349 0.1492923399 0.1538914425)
5(0.1353118273 0.1399599966 0.1446092485 0.1490477883 0.15366429)
5(0.1350591467 0.1397037669 0.1443900888 0.1488269586 0.1534679748)
5(0.1348145966 0.1394626756 0.1441712315 0.1486109549 0.153261668)
5(0.1345773831 0.1392335971 0.1439506913 0.1484001084 0.1530501938)
5(0.1343499595 0.1390169175 0.1437356393 0.1481979831 0.1528449921)