/*--------------------------------*- C++ -*----------------------------------*\
| =========                 |                                                 |
| \\      /  F ield         | OpenFOAM: The Open Source CFD Toolbox           |
|  \\    /   O peration     | Version:  2.3.1                                 |
|   \\  /    A nd           | Web:      www.OpenFOAM.org                      |
|    \\/     M anipulation  |                                                 |
\*---------------------------------------------------------------------------*/
FoamFile
{
    version     2.0;
    format      ascii;
    class       dictionary;
    location    "constant";
    object      DPSE2;
}
// * * * * * * * * * * * * * * * * * * * * * * * * * * * * * * * * * * * * * //

DPSE2_table
60
(

60
(
5(0.1314470169 0.2248663779 0.1176075934 0.1621396174 0.1100385858)
5(0.1205990095 0.2085316232 0.1038801148 0.1544342358 0.08553369548)
5(0.1312451667 0.2259645978 0.1030202601 0.1540827449 0.04545049206)
5(0.1711352539 0.2435909208 0.1133129143 0.1564326278 0.09657986189)
5(0.1774096919 0.2606574407 0.1219670577 0.1802291162 0.08467800792)
5(0.1670054504 0.2776682888 0.1232659269 0.1925391258 0.07538985825)
5(0.1674135396 0.2957154521 0.1362948908 0.1997382958 0.09542072081)
5(0.1856461917 0.3140078112 0.1529350496 0.2170228619 0.07790051902)
5(0.2066793745 0.3322277413 0.1657898592 0.232610369 0.09523184799)
5(0.2279950025 0.3506793123 0.182670174 0.2450757062 0.1039244842)
5(0.2426832248 0.3689883529 0.1958940764 0.2585107318 0.1087964685)
5(0.2441543868 0.3845997669 0.2068359297 0.2702853529 0.1085827416)
5(0.2481875727 0.4007891843 0.2180501554 0.2819685022 0.1118571056)
5(0.2572510343 0.4159134069 0.2283719201 0.2871281937 0.1108459663)
5(0.271092923 0.4303879225 0.2385716889 0.2949463358 0.1070032656)
5(0.2819274908 0.4439085058 0.2472039771 0.3004348352 0.1037689137)
5(0.28999987 0.4534552348 0.2521600008 0.3000597335 0.09556877155)
5(0.294953712 0.4594211471 0.2518118686 0.2959281115 0.08126745572)
5(0.297807663 0.4613832488 0.2491077771 0.2851527545 0.06279956389)
5(0.2967619044 0.4586572318 0.2423054266 0.2715561788 0.03536587777)
5(0.2927718437 0.4523237808 0.2287547271 0.2483987728 0.002059070862)
5(0.2833259753 0.4409112683 0.2109969082 0.2203753488 -0.03801880377)
5(0.2693731457 0.4238866056 0.1874409886 0.1923682785 -0.07658681175)
5(0.2520054655 0.4000893698 0.157061771 0.1551259566 -0.1273865279)
5(0.227140523 0.3706546343 0.1196409576 0.1110178751 -0.1818227113)
5(0.1960679098 0.3342396812 0.07575547784 0.05932852725 -0.245997577)
5(0.1564008869 0.2868914422 0.01807315829 -0.002913945181 -0.3166046629)
5(0.108325991 0.2288069484 -0.044788877 -0.07377945265 -0.39626017)
5(0.0498506302 0.1624679694 -0.121979601 -0.1571147786 -0.4825322612)
5(-0.01980699624 0.08541433868 -0.209539338 -0.2542101676 -0.5804066878)
5(-0.1020494191 -0.004508385161 -0.3053244466 -0.3517637306 -0.6804705539)
5(-0.1991574575 -0.1117740856 -0.4214525257 -0.4765223258 -0.8133116986)
5(-0.3125759902 -0.2311411388 -0.5447632124 -0.5999168909 -0.9039285339)
5(-0.4417504113 -0.3647821353 -0.6779525601 -0.7378850876 -1.052602516)
5(-0.5898292089 -0.5212700369 -0.8359108653 -0.8814008752 -1.174830301)
5(-0.7595106512 -0.6828378706 -0.9816903388 -1.028303859 -1.297991066)
5(-0.9501202499 -0.8873754666 -1.20351362 -1.202515926 -1.415446656)
5(-1.16371174 -1.083248205 -1.39817899 -1.352652603 -1.615019538)
5(-1.395096701 -1.305826431 -1.583663606 -1.521571774 -1.639900283)
5(-1.634240815 -1.535462521 -1.762584608 -1.66018305 -2.007232952)
5(-1.905150292 -1.791314894 -1.995573638 -1.807249737 -2.014657404)
5(-2.194344506 -2.038824285 -2.198331519 -2.008131702 -1.974786495)
5(-2.484128545 -2.298790402 -2.401385487 -2.290987273 -1.879522396)
5(-2.760815492 -2.490036213 -2.430995277 -2.269847776 -1.748775945)
5(-3.016800582 -2.699216197 -2.579506098 -2.177651222 -1.618331149)
5(-3.27654127 -2.839094379 -2.708923047 -2.033598232 -1.450190684)
5(-3.480746988 -2.987820398 -2.903489647 -1.856591029 -1.26248788)
5(-3.625201552 -3.175840744 -2.841991678 -1.660266317 -1.063525687)
5(-3.709822769 -3.108425638 -2.636205477 -1.442003681 -0.8650013105)
5(-3.714825026 -3.165122885 -2.372591594 -1.208285919 -0.6759688202)
5(-3.644723374 -2.897171433 -2.078739838 -0.9738484904 -0.4958178018)
5(-3.622454882 -2.556109669 -1.766857168 -0.7475334756 -0.3295302809)
5(-3.352017623 -2.182895676 -1.450775743 -0.5252253748 -0.1691294148)
5(-2.912705593 -1.790878244 -1.134732818 -0.3059524246 -0.01863719564)
5(-2.376094927 -1.398779057 -0.8232116751 -0.1074335 0.1186767971)
5(-1.797846169 -1.000777384 -0.510664652 0.08165491036 0.2396430695)
5(-1.176863395 -0.5972084679 -0.1986583595 0.2581905577 0.3263765098)
5(-0.5962018323 -0.1540827202 0.1197039812 0.4133128837 0.3757978902)
5(-0.0998449658 0.2801201757 0.5261444788 0.3619304727 0.3391578966)
5(0.02909486327 0.3868463088 0.7004175023 0.9140733953 0.9584249824)
)


60
(
5(0.1184798664 0.2092847253 0.105328174 0.1485107568 0.0979470982)
5(0.1065996038 0.2046357347 0.0930303587 0.1436829673 0.07692163242)
5(0.1220553433 0.2062443327 0.08963447213 0.1444701374 0.05747598884)
5(0.1579980288 0.2163194617 0.09240474125 0.148124115 0.07271530593)
5(0.1503064981 0.2292268606 0.09775525331 0.1590242064 0.06714252449)
5(0.136439222 0.2418548798 0.1023763455 0.1667069293 0.06202030083)
5(0.1371111443 0.254720165 0.1092262155 0.1723391252 0.07035166833)
5(0.1512448455 0.2669385671 0.1171743264 0.1811364394 0.05961909308)
5(0.1634242812 0.2787424932 0.124603991 0.1889699443 0.06574779285)
5(0.1772462848 0.2904465234 0.1330830683 0.1951412101 0.06691724848)
5(0.1873042614 0.3019469185 0.1400286446 0.2009450313 0.06590979988)
5(0.1902628754 0.3118638203 0.1457298567 0.2050408949 0.06160626292)
5(0.1948997315 0.3214096971 0.1506706205 0.20847103 0.05785891529)
5(0.2009782979 0.3299187622 0.1542600697 0.2078989294 0.05097514484)
5(0.2100919463 0.3373617254 0.1571698086 0.2075123609 0.04158397457)
5(0.2164410068 0.3434914488 0.158199422 0.204338995 0.03117049288)
5(0.2211972084 0.3465910868 0.1563403651 0.1971161447 0.0168286237)
5(0.2235613217 0.3469289867 0.1506653601 0.1864848894 -0.002223875541)
5(0.2238264447 0.3442445041 0.1423666433 0.1709608561 -0.02570085621)
5(0.2211248113 0.3375695209 0.130504443 0.1525376576 -0.05444688999)
5(0.2160323513 0.3279439963 0.1141816097 0.1280932634 -0.08749103639)
5(0.2073177273 0.3146136092 0.09448583676 0.09858225504 -0.1268340655)
5(0.1951203295 0.2965493716 0.06956166428 0.06747278716 -0.1659723329)
5(0.1789975574 0.2734605111 0.03940345464 0.02951654471 -0.2142257109)
5(0.1580653006 0.2453160834 0.00346278178 -0.01390399694 -0.2656957814)
5(0.1317390563 0.2115291825 -0.03779871634 -0.06375571172 -0.324894582)
5(0.0991767343 0.1695073772 -0.08914549347 -0.1211585325 -0.3900696212)
5(0.05973766192 0.1197218634 -0.1448641309 -0.1863368436 -0.4622903545)
5(0.01306248821 0.06288591019 -0.211285009 -0.2607461576 -0.5408419724)
5(-0.04265017391 -0.002263984786 -0.2867124351 -0.3458599395 -0.6292411083)
5(-0.1069544317 -0.07735940856 -0.3687064459 -0.4332939409 -0.7208467323)
5(-0.1824074849 -0.1649687611 -0.465625602 -0.5396999328 -0.8351031012)
5(-0.2699919346 -0.2625506154 -0.5696373688 -0.6492651297 -0.9268015308)
5(-0.3694282148 -0.3714031869 -0.6833872284 -0.7699427828 -1.05771808)
5(-0.4820960572 -0.4965677678 -0.8142799633 -0.8982494276 -1.175481975)
5(-0.6090697701 -0.6289376037 -0.9425054299 -1.033337798 -1.298420528)
5(-0.753701258 -0.7888629451 -1.118539002 -1.188567285 -1.422249437)
5(-0.9114536963 -0.9485470763 -1.283611488 -1.334319402 -1.596317225)
5(-1.084548078 -1.130023852 -1.448335868 -1.494865723 -1.67110911)
5(-1.264710165 -1.317448613 -1.615398764 -1.642501773 -1.95185448)
5(-1.464091701 -1.52504386 -1.819351577 -1.798842086 -2.021598404)
5(-1.681945654 -1.732598793 -2.007244903 -1.990063611 -2.066200745)
5(-1.897796063 -1.951326037 -2.198824056 -2.233140821 -2.073000464)
5(-2.109784945 -2.137363933 -2.294259119 -2.296002581 -2.047736331)
5(-2.312910989 -2.327562368 -2.453144359 -2.312670296 -2.013140791)
5(-2.520018607 -2.481766991 -2.597581136 -2.287934045 -1.946782676)
5(-2.694620208 -2.635057336 -2.784496974 -2.230692588 -1.852384192)
5(-2.83376555 -2.803038691 -2.809902077 -2.144703082 -1.735199286)
5(-2.931624438 -2.816165916 -2.731297723 -2.028161333 -1.602954321)
5(-2.982342583 -2.907707419 -2.599851017 -1.886480007 -1.464368039)
5(-2.982816181 -2.784257287 -2.430214771 -1.726405391 -1.325541755)
5(-3.011272267 -2.598651312 -2.230777739 -1.553489745 -1.183593754)
5(-2.87859342 -2.370423538 -2.005819081 -1.373760224 -1.041240523)
5(-2.631221401 -2.112524529 -1.765790099 -1.190761701 -0.9048425542)
5(-2.308853424 -1.828092391 -1.514721679 -1.010881383 -0.7747012114)
5(-1.939288199 -1.527457344 -1.256648795 -0.833145843 -0.6545124846)
5(-1.527668848 -1.215841613 -0.9934971738 -0.6625871401 -0.5522247729)
5(-1.126738312 -0.876285819 -0.7241210263 -0.5064883374 -0.4715247485)
5(-0.7657818119 -0.5503563436 -0.4234654564 -0.4518109966 -0.4289285225)
5(-0.578960578 -0.403635519 -0.286219629 -0.1808867718 -0.1222364262)
)


60
(
5(0.09115306596 0.1663262048 0.0784230098 0.1140614847 0.07078638792)
5(0.07318615637 0.1513219899 0.06310768025 0.1065591287 0.05077714494)
5(0.06756223058 0.1478801503 0.05446310354 0.1036035079 0.03861646761)
5(0.06934785378 0.1523685264 0.05116329568 0.1041162754 0.03287096263)
5(0.07266227193 0.1586647197 0.0515723808 0.1064751496 0.03082408933)
5(0.07598717667 0.164430829 0.05334002778 0.1088208675 0.0289845941)
5(0.08041567258 0.1706038729 0.05457478054 0.1105814771 0.02593994704)
5(0.0856359043 0.1766432009 0.05572015809 0.1116807844 0.02180411645)
5(0.09114554543 0.182555281 0.05697569614 0.1121312666 0.01674138433)
5(0.09666134873 0.1880565382 0.05794421297 0.1116910809 0.01089624748)
5(0.1024825935 0.1929794706 0.05851048796 0.1103106409 0.004252562618)
5(0.1078873959 0.1974486764 0.05834886354 0.107472023 -0.003591795603)
5(0.1132197098 0.2010201668 0.05733129798 0.1036339499 -0.01312499925)
5(0.1181560264 0.2037303148 0.05518667585 0.0981593376 -0.02429117912)
5(0.1226631518 0.2050971435 0.05183444037 0.09092508086 -0.03718175313)
5(0.1262793497 0.2055486506 0.0469686249 0.08168022447 -0.05216109275)
5(0.1290560496 0.2041973892 0.04047941849 0.07031139258 -0.06952959993)
5(0.1308049344 0.201214586 0.03201508232 0.05700460971 -0.08952310888)
5(0.1310045703 0.1965668088 0.0216556041 0.04046123335 -0.1121796979)
5(0.1300132035 0.1897437985 0.008718733965 0.02142436922 -0.1373182329)
5(0.1273371308 0.1802412387 -0.006593866034 -0.0004134824447 -0.1653633694)
5(0.1223146506 0.1683774998 -0.02463341294 -0.02577536726 -0.1975841505)
5(0.1147830092 0.1537454254 -0.0459680906 -0.05467772805 -0.2325843311)
5(0.1054108229 0.1362856178 -0.07075874123 -0.08735832183 -0.2718685017)
5(0.09280187782 0.1148381015 -0.0990771886 -0.1240035826 -0.3149323171)
5(0.07701062926 0.08982009855 -0.131499684 -0.1647025871 -0.3620154364)
5(0.0577472292 0.06086387785 -0.1685359559 -0.2105855014 -0.413805481)
5(0.03483712406 0.02735527794 -0.2099238544 -0.2615932654 -0.4714720597)
5(0.007423038267 -0.01120142862 -0.2565871456 -0.3181071276 -0.5330911875)
5(-0.02466913465 -0.05516658572 -0.309305151 -0.3806442753 -0.6024919149)
5(-0.06123972717 -0.1048264185 -0.3676966326 -0.4494431975 -0.6771950225)
5(-0.1034726775 -0.1606410444 -0.4332976557 -0.5251207508 -0.7597153098)
5(-0.1517091848 -0.2231767395 -0.5057810137 -0.6097114861 -0.8490419926)
5(-0.2056459776 -0.293596838 -0.5865668665 -0.7007319937 -0.9471280218)
5(-0.266623032 -0.3707224108 -0.6756007722 -0.8018731624 -1.0532317)
5(-0.3336445039 -0.4575694019 -0.7731628896 -0.9134001685 -1.167575336)
5(-0.4078201125 -0.5518090957 -0.8816416506 -1.034382883 -1.290303584)
5(-0.489904603 -0.6562864067 -0.9996152806 -1.165287874 -1.420178561)
5(-0.5779292589 -0.7714419144 -1.129804359 -1.306033342 -1.55747514)
5(-0.6735709471 -0.8941691108 -1.271589041 -1.455984731 -1.700542342)
5(-0.777422463 -1.030989463 -1.423975402 -1.614178385 -1.848476837)
5(-0.8870640018 -1.17447317 -1.58305183 -1.779149241 -1.997081252)
5(-1.002280944 -1.327583165 -1.749026012 -1.946477658 -2.134788123)
5(-1.121762254 -1.48884885 -1.916189576 -2.11060142 -2.255629078)
5(-1.248563766 -1.649594687 -2.081850827 -2.264781783 -2.357682686)
5(-1.377614494 -1.808290471 -2.24015938 -2.398022486 -2.43481899)
5(-1.507020043 -1.956774148 -2.390143045 -2.502769173 -2.478098445)
5(-1.634539494 -2.098895937 -2.514705855 -2.575521575 -2.487494525)
5(-1.75372965 -2.223574332 -2.609496178 -2.611723979 -2.463536432)
5(-1.869830619 -2.32645085 -2.666037908 -2.60895517 -2.409952469)
5(-1.969151455 -2.398647493 -2.675178225 -2.563849252 -2.333743007)
5(-2.053105497 -2.431800972 -2.638869327 -2.482359461 -2.235493382)
5(-2.11358254 -2.416715118 -2.555616003 -2.369495421 -2.124443681)
5(-2.137340177 -2.353148123 -2.431393982 -2.236349934 -2.001958568)
5(-2.114925451 -2.238214093 -2.273637203 -2.083756555 -1.875331833)
5(-2.039234587 -2.086601067 -2.091877912 -1.920730213 -1.748436106)
5(-1.913292245 -1.907149274 -1.893585015 -1.75330881 -1.615861881)
5(-1.744096152 -1.708500536 -1.687762287 -1.581945617 -1.483811895)
5(-1.544388644 -1.509473209 -1.496233817 -1.410786631 -1.353637531)
5(-1.283994832 -1.371530471 -1.407076798 -1.316432772 -1.397947198)
)


60
(
5(0.06645723195 0.1275893446 0.05276217114 0.0801271059 0.04363306779)
5(0.04600277677 0.1097424404 0.03635461515 0.07137255659 0.02397301289)
5(0.03808370226 0.1039802167 0.02650184207 0.06697492415 0.01163406465)
5(0.03835737859 0.1066864566 0.02215673226 0.06614044828 0.005152528191)
5(0.04056624005 0.1116312494 0.02176941561 0.06738987781 0.002109972386)
5(0.04333715154 0.1163982876 0.02311963378 0.0689688867 -0.0004266626715)
5(0.04733962671 0.121919615 0.02425620268 0.0703196034 -0.003722010427)
5(0.05219469622 0.1275981777 0.02544819881 0.07124934214 -0.007681512748)
5(0.05743356683 0.1333890961 0.02703204699 0.07189521371 -0.01218388604)
5(0.06314892234 0.139078766 0.02859895458 0.07206909035 -0.01686383409)
5(0.06912673396 0.1445944715 0.0299716991 0.07151666434 -0.02259890969)
5(0.07523604506 0.1497511387 0.03085476715 0.07011873919 -0.02900112392)
5(0.0812659937 0.1544079649 0.03131975093 0.06772486263 -0.03660683415)
5(0.08709126403 0.1584030699 0.03095822758 0.06416696517 -0.04543971556)
5(0.09282672474 0.1617877797 0.02992757373 0.05908950345 -0.05546145658)
5(0.09817878007 0.1643776726 0.02771728737 0.05300135088 -0.06711408316)
5(0.1026298652 0.1658555663 0.02439009783 0.04530807169 -0.08056295189)
5(0.1064918674 0.166238864 0.01964171109 0.03608202607 -0.09561656311)
5(0.1096247608 0.1652261605 0.0136062753 0.02480302879 -0.1121694485)
5(0.1116674089 0.1628085952 0.005891012148 0.01186545946 -0.131214743)
5(0.11265404 0.1588566228 -0.003807307123 -0.003505130571 -0.1526669079)
5(0.112241234 0.1528862215 -0.01552189144 -0.02145159078 -0.1763339261)
5(0.1100973083 0.1450315736 -0.0293191905 -0.04179903599 -0.2027767236)
5(0.1063318701 0.134783849 -0.04551209753 -0.06473414163 -0.2328689956)
5(0.1002282957 0.1222136863 -0.06457721144 -0.09121183517 -0.2655283851)
5(0.09272697875 0.1065365536 -0.08684408575 -0.1204590526 -0.3021985022)
5(0.08224156051 0.08923971544 -0.1120645091 -0.1543112814 -0.3427688726)
5(0.06912367137 0.06784877389 -0.1409305987 -0.1915360417 -0.3876115932)
5(0.05279528281 0.04357052052 -0.1735744086 -0.2339133694 -0.4367990684)
5(0.03480596063 0.01499447745 -0.2099703137 -0.2802874381 -0.4907835388)
5(0.01246993573 -0.01790993887 -0.2516872361 -0.3324879176 -0.5509099975)
5(-0.01318443628 -0.05424461621 -0.2976334958 -0.3905016546 -0.6176887974)
5(-0.04159027136 -0.09565062403 -0.3498504052 -0.4547686606 -0.6914774149)
5(-0.07355250285 -0.1417582164 -0.4082297629 -0.5263753603 -0.7724370165)
5(-0.1094560815 -0.193154254 -0.4720083428 -0.6056918431 -0.86247119)
5(-0.1502781393 -0.2510773576 -0.5439464651 -0.6932765277 -0.9606450982)
5(-0.1926854565 -0.3139473072 -0.6238008453 -0.7898447938 -1.067745697)
5(-0.240933061 -0.3835929328 -0.71248018 -0.8977371641 -1.184820314)
5(-0.291341331 -0.4613672909 -0.8123977045 -1.01630192 -1.314474418)
5(-0.3463082889 -0.5461048363 -0.9200716696 -1.146150844 -1.454399505)
5(-0.4065302813 -0.6408807831 -1.039373238 -1.288446482 -1.607196767)
5(-0.4677245135 -0.7409524141 -1.17026995 -1.441143649 -1.765054309)
5(-0.5356181005 -0.8512351282 -1.309463209 -1.605067536 -1.927068125)
5(-0.6066158016 -0.9719391161 -1.456394839 -1.775715968 -2.085281906)
5(-0.6848746389 -1.100852474 -1.612321167 -1.948627713 -2.232937008)
5(-0.7728609753 -1.233541064 -1.772290439 -2.117219235 -2.363402136)
5(-0.8689098363 -1.37061654 -1.933354714 -2.268430586 -2.471278728)
5(-0.9771859324 -1.51126169 -2.088385075 -2.399749477 -2.550220391)
5(-1.093960915 -1.657238048 -2.229062179 -2.50602034 -2.596459133)
5(-1.219323737 -1.795545964 -2.347540302 -2.573328857 -2.60528323)
5(-1.353941401 -1.928086792 -2.43235331 -2.600116249 -2.575548091)
5(-1.491934912 -2.043117067 -2.475424714 -2.583877293 -2.515242434)
5(-1.630727247 -2.127643588 -2.476567308 -2.526025507 -2.429811444)
5(-1.757472865 -2.170954026 -2.431244775 -2.43186622 -2.314057901)
5(-1.862349796 -2.172607296 -2.341318731 -2.304871758 -2.183654577)
5(-1.919633761 -2.125399423 -2.21099268 -2.152268394 -2.040924518)
5(-1.928743859 -2.032625091 -2.051702709 -1.982699196 -1.886239405)
5(-1.875612676 -1.903131307 -1.877659992 -1.803056651 -1.725861422)
5(-1.748976631 -1.740276993 -1.706340787 -1.634370973 -1.574197596)
5(-1.51997877 -1.608330038 -1.596558107 -1.472908415 -1.605260331)
)


60
(
5(0.04399768506 0.0924005259 0.02883369947 0.04823850615 0.01765467973)
5(0.02125386417 0.07208981869 0.01136738375 0.03810474705 -0.002322174102)
5(0.01145077341 0.0643678122 0.0005117797195 0.03244812716 -0.01519804453)
5(0.01017370466 0.06557406513 -0.004582473243 0.03055106753 -0.02239193843)
5(0.01121383352 0.06941381453 -0.005350051743 0.03105651982 -0.02610973236)
5(0.01304018669 0.07339979364 -0.004111710704 0.03223444447 -0.02890239839)
5(0.01626984849 0.07841376736 -0.002777630508 0.0335876676 -0.03206312207)
5(0.02043561654 0.08387211871 -0.00107376265 0.03492632739 -0.03542264734)
5(0.02521550164 0.08971026652 0.001144946834 0.03616009257 -0.03897532408)
5(0.03058986262 0.09582069853 0.003710902169 0.03736142101 -0.04260630937)
5(0.03634247642 0.1018924702 0.006313736407 0.03818802607 -0.04661440479)
5(0.04255363958 0.1080228228 0.008803004215 0.0384985119 -0.05118713022)
5(0.04876289855 0.1138752356 0.01101549622 0.03820389664 -0.05627868197)
5(0.05506089006 0.1195619728 0.01300742041 0.03721062545 -0.06261458)
5(0.06116356961 0.1247650888 0.01438312841 0.03518731882 -0.06952243134)
5(0.06731283355 0.1293075432 0.01521167902 0.03238275251 -0.07769078913)
5(0.07309950355 0.1334453859 0.0152247621 0.02862232511 -0.08680212105)
5(0.07824437306 0.1369040978 0.01455943958 0.02333277489 -0.09705336491)
5(0.08323703796 0.139410724 0.01271473029 0.01745829717 -0.109112691)
5(0.0870912049 0.1410846426 0.009886037492 0.009951828552 -0.1221151307)
5(0.09035814887 0.1417812385 0.005718018665 0.0006816710659 -0.137455464)
5(0.09351037387 0.1410871159 0.0002301623857 -0.01015767418 -0.1541179742)
5(0.09488177486 0.1389286078 -0.007056763988 -0.02261568974 -0.1732090178)
5(0.09447400734 0.1350214281 -0.01578463837 -0.03744637434 -0.1946041936)
5(0.09355047805 0.1302112382 -0.02651136636 -0.05498530238 -0.2187055126)
5(0.09096380463 0.1231275371 -0.03971229903 -0.07472706171 -0.2452171094)
5(0.08676626542 0.113598417 -0.05452365427 -0.0971090386 -0.2752575885)
5(0.08053460412 0.1021514191 -0.07254365049 -0.12269736 -0.3079641209)
5(0.07275526103 0.08878393381 -0.09281866682 -0.1517860115 -0.3464085026)
5(0.06324101473 0.07258866469 -0.1163345261 -0.1845433514 -0.387482438)
5(0.05096826996 0.05372038865 -0.1430869281 -0.2213546645 -0.4343872434)
5(0.03760642414 0.03262713726 -0.1736877201 -0.2630387815 -0.4859959513)
5(0.02229729948 0.007097357561 -0.2078037053 -0.3089267264 -0.5437529999)
5(0.004470717375 -0.01964099844 -0.246776924 -0.3623396045 -0.60746677)
5(-0.01433452305 -0.0505765377 -0.2895681243 -0.4207300577 -0.6806460068)
5(-0.0361914657 -0.08470066352 -0.3385493706 -0.4856978494 -0.7613297973)
5(-0.05791710513 -0.1234732792 -0.3935588985 -0.5596772971 -0.8504684405)
5(-0.08149739667 -0.1666175716 -0.4551754258 -0.6417980359 -0.950274619)
5(-0.1059472533 -0.2143608644 -0.5243713676 -0.7346886886 -1.062612737)
5(-0.1320604721 -0.2663888564 -0.60207008 -0.8392024892 -1.189859337)
5(-0.1574412449 -0.3237980466 -0.6886306857 -0.9569902437 -1.326915989)
5(-0.1868311874 -0.3869920745 -0.7872149978 -1.086192758 -1.482167413)
5(-0.2160656216 -0.4572101577 -0.8931155047 -1.230330423 -1.644419106)
5(-0.2504365479 -0.5389392933 -1.012956971 -1.389646265 -1.81470779)
5(-0.2899349165 -0.6274573991 -1.143093442 -1.558727377 -1.982188789)
5(-0.34117785 -0.7269211288 -1.286852608 -1.733899659 -2.148075029)
5(-0.4004893259 -0.8388424899 -1.438127388 -1.908570079 -2.303145803)
5(-0.482438785 -0.9588167921 -1.599171682 -2.071910875 -2.436224038)
5(-0.5790162197 -1.091845968 -1.762240391 -2.221993085 -2.545358096)
5(-0.6845302877 -1.237682449 -1.916733109 -2.351007519 -2.620319183)
5(-0.8198096537 -1.398979487 -2.060206939 -2.448664267 -2.65598193)
5(-0.9669580497 -1.557555227 -2.182319367 -2.506857842 -2.654128787)
5(-1.13033095 -1.719668863 -2.273673883 -2.526374516 -2.611279374)
5(-1.297912091 -1.863325566 -2.332323268 -2.498188996 -2.531350475)
5(-1.474324719 -1.982928324 -2.346603024 -2.430283504 -2.419935336)
5(-1.626131926 -2.067002872 -2.31586348 -2.324107819 -2.28192305)
5(-1.758977629 -2.098100079 -2.23685652 -2.187260545 -2.126758235)
5(-1.835166329 -2.079060231 -2.124985143 -2.037495901 -1.96800385)
5(-1.832251652 -1.984306475 -1.988755421 -1.898166495 -1.81706273)
5(-1.622673107 -1.786867156 -1.785527705 -1.770637633 -1.744244435)
)


60
(
5(0.02361623776 0.06064620204 0.006734633714 0.01880716507 -0.006712979521)
5(-0.002000373409 0.0372514791 -0.01225351876 0.007003729878 -0.02742821216)
5(-0.01447762742 0.02676126017 -0.02462343052 -0.0001273266367 -0.04114672353)
5(-0.01821530716 0.02555069852 -0.03101027243 -0.003280137859 -0.04908211378)
5(-0.01954054988 0.02717439229 -0.03289079871 -0.003770129904 -0.0534119068)
5(-0.01997417481 0.02910584968 -0.03241926315 -0.003228815888 -0.05652017963)
5(-0.01896318336 0.03226704184 -0.03173005062 -0.002253073333 -0.05958040254)
5(-0.01700906931 0.03603070897 -0.03042927716 -0.0009450717266 -0.06249835345)
5(-0.01437563592 0.04026112517 -0.02845175162 0.0005960222243 -0.06530485429)
5(-0.01118644303 0.04499080389 -0.02595213611 0.00215253241 -0.0680606578)
5(-0.007421451229 0.04991991152 -0.02321226362 0.003928013567 -0.07054553408)
5(-0.003282441218 0.05504444279 -0.0202304538 0.005468310939 -0.07344330861)
5(0.001047841337 0.06010497986 -0.01744143652 0.006608142728 -0.07654531801)
5(0.005562660467 0.06510308786 -0.01458733492 0.007487678685 -0.08027021623)
5(0.009934136622 0.06984693194 -0.01215941245 0.007716974629 -0.08469018375)
5(0.01429751883 0.07432695002 -0.009862048786 0.007674697446 -0.08980866741)
5(0.01862186464 0.07847516369 -0.008199809451 0.006682200344 -0.09522293289)
5(0.02268353586 0.0821899982 -0.006654161558 0.005064923866 -0.1018999393)
5(0.02602932278 0.08516963101 -0.006132737224 0.00269411216 -0.1090048126)
5(0.02938656867 0.08790480442 -0.005924189484 -0.0005028845455 -0.1175543803)
5(0.0320384154 0.08990645981 -0.006515596312 -0.005038913497 -0.1268590148)
5(0.03394615497 0.09083394299 -0.008386084402 -0.01025758441 -0.1380504338)
5(0.03536120082 0.09085803607 -0.01133196457 -0.01718065564 -0.1507107646)
5(0.03527134836 0.09003438534 -0.01544963915 -0.02576019765 -0.1647415856)
5(0.03523481846 0.08761572436 -0.02089899887 -0.03559662383 -0.1814182283)
5(0.03321617602 0.08513022752 -0.02734130102 -0.047619015 -0.1997600428)
5(0.03006671942 0.07931064161 -0.03566836264 -0.06148791911 -0.2204940731)
5(0.02581685376 0.0727727786 -0.04713139816 -0.07774123422 -0.2439246724)
5(0.02208564159 0.06444687313 -0.05846163966 -0.0959935495 -0.2706932679)
5(0.01493855331 0.05515430574 -0.07269934796 -0.1189281917 -0.30038683)
5(0.00805675337 0.04392303183 -0.08919108077 -0.1422627261 -0.3356238777)
5(-0.001216717471 0.03026052592 -0.1089551845 -0.1700195461 -0.372505289)
5(-0.01040128212 0.01572961289 -0.1302421964 -0.2016470721 -0.4166124378)
5(-0.02081392168 -0.001349244631 -0.1541415905 -0.2383186209 -0.4648058899)
5(-0.03227010146 -0.02007670892 -0.1837595399 -0.2793041778 -0.521480412)
5(-0.04339555657 -0.03926623679 -0.2140215084 -0.3260372545 -0.584607198)
5(-0.05355780995 -0.06353753798 -0.2494838468 -0.3801117322 -0.6559581559)
5(-0.06408220071 -0.08779158381 -0.2901799164 -0.4393751515 -0.736060183)
5(-0.07291272284 -0.1138309396 -0.3353708584 -0.5065760634 -0.8262426009)
5(-0.07975537927 -0.1438005723 -0.3885143997 -0.5842783874 -0.9320628079)
5(-0.08673096392 -0.1752682002 -0.4463329423 -0.6744096573 -1.051072074)
5(-0.09213814447 -0.21141531 -0.5126848535 -0.7760742066 -1.184986961)
5(-0.09679704087 -0.2502630343 -0.5905116947 -0.8940886192 -1.335610941)
5(-0.1061769856 -0.2949462885 -0.6763685409 -1.026672342 -1.496398536)
5(-0.1201367942 -0.349466137 -0.7738069275 -1.175472891 -1.669364782)
5(-0.1404888395 -0.4123111125 -0.8853155065 -1.338213143 -1.847356296)
5(-0.1764011781 -0.4829167125 -1.012312442 -1.510825314 -2.024293123)
5(-0.2251955686 -0.5736977519 -1.156501634 -1.686306411 -2.192687739)
5(-0.2932297605 -0.681155104 -1.31179252 -1.861481859 -2.349303317)
5(-0.3747332998 -0.8102535893 -1.474394879 -2.029712891 -2.486354416)
5(-0.480255033 -0.9618506901 -1.643160354 -2.185255372 -2.592691392)
5(-0.6029402666 -1.127542513 -1.814178734 -2.319628742 -2.665102108)
5(-0.7451810041 -1.305615624 -1.976934961 -2.426278976 -2.691862567)
5(-0.9023482201 -1.48665174 -2.133711683 -2.496482423 -2.682229208)
5(-1.071233404 -1.66657002 -2.261468848 -2.52745636 -2.62713881)
5(-1.254962968 -1.842173199 -2.35954146 -2.517487531 -2.534028267)
5(-1.422017423 -1.989814562 -2.415567511 -2.467383932 -2.420701121)
5(-1.568844165 -2.09130973 -2.412080048 -2.387345672 -2.291239161)
5(-1.660776875 -2.105027859 -2.337637757 -2.290772537 -2.17684102)
5(-1.433716562 -1.805478152 -2.038434072 -2.223789545 -2.236700637)
)


60
(
5(0.005174625402 0.03213403339 -0.01353077345 -0.008068374401 -0.02930278608)
5(-0.02372999737 0.005169646877 -0.03455997497 -0.02169044536 -0.05079278299)
5(-0.03943427884 -0.008719304436 -0.04901050673 -0.03050774601 -0.06526505048)
5(-0.04621737427 -0.01312132382 -0.05731980575 -0.03508136599 -0.07367366081)
5(-0.05060792514 -0.01464162697 -0.06099791823 -0.03676514275 -0.07830651169)
5(-0.0542110701 -0.0157612013 -0.06224934505 -0.0371161719 -0.08141604077)
5(-0.05640898949 -0.01561599185 -0.06313495601 -0.03686212578 -0.08400011746)
5(-0.05767575785 -0.01480051311 -0.06334016566 -0.0359532635 -0.08634293678)
5(-0.05837471099 -0.01338216811 -0.06271196952 -0.03459884409 -0.08816332819)
5(-0.05846293564 -0.0115025444 -0.06141951765 -0.03284247889 -0.08951233216)
5(-0.05805566113 -0.009296977098 -0.05982978046 -0.03092760737 -0.09042275424)
5(-0.05736185828 -0.006916349977 -0.05790713144 -0.02869617984 -0.09124099115)
5(-0.05635783755 -0.004324661997 -0.05573020283 -0.02655009536 -0.09224184731)
5(-0.05520264916 -0.001985744243 -0.0537929357 -0.02462662138 -0.09318997006)
5(-0.05404838524 0.0005026493442 -0.05166087303 -0.02272033748 -0.09441769036)
5(-0.05294375795 0.002754878388 -0.049806899 -0.02128491952 -0.09603836926)
5(-0.05227330234 0.004715883813 -0.04808534456 -0.01994008583 -0.09797002032)
5(-0.05130429715 0.00638174266 -0.04680506418 -0.01923752054 -0.1006794997)
5(-0.05125665087 0.007771884689 -0.04546588832 -0.01854560467 -0.1032609146)
5(-0.05083372907 0.008432540993 -0.04486891782 -0.0187430582 -0.1066882641)
5(-0.05099420493 0.009272140033 -0.04448306579 -0.01924329158 -0.1108732168)
5(-0.05212212522 0.008890740785 -0.04525719563 -0.02087803209 -0.1157429693)
5(-0.05347082176 0.007895683842 -0.04640929882 -0.02374914377 -0.1224241868)
5(-0.05589984741 0.006394969544 -0.04829554425 -0.0271985459 -0.1299093801)
5(-0.05863501234 0.00357022077 -0.05207526146 -0.03176409976 -0.1382308133)
5(-0.06300407474 0.0001727224509 -0.05544626031 -0.03739486483 -0.1487900679)
5(-0.06746534346 -0.004967834696 -0.06111557768 -0.04463746007 -0.1611747579)
5(-0.07248923832 -0.01085528074 -0.06742415974 -0.05364541537 -0.1763430641)
5(-0.07886529929 -0.01724100498 -0.07505791452 -0.06471764718 -0.1929390478)
5(-0.08662380779 -0.02484582656 -0.08425153873 -0.07726186057 -0.2120901681)
5(-0.09361658444 -0.03442548457 -0.09511636827 -0.09150396704 -0.2339291295)
5(-0.1022250146 -0.0445669821 -0.1069462243 -0.1091111289 -0.258336428)
5(-0.1107821358 -0.05508660424 -0.1224528417 -0.1296383603 -0.287861627)
5(-0.1192501693 -0.06822575553 -0.1374056985 -0.151736449 -0.3207723429)
5(-0.1281889865 -0.08069261757 -0.1556746494 -0.178676352 -0.3587172086)
5(-0.134785112 -0.09489817291 -0.1765618923 -0.2094091604 -0.4037189006)
5(-0.1414933815 -0.1097124888 -0.1982343271 -0.2435579802 -0.453983141)
5(-0.1448158682 -0.1234914295 -0.2255232828 -0.2845696808 -0.5150775971)
5(-0.1460090713 -0.1376179908 -0.2544456754 -0.3318425999 -0.5812378699)
5(-0.1437715915 -0.1535689253 -0.2859831298 -0.386995849 -0.660253733)
5(-0.1379042643 -0.167067505 -0.3231509929 -0.4480815113 -0.7607605849)
5(-0.1304196398 -0.1826328257 -0.3631272367 -0.5226018643 -0.8666760632)
5(-0.1223544638 -0.1991670258 -0.4131779223 -0.6103668323 -0.9951836252)
5(-0.1122635399 -0.2165471993 -0.4660922151 -0.71328666 -1.135956352)
5(-0.110750968 -0.2406657831 -0.5305859197 -0.8331471783 -1.292798703)
5(-0.1145403096 -0.2715954571 -0.6072621586 -0.9679521748 -1.457749387)
5(-0.1333086582 -0.3139718152 -0.7001735108 -1.115617688 -1.637835829)
5(-0.1566727718 -0.3725316398 -0.8069844526 -1.278257509 -1.821749555)