/*--------------------------------*- C++ -*----------------------------------*\
| =========                 |                                                 |
| \\      /  F ield         | OpenFOAM: The Open Source CFD Toolbox           |
|  \\    /   O peration     | Version:  2.3.1                                 |
|   \\  /    A nd           | Web:      www.OpenFOAM.org                      |
|    \\/     M anipulation  |                                                 |
\*---------------------------------------------------------------------------*/
FoamFile
{
    version     2.0;
    format      ascii;
    class       dictionary;
    location    "constant";
    object      DPSE3;
}
// * * * * * * * * * * * * * * * * * * * * * * * * * * * * * * * * * * * * * //

DPSE3_table
60
(

60
(
5(1.953426627 2.442228569 2.448664967 2.262034887 2.547761587)
5(1.952179071 2.489625343 2.556806324 2.39749774 2.743672029)
5(1.87675433 2.795534349 2.699640777 2.542949987 2.658521796)
5(1.91504909 3.02332511 2.928507969 2.644841903 3.263989599)
5(2.128214743 3.143313732 3.083088057 2.888087433 3.366283751)
5(2.345402075 3.247912346 3.1313956 3.037585448 3.47538931)
5(2.46789995 3.363630625 3.29994155 3.139161788 3.70562672)
5(2.529018374 3.492406637 3.481532162 3.303996851 3.791233516)
5(2.643386864 3.614105601 3.596814165 3.430983696 3.991101825)
5(2.724667838 3.724878194 3.733786611 3.53905358 4.140924547)
5(2.800872303 3.816000047 3.835206017 3.644762354 4.268789721)
5(2.856349631 3.891641852 3.91582887 3.741102567 4.375617137)
5(2.902628815 3.961858076 3.997005068 3.833211418 4.48653842)
5(2.959863356 4.02639828 4.077202923 3.905666886 4.576978452)
5(3.003860924 4.081649061 4.142301996 3.983132463 4.666713025)
5(3.046889903 4.132074372 4.205658213 4.048277828 4.746115635)
5(3.083753444 4.173582582 4.259086128 4.106164803 4.817725433)
5(3.11445291 4.208898563 4.3047872 4.159238304 4.881475349)
5(3.14071875 4.237593909 4.343949449 4.20349396 4.934039781)
5(3.163981076 4.261525564 4.376594208 4.247238523 4.983719557)
5(3.18003253 4.275424362 4.400764494 4.279977754 5.023216852)
5(3.191195322 4.284023004 4.422275968 4.303508856 5.052972816)
5(3.198675981 4.288098367 4.433483252 4.327534598 5.08219011)
5(3.201808555 4.288059728 4.440587037 4.345860654 5.104520242)
5(3.200307243 4.280080806 4.442446539 4.358743873 5.120014635)
5(3.193440139 4.265276489 4.439375953 4.369381223 5.132032464)
5(3.18478793 4.247142553 4.426472175 4.370481732 5.135762883)
5(3.172489366 4.222251729 4.411142581 4.370158626 5.135174113)
5(3.155835799 4.19507053 4.391384662 4.360958294 5.123891791)
5(3.133180287 4.162602015 4.369763746 4.349429826 5.106896044)
5(3.107955005 4.123046864 4.33957854 4.336293397 5.091440294)
5(3.080493412 4.081171798 4.309408435 4.325689312 5.076114494)
5(3.045786416 4.031637809 4.27211248 4.29165973 5.027386318)
5(3.007495559 3.976472259 4.234795521 4.286455008 5.020677697)
5(2.971172811 3.921579416 4.187812561 4.257921031 4.987900978)
5(2.919299194 3.850257152 4.14462425 4.240700063 4.954563347)
5(2.891133351 3.805967874 4.089141994 4.178582039 4.883224791)
5(2.832840231 3.740747544 4.034532015 4.182773859 4.919390372)
5(2.79242568 3.666097575 3.981180346 4.108872484 4.784447894)
5(2.754476867 3.59131103 3.919015794 4.255292965 5.061853693)
5(2.721856184 3.536821806 3.853072408 4.20501536 5.025049991)
5(2.663875099 3.461401563 3.842995219 4.167825435 4.89848808)
5(2.640055272 3.394072297 3.89680386 4.102641733 4.584951901)
5(2.577259511 3.248756845 3.853368021 4.126517963 4.498882624)
5(2.550878229 3.185443853 3.775961771 4.067503167 4.426515777)
5(2.443657092 3.128885493 3.708641032 3.962193663 4.335560398)
5(2.390866284 3.167050693 3.592234258 3.743268957 4.236956637)
5(2.448472708 3.107317863 3.420717007 3.602710362 4.124784562)
5(2.331060316 3.00002728 3.32641613 3.493901077 4.001842324)
5(2.483998291 2.860333983 3.0709632 3.377410805 3.863438344)
5(2.355216186 2.711312243 2.931646204 3.246349124 3.706432857)
5(2.016852384 2.450378973 2.777813427 3.097842567 3.530160907)
5(1.817374372 2.247997594 2.606739647 2.928048012 3.329516187)
5(1.672528738 2.065866488 2.415805233 2.732792551 3.102005725)
5(1.532419777 1.875707603 2.203066504 2.508910138 2.839030969)
5(1.381853817 1.667241716 1.961738035 2.252606237 2.540831143)
5(1.242333223 1.44874448 1.690255649 1.968157693 2.213555076)
5(1.008492267 1.184361493 1.409570254 1.651387256 1.845923362)
5(0.7202198033 0.8307404597 1.170486758 1.345547376 1.273377455)
5(0.4032152033 0.3652432368 0.3217973028 0.5255867965 0.7495031891)
)


60
(
5(2.070710984 2.510431204 2.449761797 2.310338188 2.531905732)
5(2.125564523 2.742981785 2.640816361 2.514629794 2.809645341)
5(2.215088919 2.939425595 2.828882277 2.708042689 3.056229959)
5(2.331233223 3.106174571 3.012389802 2.885634238 3.275519693)
5(2.461782758 3.253704403 3.183953118 3.044390821 3.463721167)
5(2.591282245 3.390278787 3.339500624 3.185038524 3.626026655)
5(2.702651914 3.51811234 3.478547362 3.317398102 3.780929051)
5(2.795371952 3.635046864 3.605744378 3.441498043 3.9311684)
5(2.877350096 3.741157944 3.721234033 3.555110265 4.071209153)
5(2.954489374 3.836648836 3.825983097 3.657851849 4.195123978)
5(3.026601203 3.921905921 3.920145803 3.750409354 4.304857438)
5(3.092638407 3.997167236 4.005323883 3.833939853 4.40204373)
5(3.152208849 4.064153907 4.080762149 3.909869434 4.49062408)
5(3.204410985 4.123134218 4.147595511 3.978433155 4.571106015)
5(3.250636147 4.174298535 4.206067824 4.038724092 4.64167742)
5(3.290686077 4.217815095 4.256931762 4.091815211 4.703423712)
5(3.325574712 4.253889371 4.299809993 4.137764944 4.756370958)
5(3.354374389 4.282591664 4.335065284 4.176918222 4.801932777)
5(3.377456844 4.304059057 4.362743488 4.209403368 4.840223806)
5(3.394631594 4.318614376 4.383219769 4.235090108 4.870627982)
5(3.406675677 4.326647062 4.397029 4.255281647 4.894353251)
5(3.413539038 4.32852855 4.404912257 4.269998622 4.910781132)
5(3.414416777 4.323439424 4.407175506 4.279057173 4.919787)
5(3.410050461 4.312100066 4.403576164 4.283586361 4.923800996)
5(3.401686558 4.295018273 4.393483251 4.283078873 4.922372862)
5(3.38800917 4.271704783 4.377445013 4.278296092 4.917079167)
5(3.370123782 4.242844168 4.355895296 4.269615012 4.907602625)
5(3.347233341 4.208449041 4.330042416 4.257893447 4.893955898)
5(3.320619293 4.16907328 4.300014648 4.242754934 4.875669422)
5(3.289834021 4.124790512 4.266035798 4.225669315 4.855343574)
5(3.255762313 4.076219207 4.228514166 4.206852698 4.833234782)
5(3.217850198 4.023812752 4.188537478 4.187708251 4.811042559)
5(3.177510765 3.968003961 4.146704294 4.169162631 4.789350714)
5(3.134807435 3.909537487 4.104106565 4.153958342 4.772559281)
5(3.090247367 3.849323039 4.062856723 4.142385418 4.758508033)
5(3.047549717 3.789126506 4.022798511 4.134029585 4.746358977)
5(3.005981079 3.730038968 3.985978377 4.126987177 4.731430975)
5(2.967113087 3.673664449 3.953233521 4.12348731 4.717792296)
5(2.936410452 3.622858601 3.924853711 4.132977766 4.724228653)
5(2.908030445 3.578581975 3.906179569 4.168278003 4.773434554)
5(2.891660408 3.544003738 3.896416354 4.235121728 4.875107433)
5(2.877581425 3.512876272 3.906468379 4.329735556 4.997179629)
5(2.884095947 3.489969997 3.939425711 4.434314511 5.088457988)
5(2.90783149 3.470084166 3.996503918 4.531791676 5.105199485)
5(2.927464757 3.459656405 4.074408178 4.608577295 5.061600296)
5(2.941887273 3.466764914 4.152739494 4.648564708 4.984533587)
5(2.942260161 3.49845412 4.216237545 4.631051871 4.886522695)
5(2.949922099 3.54244304 4.242778962 4.557263934 4.767609026)
5(2.98266402 3.578368947 4.216265207 4.434998479 4.615688107)
5(3.051007956 3.58436726 4.118932804 4.270677706 4.423881849)
5(3.12533431 3.543713137 3.951383406 4.072512317 4.204439575)
5(3.138707626 3.43721889 3.727833139 3.84170456 3.960994955)
5(3.043664902 3.254022575 3.469578324 3.585551285 3.692055198)
5(2.838462438 2.998209823 3.181384282 3.300024318 3.390192255)
5(2.539579855 2.68234415 2.862210138 2.982456056 3.061231086)
5(2.193777666 2.32707602 2.507791024 2.624845113 2.6910989)
5(1.823566642 1.940509823 2.115190313 2.223399912 2.270763602)
5(1.443923167 1.535255547 1.683386568 1.768974812 1.794820106)
5(1.088142071 1.129938284 1.199227643 1.237799083 1.245563672)
5(0.7449320865 0.6785112692 0.5654763889 0.6416100399 0.772624573)
)


60
(
5(2.154045853 2.507621244 2.430175457 2.313906847 2.49426876)
5(2.225418958 2.750819025 2.647071657 2.529508328 2.788605685)
5(2.32338055 2.948139793 2.846813782 2.726973447 3.042767888)
5(2.442677045 3.111882477 3.028116987 2.903383001 3.255917529)
5(2.574712514 3.256561007 3.192404575 3.058125531 3.431362951)
5(2.704043033 3.391149792 3.340668663 3.194716107 3.581259177)
5(2.815506017 3.515811877 3.475034298 3.322717464 3.727119977)
5(2.908181551 3.629850798 3.597705552 3.442517724 3.869867176)
5(2.989944733 3.733222798 3.709064845 3.552131323 4.002470984)
5(3.066103256 3.825577419 3.808881741 3.649783295 4.118832455)
5(3.136335119 3.907054381 3.898208313 3.737457138 4.2206441)
5(3.200623823 3.978802274 3.977423453 3.815896117 4.310218473)
5(3.25769703 4.04180176 4.047501876 3.886347626 4.390478542)
5(3.307209905 4.096605083 4.108618448 3.949007842 4.462974683)
5(3.349454301 4.143194419 4.161845611 4.003511334 4.525395817)
5(3.385616626 4.181873832 4.206160125 4.050432593 4.57985269)
5(3.415422866 4.212385347 4.242701519 4.089868086 4.624906401)
5(3.438836042 4.235362199 4.271107913 4.122199206 4.662477002)
5(3.456737094 4.250956097 4.291671621 4.147035015 4.691438765)
5(3.467441775 4.258929273 4.30475231 4.16570269 4.714312963)
5(3.471928758 4.260062451 4.311234174 4.178321015 4.729942639)
5(3.470932853 4.254539775 4.31128339 4.18500931 4.738189386)
5(3.463906901 4.241899117 4.305155183 4.186532703 4.740406167)
5(3.451677274 4.222822811 4.292903666 4.183147475 4.736973713)
5(3.433541404 4.196972721 4.274380698 4.175206343 4.728998075)
5(3.410404004 4.164962261 4.249123656 4.162673754 4.717495619)
5(3.381629816 4.126715485 4.219128182 4.146103638 4.700483026)
5(3.348252938 4.083346438 4.183963188 4.126414194 4.681396512)
5(3.309681842 4.034048869 4.144819497 4.103318636 4.656908356)
5(3.267459759 3.979411684 4.10140468 4.078551911 4.630093213)
5(3.219873964 3.920151518 4.055052122 4.052399069 4.602371058)
5(3.168423078 3.856529316 4.00577767 4.025977129 4.574856266)
5(3.114179749 3.789431889 3.954154606 4.001664933 4.552017116)
5(3.057298666 3.718826353 3.902593752 3.980013225 4.529589662)
5(2.997021272 3.646166547 3.851861837 3.963512475 4.515022756)
5(2.934693267 3.571886098 3.802420403 3.95059339 4.503782236)
5(2.878668081 3.500004859 3.755798404 3.941219428 4.492167446)
5(2.81739618 3.427358802 3.714405154 3.938167901 4.48643868)
5(2.762099937 3.362024237 3.681114111 3.95140073 4.505521263)
5(2.71109285 3.300555468 3.656473274 3.994463336 4.570440933)
5(2.664873746 3.244613409 3.644143729 4.076770239 4.695666038)
5(2.62966731 3.20094425 3.654613767 4.188347346 4.847074525)
5(2.602959764 3.160688895 3.693554357 4.321433853 4.982315368)
5(2.591517017 3.128333389 3.764733358 4.459500384 5.062414194)
5(2.592428056 3.111186466 3.85956203 4.584683475 5.086980326)
5(2.589787125 3.118573797 3.970149259 4.679722115 5.072826629)
5(2.581106117 3.154623741 4.074366683 4.727571571 5.041709359)
5(2.587380584 3.212946081 4.151732896 4.720648985 4.984946018)
5(2.633687086 3.275701881 4.179006422 4.658856561 4.886839998)
5(2.72259951 3.324200521 4.142429125 4.543396874 4.736191066)
5(2.831388738 3.335214222 4.032289693 4.375625364 4.530921982)
5(2.90274837 3.288976237 3.858615681 4.16406115 4.287302707)
5(2.878469809 3.169135689 3.632044889 3.906240491 4.006729454)
5(2.744776823 2.971416913 3.359434913 3.602515011 3.681110653)
5(2.520906546 2.701702417 3.035471807 3.253312872 3.314310453)
5(2.226351281 2.373539962 2.665185036 2.855488551 2.897180669)
5(1.881696842 1.997999704 2.247130227 2.407244552 2.430283389)
5(1.517083651 1.593423759 1.777779779 1.89984512 1.909787733)
5(1.150430392 1.171087154 1.267176374 1.332114784 1.316520672)
5(0.7484427494 0.6524074101 0.5415722467 0.680279625 0.8363009143)
)


60
(
5(2.21702881 2.490269231 2.403606306 2.303984438 2.452732154)
5(2.298664329 2.740548824 2.636658452 2.52486194 2.751258153)
5(2.401215522 2.938300718 2.841901402 2.723823845 3.004475507)
5(2.522705303 3.099339713 3.021043527 2.89917448 3.211974731)
5(2.655811857 3.241868222 3.180361854 3.05143105 3.378871033)
5(2.785363857 3.374817201 3.324214148 3.184994317 3.520785313)
5(2.896926842 3.497361827 3.454738967 3.309778156 3.659767715)
5(2.98926307 3.608705709 3.573774997 3.426371374 3.796380968)
5(3.070304436 3.709439038 3.681413406 3.532324449 3.922774678)
5(3.145114755 3.798900695 3.7772698 3.626282132 4.032807793)
5(3.213806751 3.877218131 3.862109906 3.709607477 4.127876097)
5(3.275796191 3.945610506 3.936736138 3.783596461 4.210949253)
5(3.330103545 4.00488628 4.001988535 3.849427649 4.28491416)
5(3.376389333 4.055651953 4.05825229 3.907250073 4.350852075)
5(3.415071092 4.097966428 4.106032271 3.956611186 4.407406014)
5(3.447450598 4.131966423 4.14506113 3.998285308 4.455050357)
5(3.473006377 4.157868194 4.175857823 4.032106689 4.493549917)
5(3.49140382 4.175484507 4.198886307 4.05861119 4.52340309)
5(3.503826648 4.185803274 4.213019124 4.077804057 4.547326779)
5(3.508595317 4.18778552 4.219737827 4.090303064 4.56346406)
5(3.506404321 4.182590067 4.219886281 4.097059709 4.573113328)
5(3.499195786 4.17103023 4.213092038 4.096800254 4.574173875)
5(3.485551507 4.15184387 4.200041992 4.091691866 4.569481858)
5(3.464796012 4.124831132 4.18019069 4.081418939 4.55906609)
5(3.438750534 4.091953027 4.154239042 4.065800717 4.543770099)
5(3.406673257 4.052037952 4.1217571 4.046067762 4.524733215)
5(3.369622702 4.005619541 4.082819105 4.022509548 4.502710352)
5(3.325921352 3.952971603 4.039195634 3.994543101 4.475283416)
5(3.277554967 3.894724059 3.991045808 3.96461765 4.44626183)
5(3.223701451 3.830417394 3.938554052 3.931189319 4.412114132)
5(3.164307873 3.760755545 3.882081902 3.896527333 4.378107681)
5(3.100243597 3.685869166 3.822660095 3.861066083 4.342446901)
5(3.032481177 3.606880548 3.759384685 3.826475591 4.311657301)
5(2.95819275 3.522827519 3.696985581 3.794884615 4.281330393)
5(2.882867843 3.435956733 3.632696284 3.767334565 4.258081263)
5(2.802285304 3.346854346 3.569159852 3.743421015 4.24136174)
5(2.722494123 3.25526132 3.506976081 3.723573638 4.224099604)
5(2.640879539 3.164930489 3.449379673 3.709690602 4.213824196)
5(2.558232456 3.074145045 3.397152686 3.71363574 4.228620471)
5(2.47805386 2.985952628 3.353140308 3.74921107 4.293081179)
5(2.398458082 2.905390825 3.324093236 3.821950699 4.416925238)
5(2.319439212 2.827220669 3.314571992 3.928397646 4.573292191)
5(2.252953837 2.756082214 3.335169371 4.062526976 4.725536865)
5(2.196070841 2.691104246 3.391018908 4.207511279 4.830631495)
5(2.150464654 2.644202646 3.476945573 4.349085534 4.893071114)
5(2.108323229 2.624251268 3.581825233 4.471178378 4.929608624)
5(2.07303487 2.637218996 3.689934085 4.561123324 4.955643523)
5(2.05387996 2.685589706 3.786613408 4.602960327 4.96416033)
5(2.077154217 2.746913739 3.849310216 4.599474875 4.932989154)
5(2.172818228 2.81337902 3.858093048 4.54493426 4.842935913)
5(2.301201856 2.86350226 3.808121593 4.431570197 4.685190236)
5(2.415237242 2.877703858 3.699192522 4.261991872 4.474305868)
5(2.469673478 2.838438565 3.538283907 4.032716387 4.200601646)
5(2.43734037 2.730575941 3.318956375 3.744281154 3.876137649)
5(2.321153564 2.549713388 3.036413784 3.394565035 3.493969801)
5(2.125011665 2.299805758 2.69239726 2.98144023 3.050477801)
5(1.859964037 1.984613559 2.287015852 2.513915396 2.559966686)
5(1.537796737 1.6150279 1.827408387 1.985980482 2.005458484)
5(1.180185518 1.20093336 1.315537947 1.39510557 1.375146755)
5(0.5919619571 0.5778583305 0.636499962 0.6748828315 0.6378045498)
)


60
(
5(2.264728671 2.468233804 2.375045551 2.288707604 2.412984727)
5(2.354099601 2.724644259 2.620266624 2.512399555 2.710724187)
5(2.46025025 2.92273566 2.828933288 2.711864547 2.960354907)
5(2.58363118 3.081305269 3.005741207 2.886003984 3.162027606)
5(2.718161608 3.222092594 3.161273472 3.035892128 3.322077884)
5(2.848439736 3.354028812 3.301618574 3.166534823 3.457421881)
5(2.960488867 3.474781934 3.428810282 3.288373448 3.590177803)
5(3.052995318 3.584115068 3.544551531 3.401915797 3.720975584)
5(3.134116701 3.682844604 3.648759169 3.504296584 3.841415008)
5(3.208554447 3.770018976 3.741059318 3.594581923 3.945462414)
5(3.276353154 3.846019075 3.822078706 3.673900853 4.034437063)
5(3.337203949 3.911695415 3.892687801 3.74400961 4.111669883)
5(3.390075796 3.968230559 3.953848788 3.805334556 4.179362344)
5(3.434631705 4.01613509 4.005737984 3.858631532 4.239440843)
5(3.471110148 4.055311504 4.048949328 3.903341132 4.290234891)
5(3.500839036 4.085883516 4.083166735 3.940100922 4.331958538)
5(3.523698023 4.108149609 4.109242212 3.968716787 4.364004782)
5(3.539348422 4.122113393 4.126927672 3.990088233 4.388632071)
5(3.548256008 4.128209374 4.136063322 4.004007401 4.405811604)
5(3.549424983 4.126158127 4.137728224 4.010904642 4.41535433)
5(3.543681599 4.116371657 4.132017312 4.011455945 4.417832293)
5(3.531289419 4.099424384 4.119460495 4.006060318 4.413848216)
5(3.512573767 4.075123369 4.100220015 3.994766627 4.403206866)
5(3.487264769 4.043705808 4.074843333 3.977483352 4.384887466)
5(3.456261742 4.005120416 4.042115571 3.956062089 4.364160433)
5(3.416907838 3.95860858 4.003120869 3.929278319 4.337552776)
5(3.374765073 3.906128805 3.956568487 3.897667762 4.306929026)
5(3.325260773 3.847495745 3.905623312 3.86233021 4.272635433)
5(3.271237952 3.78254846 3.848647891 3.823242055 4.234597305)
5(3.208506486 3.710268848 3.787779696 3.781455083 4.192864427)
5(3.140561962 3.632492772 3.722639268 3.737608066 4.149637573)
5(3.068664324 3.549584008 3.652359724 3.69120692 4.10511345)
5(2.98947797 3.45986802 3.578670077 3.646252624 4.06394586)
5(2.905477245 3.36405512 3.502565891 3.603080377 4.023664858)
5(2.815531458 3.264925556 3.425034755 3.561475411 3.988587941)
5(2.72053143 3.161100485 3.34716795 3.523627733 3.957291952)
5(2.625146091 3.053408825 3.268238814 3.488417196 3.925886535)
5(2.522828337 2.94215618 3.190139403 3.458491909 3.903150077)
5(2.414765094 2.829252881 3.117774275 3.443613261 3.901598336)
5(2.306332109 2.717133752 3.049853748 3.455945185 3.947810464)
5(2.193399664 2.604315442 2.991929968 3.506220782 4.05335086)
5(2.082846547 2.493146974 2.951684909 3.592158482 4.195767168)
5(1.974031631 2.383962695 2.938836519 3.70372799 4.336326258)
5(1.866116151 2.278090235 2.961773517 3.83178539 4.443158923)
5(1.768839039 2.185798879 3.014170284 3.966477101 4.520264776)
5(1.680012044 2.123570042 3.090218587 4.092289216 4.584547657)
5(1.59277008 2.096838992 3.18157661 4.194553464 4.642059182)
5(1.537738821 2.110431214 3.26957356 4.264877321 4.691706918)
5(1.529053486 2.151280947 3.337995131 4.298679014 4.71535185)
5(1.594611296 2.208480076 3.373834007 4.293827448 4.683044916)
5(1.709715006 2.271151197 3.371022352 4.241358738 4.592154646)
5(1.828968462 2.321681076 3.330252382 4.13371793 4.437479591)
5(1.914981853 2.341595803 3.247424618 3.962941671 4.21252079)
5(1.949372317 2.31806675 3.113473435 3.729989941 3.930473795)
5(1.932447213 2.245206748 2.919200903 3.421714175 3.570854903)
5(1.84689114 2.106391102 2.655290843 3.0369466 3.134442554)
5(1.705243522 1.900782673 2.31516404 2.585091934 2.638415723)
5(1.49260554 1.618439761 1.897373433 2.065777128 2.080514655)
5(1.198361837 1.242402081 1.394909522 1.481256209 1.455224413)
5(0.5959297316 0.6037014878 0.7062177197 0.6968217243 0.5972229842)
)


60
(
5(2.300238933 2.445255829 2.346585779 2.271274332 2.377197732)
5(2.39582772 2.707283958 2.601982066 2.496658098 2.671843228)
5(2.50489736 2.905584275 2.813253269 2.6960545 2.916898494)
5(2.630005803 3.062074909 2.987892682 2.86880194 3.112691422)
5(2.766092972 3.2015635 3.140163021 3.016368984 3.266743692)
5(2.897284255 3.33273487 3.277577064 3.144126163 3.396392185)
5(3.010188924 3.452159426 3.401744024 3.263069167 3.523437798)
5(3.103216681 3.560014741 3.514662958 3.373533362 3.64868369)
5(3.184768594 3.657197471 3.615768877 3.472620973 3.763722561)
5(3.259425751 3.742845571 3.704897807 3.559288645 3.862115398)
5(3.327157156 3.817081318 3.782595849 3.63500595 3.945570318)
5(3.387555873 3.880893467 3.849701931 3.701038825 4.017038311)
5(3.439824042 3.935407998 3.907206289 3.758669902 4.079706059)
5(3.483669221 3.981171723 3.955370933 3.807381256 4.133624373)
5(3.519395615 4.018191954 3.994601111 3.847814863 4.178958563)
5(3.54758974 4.046308965 4.025067003 3.879937889 4.214712789)
5(3.568994592 4.066001606 4.046890066 3.904051797 4.241357456)
5(3.583141408 4.077439801 4.06022966 3.920612375 4.260320785)
5(3.589938687 4.080617004 4.065112382 3.92921598 4.270995371)
5(3.589682634 4.07572075 4.061952176 3.931300908 4.27533907)
5(3.58190137 4.062958068 4.051492972 3.926641593 4.272282716)
5(3.566784822 4.042585987 4.034101387 3.915188522 4.261190202)
5(3.545701358 4.014865656 4.010332636 3.898247406 4.242839465)
5(3.517804647 3.979690936 3.979355604 3.875402879 4.219016173)
5(3.48393666 3.9372557 3.940495739 3.846597645 4.190361837)
5(3.442916313 3.88705177 3.89531243 3.81383611 4.157761325)
5(3.395373774 3.830445999 3.843596182 3.775414804 4.120494862)
5(3.341538366 3.76655127 3.78606556 3.733200042 4.078941111)
5(3.282381563 3.696439016 3.722524874 3.685699711 4.031543915)
5(3.215649408 3.61889131 3.653902919 3.635342758 3.981088942)
5(3.143659496 3.535600799 3.580046096 3.581294079 3.927402461)
5(3.064826835 3.444421599 3.500773494 3.525670556 3.872440252)
5(2.977474479 3.347709021 3.417904841 3.468366602 3.818646361)
5(2.886274365 3.243680524 3.32976355 3.413052616 3.768504967)
5(2.78771191 3.134090394 3.239044193 3.356231358 3.716642572)
5(2.683722165 3.01924284 3.14581113 3.301791763 3.669438299)
5(2.571127485 2.89585279 3.049732735 3.24913371 3.623014307)
5(2.451801128 2.769048934 2.954541641 3.198487558 3.578660259)
5(2.324160554 2.635205309 2.858694201 3.160761939 3.555836715)
5(2.193849624 2.49721997 2.763829539 3.148215503 3.57606052)
5(2.052126374 2.357311244 2.676112257 3.171670638 3.662278758)
5(1.907631873 2.211997294 2.602311426 3.222674817 3.767547188)
5(1.761536488 2.06627915 2.550642646 3.301565764 3.884818356)
5(1.612684837 1.918161525 2.530503733 3.397339688 3.969720083)
5(1.472003254 1.782986189 2.537320425 3.502843862 4.037495893)
5(1.336737241 1.673009645 2.567973195 3.604231744 4.094916983)
5(1.20001488 1.596398233 2.614815818 3.691923541 4.162426946)
5(1.108421269 1.568091829 2.669637674 3.763374425 4.233688844)
5(1.062467451 1.565460432 2.717104198 3.815590545 4.286506279)
5(1.080882845 1.585419478 2.744863479 3.842245049 4.306832826)
5(1.160587588 1.630126258 2.76104067 3.838406146 4.275423911)
5(1.255211311 1.672348344 2.755205179 3.794478683 4.186964422)
5(1.316490609 1.708379292 2.739720137 3.700984964 4.04027587)
5(1.336831331 1.713284368 2.695034915 3.552892842 3.821340899)
5(1.339070967 1.698817726 2.6031139 3.330701063 3.527991836)
5(1.283125693 1.635697482 2.452498412 3.026867566 3.150078683)
5(1.2248237 1.536666898 2.218347542 2.637803162 2.69790598)
5(1.095953965 1.359110825 1.893259343 2.160032833 2.163820393)
5(0.9225266301 1.082033109 1.430754603 1.588446836 1.560574327)
5(0.309838511 0.4489259855 0.6876483116 0.7495373699 0.7180195571)
)


60
(
5(2.325671263 2.42293786 2.319171747 2.253376312 2.346001368)
5(2.426858735 2.690843692 2.58417488 2.479906634 2.636453237)
5(2.538701755 2.890033349 2.798359313 2.679160439 2.876483528)
5(2.665730066 3.045208257 2.971634318 2.850914511 3.067194272)
5(2.803810871 3.184219898 3.121859226 2.996634543 3.215934112)
5(2.936440792 3.315747119 3.257687795 3.122044732 3.340501084)
5(3.050801719 3.434998733 3.38019942 3.238712538 3.462751168)
5(3.145166566 3.542580022 3.491560908 3.346814711 3.583064781)
5(3.227955112 3.639584743 3.591199348 3.443261929 3.693087354)
5(3.303923674 3.725150467 3.678605647 3.527204792 3.78669663)
5(3.372592532 3.799111126 3.754683341 3.600243328 3.865402821)
5(3.434039165 3.862827245 3.820154743 3.663499713 3.932120691)
5(3.487133898 3.917044244 3.875876389 3.718090911 3.989891773)
5(3.531595325 3.962590919 3.922396341 3.764042164 4.039438415)
5(3.567731525 3.999204088 3.959868839 3.801253333 4.079794805)
5(3.596738485 4.027176861 3.988569415 3.830025973 4.11033645)
5(3.618397348 4.046335114 4.008485364 3.851056231 4.132572227)
5(3.632613291 4.057405861 4.019956046 3.863900156 4.14624531)
5(3.640078938 4.060402151 4.023038387 3.869774863 4.153194941)
5(3.639400141 4.054994777 4.018110055 3.867689561 4.151426176)
5(3.631879243 4.041842175 4.0053722 3.859347989 4.143921507)
5(3.6172205 4.020968777 3.986271121 3.844583245 4.127581953)
5(3.595353196 3.992434229 3.959797322 3.82362829 4.105191791)
5(3.568443805 3.957125484 3.926468403 3.796547929 4.075810422)
5(3.532573424 3.913347474 3.886229517 3.764100414 4.041289135)
5(3.49228285 3.862743909 3.837735175 3.725716221 4.002104042)
5(3.444867109 3.805472412 3.783282607 3.682065794 3.957839804)
5(3.390983775 3.740127306 3.722923042 3.635224016 3.909405588)
5(3.328060773 3.668158877 3.65634754 3.581217327 3.854670054)
5(3.261381663 3.589475137 3.582321768 3.524637022 3.799841534)
5(3.185164433 3.502821572 3.505616653 3.462751032 3.733313585)
5(3.105022395 3.410304922 3.421946741 3.400043805 3.671177156)
5(3.015749799 3.309404151 3.331927922 3.33313418 3.605669632)
5(2.919104617 3.201137488 3.23708451 3.266608253 3.543093404)
5(2.815389981 3.084980472 3.138297182 3.199007823 3.4774625)
5(2.705078914 2.963151119 3.0339079 3.129404396 3.414284013)
5(2.582458638 2.831444805 2.926384799 3.059550704 3.349364937)
5(2.453715689 2.691370606 2.814533081 2.991522043 3.286081477)
5(2.312392287 2.543501756 2.702316176 2.932956927 3.239659918)
5(2.159071872 2.386603479 2.588122125 2.893905591 3.230576576)
5(1.998657372 2.224523934 2.473059891 2.884153576 3.279136063)
5(1.828391209 2.054153732 2.368851537 2.903537846 3.357688694)
5(1.653186478 1.873746447 2.278384365 2.94342363 3.433998833)
5(1.476913734 1.693533842 2.214848692 2.997642644 3.485813945)
5(1.301149685 1.520064281 2.174423321 3.058110255 3.51648102)
5(1.130260115 1.369034528 2.152053234 3.118920198 3.552441507)
5(0.9766653753 1.253699093 2.142953225 3.172936125 3.603532204)
5(0.8411668841 1.174476312 2.148092961 3.221005649 3.669703174)
5(0.7570609774 1.130805979 2.15097636 3.255591762 3.73299278)
5(0.7307800819 1.10966006 2.150325313 3.27860214 3.765953033)
5(0.7573082197 1.112145887 2.146736555 3.290917516 3.77654255)
5(0.7945383737 1.117826323 2.140846397 3.284618633 3.749435961)
5(0.8136007283 1.121309376 2.13339853 3.252569883 3.687983221)
5(0.8056216566 1.103075119 2.114524512 3.189138248 3.569307988)
5(0.7728371773 1.076818317 2.073950111 3.067003989 3.38567538)
5(0.7103492054 1.029852832 2.000901068 2.877115606 3.119524741)
5(0.6150496382 0.941999814 1.864188709 2.598975784 2.754200275)
5(0.499732803 0.8164930448 1.634505451 2.210759765 2.299534832)
5(0.3668334817 0.612580831 1.249643382 1.67340279 1.716077687)
5(-0.09880939948 0.04100307126 0.337802418 0.5481733847 0.618729564)
)


60
(
5(2.342621768 2.401865902 2.293166763 2.23578883 2.31953236)
5(2.448649125 2.675871026 2.567794842 2.463572658 2.605683957)
5(2.562863614 2.876254144 2.785272594 2.663210018 2.841160692)
5(2.691640568 3.030421047 2.958133617 2.834639301 3.02753906)
5(2.831532561 3.16938775 3.107392896 2.979465806 3.172371847)
5(2.96566103 3.301794749 3.242701529 3.103573823 3.293339808)
5(3.081464004 3.421382332 3.364829897 3.219334513 3.412305216)
5(3.177200509 3.529210394 3.475871101 3.326236804 3.528974658)
5(3.261599713 3.626734987 3.575251203 3.42164531 3.635821163)
5(3.338900777 3.712769721 3.662471466 3.504422404 3.726174893)
5(3.408940828 3.787350619 3.738373683 3.576563341 3.802263015)
5(3.471542339 3.851560263 3.803765106 3.638772942 3.866051458)
5(3.525884089 3.906521649 3.85953323 3.692333368 3.92099394)
5(3.571118466 3.952422004 3.906035144 3.7373023 3.96789407)
5(3.6086027 3.989840344 3.943620572 3.773683084 4.005817001)
5(3.638301651 4.018202277 3.972260343 3.801684416 4.034437367)
5(3.661514599 4.038520953 3.992618543 3.821645279 4.053635125)
5(3.67642442 4.049928829 4.004230722 3.833750056 4.064990281)
5(3.68525759 4.054144484 4.007736548 3.838089556 4.068410419)
5(3.684953839 4.049221857 4.003150305 3.835855795 4.065719436)
5(3.678722326 4.03687903 3.990910446 3.826440623 4.05479683)
5(3.664804326 4.016762832 3.971885067 3.810807812 4.036954652)
5(3.644127092 3.989324933 3.94604381 3.788345637 4.010737969)
5(3.617931224 3.954784479 3.912973039 3.759966425 3.978734635)
5(3.583783001 3.911505552 3.872334741 3.726814482 3.942511576)
5(3.544656416 3.862581085 3.824978004 3.687098656 3.900093733)
5(3.49582881 3.805136741 3.771328183 3.642269034 3.852686459)
5(3.440406104 3.740407559 3.710924768 3.591643485 3.799048765)
5(3.381346247 3.66952687 3.64305243 3.53571006 3.740929542)
5(3.315161728 3.59110116 3.569918229 3.475955813 3.677663923)
5(3.238359482 3.504627115 3.49194808 3.411567207 3.609290167)
5(3.156827658 3.410978216 3.405828341 3.344071327 3.541315671)
5(3.06594926 3.308100109 3.313675469 3.273570049 3.470161822)
5(2.965912783 3.198460663 3.217346087 3.201112096 3.39905197)
5(2.860828482 3.080464073 3.113047584 3.125542183 3.325949863)
5(2.742259517 2.952313402 3.004251425 3.048011485 3.251050944)
5(2.614157907 2.815023128 2.889834906 2.96780685 3.173261465)
5(2.474649841 2.665359671 2.768532216 2.884590907 3.089783998)
5(2.322009859 2.504973211 2.64072442 2.810796554 3.030152586)
5(2.156328194 2.334461503 2.507949158 2.751877659 3.003408888)
5(1.977037537 2.152856926 2.3739496 2.713064863 3.01118724)
5(1.787825518 1.961544926 2.242549371 2.699040038 3.054123265)
5(1.594099328 1.759411867 2.121045588 2.700454888 3.090450285)
5(1.392158315 1.550139841 2.01665943 2.709385508 3.100857934)
5(1.202206781 1.351072802 1.929113073 2.723707489 3.09622604)
5(1.014945671 1.170430834 1.857341034 2.738230396 3.095193647)