/*--------------------------------*- C++ -*----------------------------------*\
| =========                 |                                                 |
| \\      /  F ield         | OpenFOAM: The Open Source CFD Toolbox           |
|  \\    /   O peration     | Version:  2.3.1                                 |
|   \\  /    A nd           | Web:      www.OpenFOAM.org                      |
|    \\/     M anipulation  |                                                 |
\*---------------------------------------------------------------------------*/
FoamFile
{
    version     2.0;
    format      ascii;
    class       dictionary;
    location    "constant";
    object      DPSI8;
}
// * * * * * * * * * * * * * * * * * * * * * * * * * * * * * * * * * * * * * //

DPSI8_table
60
(

60
(
5(1.162366994e-09 1.332633651e-09 2.409650409e-09 1.920180882e-09 4.151340899e-09)
5(1.510868899e-09 4.319582143e-10 1.773199199e-09 1.594640379e-09 4.460707765e-09)
5(1.381635719e-09 -3.405396413e-10 4.870574336e-10 1.035624239e-09 7.179291831e-10)
5(2.327328865e-10 2.606652353e-11 -1.485600817e-11 6.257427175e-11 -1.374457168e-09)
5(-9.211302248e-10 2.18229188e-10 6.273111426e-10 -3.844311489e-10 7.71238347e-10)
5(-9.177374667e-10 2.081506123e-10 5.277617117e-10 2.929872337e-10 -1.913463879e-10)
5(4.909017967e-11 1.311926827e-10 -2.600054295e-10 2.081460185e-10 3.177584191e-10)
5(2.527229382e-10 5.027402923e-11 -6.544493992e-11 -6.560974773e-11 6.121743314e-10)
5(6.557619432e-11 2.4184862e-11 6.801496261e-11 1.177366242e-10 -2.911194056e-10)
5(1.314637579e-10 6.910458317e-11 -2.311201257e-11 1.49710785e-10 1.931674132e-11)
5(-4.281427551e-11 1.037487317e-10 2.298642374e-10 8.900919695e-11 1.8312265e-10)
5(9.875166314e-12 9.338953769e-11 2.466300503e-10 5.362846314e-11 1.49653612e-10)
5(4.699641654e-11 9.200694608e-11 1.365080156e-10 1.507673577e-10 1.194367688e-10)
5(8.233607444e-11 1.344598451e-10 1.525298624e-10 1.771389262e-10 1.994407863e-10)
5(1.387003348e-10 1.450082576e-10 1.512675444e-10 9.039779628e-11 1.402061784e-10)
5(8.107063336e-11 1.216754067e-10 1.189319143e-10 1.385707026e-10 9.935361879e-11)
5(1.057338725e-10 1.309678992e-10 1.493452939e-10 1.228400444e-10 1.032968448e-10)
5(1.153109644e-10 1.259975681e-10 1.517125525e-10 1.387074417e-10 1.458902331e-10)
5(9.47709731e-11 9.752892654e-11 1.311470855e-10 1.245788107e-10 1.706255556e-10)
5(9.567450447e-11 1.236531162e-10 1.615103487e-10 1.332449857e-10 1.826539555e-10)
5(1.158026871e-10 1.590260509e-10 1.752867818e-10 2.608003888e-10 2.265884234e-10)
5(9.117860983e-11 1.295008352e-10 1.549728774e-10 1.990817508e-10 1.745652212e-10)
5(1.042112757e-10 1.058639875e-10 1.662215965e-10 1.191776282e-10 1.307518739e-10)
5(1.166285547e-10 1.158275898e-10 1.513648233e-10 1.520080617e-10 1.645283318e-10)
5(1.080372543e-10 1.439516084e-10 1.329696138e-10 1.305975694e-10 1.630040309e-10)
5(1.143119163e-10 1.559076978e-10 1.671030419e-10 1.467613435e-10 1.814735113e-10)
5(1.226246921e-10 1.537165723e-10 1.801560893e-10 1.718727828e-10 1.835611194e-10)
5(1.133783461e-10 1.372316163e-10 1.697816565e-10 1.903183894e-10 1.838079655e-10)
5(1.056497943e-10 1.248967101e-10 1.853621456e-10 2.104902434e-10 1.893034499e-10)
5(1.108451003e-10 1.227551754e-10 1.576825859e-10 1.808221298e-10 1.846517744e-10)
5(1.086486891e-10 1.335296463e-10 1.597801345e-10 1.764112889e-10 2.131586744e-10)
5(1.15742377e-10 1.300942083e-10 1.579327508e-10 1.799579537e-10 1.643912804e-10)
5(1.065648853e-10 1.103262018e-10 1.231881082e-10 1.490972841e-10 1.449610406e-10)
5(9.309173619e-11 1.085362007e-10 1.242364566e-10 1.37544718e-10 1.60215873e-10)
5(8.830750167e-11 9.367319463e-11 1.006926793e-10 1.157757364e-10 1.03883144e-10)
5(8.303787008e-11 9.964110573e-11 1.228047851e-10 1.188376827e-10 1.089870297e-10)
5(7.679364816e-11 9.374293106e-11 1.364557735e-10 1.032404678e-10 1.549701327e-10)
5(6.684348214e-11 7.059961147e-11 7.83732612e-11 8.352323762e-11 8.2420137e-11)
5(4.937100765e-11 7.156126736e-11 5.821043749e-11 7.62016395e-11 2.162860839e-10)
5(4.996306818e-11 7.208725553e-11 7.799926717e-11 6.805397197e-11 2.330102555e-10)
5(6.332633966e-11 7.132207198e-11 8.868393891e-11 1.197042898e-10 -7.272333965e-13)
5(5.913630302e-11 6.749546046e-11 7.333780768e-11 2.273844275e-10 1.402064539e-12)
5(4.76517244e-11 5.458470834e-11 2.543828106e-11 1.438501586e-10 -2.19982642e-11)
5(4.287372905e-11 4.586869676e-11 2.535629062e-11 -5.669047434e-12 -8.576930754e-12)
5(5.299976318e-11 4.581052183e-11 7.994019898e-11 -6.385430234e-12 1.041563897e-11)
5(5.869730554e-11 4.730254265e-11 1.446272227e-10 -8.753032563e-12 -4.812991274e-12)
5(4.939048671e-11 8.065718294e-11 1.367562361e-10 -8.113308585e-12 -8.371059718e-12)
5(4.805838138e-11 5.740431456e-11 3.417090945e-11 -7.686173358e-12 -9.367014724e-12)
5(4.801558085e-11 9.995681372e-11 -4.29708731e-12 -9.756294458e-12 -1.018699736e-11)
5(4.824828009e-11 9.04810232e-11 -9.704231973e-12 -1.080521267e-11 -1.115285923e-11)
5(1.045341202e-10 -8.440617454e-12 -1.096186327e-11 -1.189398363e-11 -1.22469233e-11)
5(1.038661521e-10 -1.095162622e-11 -1.196121441e-11 -1.284276844e-11 -1.324053368e-11)
5(2.319138595e-11 -1.183209533e-11 -1.309031921e-11 -1.38963888e-11 -1.449920684e-11)
5(-7.715393734e-12 -1.273680106e-11 -1.422339187e-11 -1.510860188e-11 -1.581496676e-11)
5(-1.330043281e-11 -1.381335333e-11 -1.534591041e-11 -1.626511718e-11 -1.701162207e-11)
5(-1.647453734e-11 -1.505129575e-11 -1.658027291e-11 -1.741990942e-11 -1.844779712e-11)
5(-1.80182286e-11 -1.724121039e-11 -1.803709276e-11 -1.892849747e-11 -1.931161053e-11)
5(-1.766447506e-11 -1.987399171e-11 -2.076955911e-11 -1.651860526e-11 -2.133952957e-11)
5(-1.81229667e-11 -2.345657528e-11 -2.658266297e-11 -2.974176608e-11 -2.928991036e-11)
5(-1.890781514e-11 -2.611331824e-11 -3.071188477e-11 -4.693376291e-11 -3.561532122e-11)
)


60
(
5(7.129044812e-10 -6.749226952e-11 1.707839861e-09 1.149688534e-09 2.931775143e-09)
5(5.629563912e-10 -5.977362537e-11 1.307340587e-09 8.912825667e-10 2.303894872e-09)
5(2.278102862e-10 -4.81019701e-11 4.760257482e-10 3.487602941e-10 9.51456544e-10)
5(-3.540513007e-11 -5.583076409e-11 -8.316770749e-11 5.079430065e-12 -2.069950307e-11)
5(-1.731951846e-10 -5.151119919e-11 -2.638967007e-10 -8.285695065e-11 -3.670642192e-10)
5(-1.36775075e-10 -3.373041297e-12 -1.066712188e-10 3.452566121e-11 -1.15833204e-10)
5(-6.800572198e-12 6.497867969e-11 1.209278572e-10 2.065453058e-10 3.074956561e-10)
5(8.373914548e-11 1.222907384e-10 2.549087975e-10 3.389384989e-10 5.480499017e-10)
5(1.081099636e-10 1.579811809e-10 2.987884278e-10 3.979069672e-10 6.1174252e-10)
5(1.117346392e-10 1.841722747e-10 3.02043059e-10 4.286614726e-10 6.112733869e-10)
5(1.245952716e-10 2.20592651e-10 3.233850351e-10 4.832575147e-10 6.416276883e-10)
5(1.498628473e-10 2.614943246e-10 3.724392316e-10 5.521407701e-10 7.279168654e-10)
5(1.889912986e-10 3.028134464e-10 4.40508868e-10 6.131578426e-10 8.172210387e-10)
5(2.265882891e-10 3.45536635e-10 5.007623192e-10 6.684387331e-10 8.75603197e-10)
5(2.56249898e-10 3.804558914e-10 5.427595302e-10 7.174539126e-10 9.169722099e-10)
5(2.860614854e-10 4.112666799e-10 5.753456723e-10 7.466231108e-10 9.410679672e-10)
5(3.140775449e-10 4.416087872e-10 6.079795658e-10 7.693809263e-10 9.456511368e-10)
5(3.37378993e-10 4.684950418e-10 6.345857336e-10 7.814843641e-10 9.381498096e-10)
5(3.605973344e-10 4.879198632e-10 6.510618798e-10 7.792292392e-10 9.166121935e-10)
5(3.810274209e-10 5.00003417e-10 6.576166021e-10 7.697434973e-10 8.833733082e-10)
5(3.973153013e-10 5.075055407e-10 6.565801077e-10 7.473945487e-10 8.378843829e-10)
5(4.061612391e-10 5.077380258e-10 6.438278182e-10 7.141476526e-10 7.776495082e-10)
5(4.081760462e-10 5.017779882e-10 6.193050656e-10 6.767639268e-10 7.151214676e-10)
5(4.091375492e-10 4.881295049e-10 5.90771007e-10 6.278950876e-10 6.492826235e-10)
5(4.020014421e-10 4.682228916e-10 5.531475494e-10 5.729738852e-10 5.825502638e-10)
5(3.87866624e-10 4.451742547e-10 5.130772118e-10 5.215508744e-10 5.195760257e-10)
5(3.725278575e-10 4.165826671e-10 4.75674547e-10 4.73462503e-10 4.64046324e-10)
5(3.521781251e-10 3.847124864e-10 4.34512511e-10 4.298492379e-10 4.14309629e-10)
5(3.280832308e-10 3.56125517e-10 3.957951825e-10 3.902922641e-10 3.749254162e-10)
5(3.034288159e-10 3.286198644e-10 3.618640667e-10 3.565456147e-10 3.448701054e-10)
5(2.799462321e-10 3.02014815e-10 3.329486285e-10 3.296445078e-10 3.211040946e-10)
5(2.570051747e-10 2.782547448e-10 3.072510614e-10 3.080028548e-10 3.048909693e-10)
5(2.361220336e-10 2.580219522e-10 2.855951755e-10 2.908146263e-10 2.917363984e-10)
5(2.183773101e-10 2.408784662e-10 2.688343427e-10 2.763163956e-10 2.798355423e-10)
5(2.021493509e-10 2.264836128e-10 2.541551571e-10 2.631836819e-10 2.68386442e-10)
5(1.894925267e-10 2.146044142e-10 2.413245733e-10 2.515812895e-10 2.553604291e-10)
5(1.786596715e-10 2.035254592e-10 2.295709791e-10 2.394302707e-10 2.405254284e-10)
5(1.680667765e-10 1.943955436e-10 2.186693035e-10 2.254468003e-10 2.277892458e-10)
5(1.61106467e-10 1.850466705e-10 2.080547068e-10 2.132787176e-10 2.186861646e-10)
5(1.546083511e-10 1.768478094e-10 1.989182787e-10 2.023646875e-10 2.125281079e-10)
5(1.491116188e-10 1.683177865e-10 1.880567767e-10 1.930193573e-10 2.049883788e-10)
5(1.429328425e-10 1.606024053e-10 1.765983264e-10 1.870486488e-10 1.92772822e-10)
5(1.377566983e-10 1.582339121e-10 1.673204468e-10 1.829110023e-10 1.76714418e-10)
5(1.358197687e-10 1.525896219e-10 1.604715066e-10 1.777850053e-10 1.593622548e-10)
5(1.35306671e-10 1.461231533e-10 1.579822301e-10 1.68933755e-10 1.433571747e-10)
5(1.358169572e-10 1.425269072e-10 1.590323801e-10 1.561892327e-10 1.28248075e-10)
5(1.368999257e-10 1.416246561e-10 1.600002346e-10 1.417082476e-10 1.132603621e-10)
5(1.384578932e-10 1.442026317e-10 1.564172516e-10 1.273160322e-10 9.803181058e-11)
5(1.425198183e-10 1.498187872e-10 1.482300368e-10 1.13152264e-10 8.294241357e-11)
5(1.483319419e-10 1.550848677e-10 1.366437568e-10 9.887686878e-11 6.88843242e-11)
5(1.553639218e-10 1.536736666e-10 1.232910374e-10 8.443390846e-11 5.611015536e-11)
5(1.630935411e-10 1.447774364e-10 1.086225866e-10 7.058956793e-11 4.496704263e-11)
5(1.676942398e-10 1.317409622e-10 9.362325645e-11 5.793798127e-11 3.476524956e-11)
5(1.667185912e-10 1.16493581e-10 7.924993425e-11 4.587717573e-11 2.535515554e-11)
5(1.576063733e-10 1.009868216e-10 6.565788255e-11 3.477530497e-11 1.693394731e-11)
5(1.42591891e-10 8.681232061e-11 5.299845161e-11 2.494448171e-11 9.101170491e-12)
5(1.241230113e-10 7.259862152e-11 4.124619913e-11 1.580140125e-11 1.720630725e-12)
5(1.029722141e-10 5.886560803e-11 3.040369725e-11 6.427926159e-12 -6.378734616e-12)
5(7.162726444e-11 3.406180103e-11 4.40100342e-12 -2.176965945e-11 -2.608120265e-11)
5(5.136526783e-11 1.575920742e-11 -1.641758891e-11 -4.520666515e-11 -4.153454927e-11)
)


60
(
5(3.590232909e-10 -4.45797507e-10 1.279842795e-09 7.89100384e-10 2.328178832e-09)
5(2.734060269e-10 -3.668580287e-10 9.540927583e-10 6.070714735e-10 1.819037885e-09)
5(6.972957969e-11 -1.993003043e-10 2.836873046e-10 2.290434097e-10 7.486664576e-10)
5(-1.189616439e-10 -1.174264705e-10 -1.31664191e-10 1.743177789e-11 5.250721414e-11)
5(-2.213978365e-10 -7.387926862e-11 -2.160146728e-10 1.871387046e-11 -1.278656271e-10)
5(-1.582028391e-10 8.163782389e-12 -2.44639755e-11 1.919684864e-10 1.707002985e-10)
5(-7.22775869e-12 1.095183987e-10 2.277177799e-10 4.080488507e-10 5.971753012e-10)
5(1.01893261e-10 1.915978834e-10 3.95438603e-10 5.733783053e-10 8.674111653e-10)
5(1.515780302e-10 2.612744143e-10 4.798074451e-10 6.794814382e-10 9.782097058e-10)
5(1.824828151e-10 3.251671839e-10 5.275859722e-10 7.627071522e-10 1.041052273e-09)
5(2.242429548e-10 3.926904372e-10 5.893636497e-10 8.533791087e-10 1.131597797e-09)
5(2.761505033e-10 4.600843115e-10 6.731827071e-10 9.490409918e-10 1.23745903e-09)
5(3.354080703e-10 5.2729999e-10 7.638517637e-10 1.03630096e-09 1.33388684e-09)
5(3.981660789e-10 5.936989195e-10 8.455146714e-10 1.10990038e-09 1.407496001e-09)
5(4.558342093e-10 6.529902956e-10 9.105836133e-10 1.164753006e-09 1.447626124e-09)
5(5.017286656e-10 7.045825957e-10 9.59385172e-10 1.199891961e-09 1.457807543e-09)
5(5.426084364e-10 7.470439516e-10 9.95487914e-10 1.216476079e-09 1.449885798e-09)
5(5.84746342e-10 7.791944609e-10 1.019927762e-09 1.217350542e-09 1.420119651e-09)
5(6.195267432e-10 8.019914161e-10 1.03136835e-09 1.199356693e-09 1.368841717e-09)
5(6.463164615e-10 8.125779797e-10 1.027319271e-09 1.163931573e-09 1.297603639e-09)
5(6.622902514e-10 8.110078502e-10 1.005934914e-09 1.116114816e-09 1.213400625e-09)
5(6.673441132e-10 7.996787938e-10 9.686286112e-10 1.050932253e-09 1.114778275e-09)
5(6.665154431e-10 7.7687857e-10 9.176487138e-10 9.719402788e-10 1.006359853e-09)
5(6.541033347e-10 7.434860192e-10 8.589521245e-10 8.870128498e-10 8.960744622e-10)
5(6.282897257e-10 6.997047057e-10 7.916037164e-10 7.979547634e-10 7.88241288e-10)
5(5.961381681e-10 6.496974761e-10 7.204228939e-10 7.099703886e-10 6.852668072e-10)
5(5.589958994e-10 5.936212624e-10 6.460739265e-10 6.253455057e-10 5.907925196e-10)
5(5.131058848e-10 5.360632195e-10 5.73510116e-10 5.485334063e-10 5.110357963e-10)
5(4.654673003e-10 4.812604773e-10 5.075536499e-10 4.809715748e-10 4.446439276e-10)
5(4.185772397e-10 4.277050135e-10 4.480387481e-10 4.237817693e-10 3.91731761e-10)
5(3.722710947e-10 3.807476476e-10 3.982420816e-10 3.787642525e-10 3.520174647e-10)
5(3.319919812e-10 3.414949012e-10 3.565565675e-10 3.433082286e-10 3.245969439e-10)
5(2.955136945e-10 3.068919704e-10 3.235216549e-10 3.17031997e-10 3.055993247e-10)
5(2.657533698e-10 2.797083595e-10 2.997423218e-10 2.98232767e-10 2.921853848e-10)
5(2.437960899e-10 2.597789549e-10 2.804661776e-10 2.839571139e-10 2.813036674e-10)
5(2.236758401e-10 2.439343687e-10 2.652693967e-10 2.7225829e-10 2.719030538e-10)
5(2.063642655e-10 2.313173065e-10 2.539112013e-10 2.614353589e-10 2.619752283e-10)
5(1.954831739e-10 2.203627247e-10 2.438156418e-10 2.509131804e-10 2.523388464e-10)
5(1.872186137e-10 2.116549953e-10 2.342633137e-10 2.407593378e-10 2.455418603e-10)
5(1.806305169e-10 2.032117537e-10 2.238679953e-10 2.307615668e-10 2.394929295e-10)
5(1.72501779e-10 1.939722253e-10 2.136028318e-10 2.215651325e-10 2.322657686e-10)
5(1.65349538e-10 1.862260997e-10 2.037244566e-10 2.147506282e-10 2.220977865e-10)
5(1.601440852e-10 1.797999795e-10 1.939810618e-10 2.099855481e-10 2.092242057e-10)
5(1.548328404e-10 1.742181123e-10 1.868337418e-10 2.046693315e-10 1.951275367e-10)
5(1.510221193e-10 1.680420294e-10 1.827766621e-10 1.975441994e-10 1.817947699e-10)
5(1.486353725e-10 1.623779392e-10 1.822244146e-10 1.882785392e-10 1.693097733e-10)
5(1.482057921e-10 1.609580474e-10 1.836108824e-10 1.777612441e-10 1.565817856e-10)
5(1.495700865e-10 1.645048831e-10 1.831939161e-10 1.674518143e-10 1.432672332e-10)
5(1.528450878e-10 1.711077897e-10 1.796196143e-10 1.567978966e-10 1.288873378e-10)
5(1.592744433e-10 1.784025751e-10 1.734577145e-10 1.450764735e-10 1.141953243e-10)
5(1.697053486e-10 1.830359653e-10 1.651979424e-10 1.322162866e-10 9.974396571e-11)
5(1.830277804e-10 1.816989025e-10 1.549278621e-10 1.184588719e-10 8.596059873e-11)
5(1.955254878e-10 1.753896204e-10 1.427502712e-10 1.04066389e-10 7.265925233e-11)
5(2.029114303e-10 1.660649705e-10 1.288534582e-10 8.945686665e-11 5.957008906e-11)
5(2.02727369e-10 1.540144775e-10 1.139477136e-10 7.515526836e-11 4.713853369e-11)
5(1.949131981e-10 1.394493547e-10 9.851999838e-11 6.122979593e-11 3.54424082e-11)
5(1.79609965e-10 1.231378239e-10 8.280898871e-11 4.73727665e-11 2.395666171e-11)
5(1.557946503e-10 1.036949558e-10 6.564941565e-11 3.285728358e-11 1.157415206e-11)
5(1.019158311e-10 5.608984223e-11 8.876650929e-12 -2.311024525e-11 -2.599605043e-11)
5(6.181560534e-11 1.911589774e-11 -3.879150697e-11 -7.167243706e-11 -5.71672841e-11)
)


60
(
5(1.732115229e-11 -7.886606828e-10 9.11101048e-10 5.043018494e-10 1.891955987e-09)
5(-4.186453867e-12 -6.422855852e-10 6.523969085e-10 3.860733165e-10 1.48663064e-09)
5(-7.463069397e-11 -3.267544676e-10 1.349933332e-10 1.500525071e-10 6.336411163e-10)
5(-1.863745369e-10 -1.583185251e-10 -1.499074672e-10 5.260083308e-11 1.253215521e-10)
5(-2.494119496e-10 -7.197319584e-11 -1.502134664e-10 1.286093465e-10 6.720515348e-11)
5(-1.595349857e-10 4.022719416e-11 7.719840375e-11 3.530347463e-10 4.152937957e-10)
5(1.237745256e-11 1.728315893e-10 3.534949195e-10 6.087909348e-10 8.654512709e-10)
5(1.432056095e-10 2.875769534e-10 5.524859136e-10 8.053501742e-10 1.168782338e-09)
5(2.194122656e-10 3.870923471e-10 6.713910329e-10 9.484310112e-10 1.329627726e-09)
5(2.773854256e-10 4.801306105e-10 7.563788604e-10 1.07038004e-09 1.436787739e-09)
5(3.427986307e-10 5.739702287e-10 8.520220708e-10 1.19228213e-09 1.554231714e-09)
5(4.204038301e-10 6.680572422e-10 9.638001064e-10 1.308952779e-09 1.682379976e-09)
5(5.015672632e-10 7.594997186e-10 1.073871113e-09 1.411863645e-09 1.793224425e-09)
5(5.813886693e-10 8.426304734e-10 1.168230453e-09 1.495631051e-09 1.865239575e-09)
5(6.552920143e-10 9.136603727e-10 1.24155429e-09 1.556416926e-09 1.901983288e-09)
5(7.206330723e-10 9.760350031e-10 1.297861351e-09 1.591899456e-09 1.907739861e-09)
5(7.760762351e-10 1.03076266e-09 1.34030813e-09 1.60544261e-09 1.883363894e-09)
5(8.263305971e-10 1.06662169e-09 1.359810921e-09 1.594853321e-09 1.833863172e-09)
5(8.644167236e-10 1.086437984e-09 1.360014534e-09 1.559592547e-09 1.760116859e-09)
5(8.888803282e-10 1.095476751e-09 1.341375784e-09 1.502359212e-09 1.658397082e-09)
5(9.124876403e-10 1.08472189e-09 1.301401634e-09 1.427649558e-09 1.543487314e-09)
5(9.144369522e-10 1.058503497e-09 1.246069689e-09 1.336591373e-09 1.410715783e-09)
5(8.905368952e-10 1.0211435e-09 1.176751082e-09 1.229377248e-09 1.266244997e-09)
5(8.644358711e-10 9.67880645e-10 1.090292213e-09 1.114572857e-09 1.120237011e-09)
5(8.304842719e-10 9.008831116e-10 9.931571075e-10 9.959487654e-10 9.776428283e-10)
5(7.796882571e-10 8.26150503e-10 8.948588755e-10 8.777119424e-10 8.436905101e-10)
5(7.199042416e-10 7.484038704e-10 7.946280737e-10 7.64078859e-10 7.169161727e-10)
5(6.548143291e-10 6.6852693e-10 6.971835647e-10 6.592480167e-10 6.074998957e-10)
5(5.884005977e-10 5.907124663e-10 6.063195746e-10 5.663271462e-10 5.150240481e-10)
5(5.201708436e-10 5.179178759e-10 5.251108437e-10 4.87562314e-10 4.404926807e-10)
5(4.55064984e-10 4.517413278e-10 4.562130953e-10 4.236175284e-10 3.837688871e-10)
5(3.968847963e-10 3.944382219e-10 3.979532089e-10 3.737864046e-10 3.415712526e-10)
5(3.463243202e-10 3.472585074e-10 3.520787258e-10 3.365517295e-10 3.13291381e-10)
5(3.0375408e-10 3.095844946e-10 3.190538322e-10 3.097214111e-10 2.949958914e-10)
5(2.700236001e-10 2.809533883e-10 2.943105203e-10 2.908935212e-10 2.821593441e-10)
5(2.440472057e-10 2.600578641e-10 2.764163006e-10 2.775427703e-10 2.723030527e-10)
5(2.241121176e-10 2.444133105e-10 2.62662979e-10 2.673959543e-10 2.652986145e-10)
5(2.097357212e-10 2.322437616e-10 2.515983481e-10 2.584456874e-10 2.58206027e-10)
5(1.993273523e-10 2.224719704e-10 2.421817593e-10 2.497655759e-10 2.528349476e-10)
5(1.903580977e-10 2.131965737e-10 2.332586611e-10 2.410703671e-10 2.482180875e-10)
5(1.826654816e-10 2.044566359e-10 2.243174408e-10 2.328875597e-10 2.420248052e-10)
5(1.754031061e-10 1.966187031e-10 2.146339129e-10 2.26076567e-10 2.340996036e-10)
5(1.681130466e-10 1.890916243e-10 2.04764601e-10 2.2072267e-10 2.233344066e-10)
5(1.61234011e-10 1.814649931e-10 1.96413457e-10 2.154794236e-10 2.118724604e-10)
5(1.552104417e-10 1.740881902e-10 1.916114821e-10 2.090852438e-10 2.009574892e-10)
5(1.508555326e-10 1.679443211e-10 1.899470675e-10 2.01552014e-10 1.907784194e-10)
5(1.475201138e-10 1.640810504e-10 1.90249671e-10 1.935103994e-10 1.811614672e-10)
5(1.465761401e-10 1.646788927e-10 1.904068207e-10 1.860043485e-10 1.706036691e-10)
5(1.466699992e-10 1.707370259e-10 1.890230419e-10 1.790828603e-10 1.590003175e-10)
5(1.501637003e-10 1.794372503e-10 1.873890794e-10 1.718794627e-10 1.466801572e-10)
5(1.598415182e-10 1.866681345e-10 1.84920548e-10 1.630069876e-10 1.336482872e-10)
5(1.7284403e-10 1.911235744e-10 1.806087074e-10 1.524034351e-10 1.201326381e-10)
5(1.8860592e-10 1.929822875e-10 1.739516862e-10 1.402460238e-10 1.061341625e-10)
5(2.042866718e-10 1.917950106e-10 1.64268586e-10 1.261623188e-10 9.160681079e-11)
5(2.151047505e-10 1.867358104e-10 1.517857521e-10 1.109589876e-10 7.656392521e-11)
5(2.187904663e-10 1.772147199e-10 1.368200418e-10 9.496173406e-11 6.202456707e-11)
5(2.135329623e-10 1.62360305e-10 1.190866509e-10 7.796835719e-11 4.72781076e-11)
5(1.944293651e-10 1.398543279e-10 9.618057503e-11 5.82874733e-11 3.009080924e-11)
5(1.204349679e-10 4.695581143e-11 -6.253213662e-12 -2.558062253e-11 -4.295983083e-11)
5(5.986201992e-11 -3.268248258e-11 -9.542003735e-11 -9.869650293e-11 -1.066887996e-10)
)


60
(
5(-3.055406221e-10 -1.100399962e-09 5.85989181e-10 2.617905004e-10 1.540058433e-09)
5(-2.653823612e-10 -8.914313579e-10 3.873907666e-10 1.979475364e-10 1.216987558e-09)
5(-2.052181911e-10 -4.362638259e-10 1.169657067e-11 8.712936391e-11 5.439067314e-10)
5(-2.4199218e-10 -1.859312556e-10 -1.556373569e-10 8.844814358e-11 1.884903659e-10)
5(-2.663083409e-10 -5.962252594e-11 -8.027159445e-11 2.310339713e-10 2.298049602e-10)
5(-1.48747457e-10 8.407585546e-11 1.827537796e-10 4.985533867e-10 6.284310443e-10)
5(4.581515195e-11 2.473591839e-10 4.814117501e-10 7.884735703e-10 1.114510898e-09)
5(1.976302455e-10 3.876036927e-10 7.067015592e-10 1.021840828e-09 1.4541255e-09)
5(2.961340366e-10 5.143707398e-10 8.566831363e-10 1.199346701e-09 1.650800916e-09)
5(3.786790398e-10 6.344811331e-10 9.745426776e-10 1.350028071e-09 1.798144008e-09)
5(4.702532639e-10 7.524830763e-10 1.097503725e-09 1.495871312e-09 1.947559552e-09)
5(5.669352839e-10 8.694482959e-10 1.226883327e-09 1.634011791e-09 2.088019951e-09)
5(6.685611275e-10 9.770105923e-10 1.353262312e-09 1.752875391e-09 2.20717499e-09)
5(7.642506977e-10 1.074095023e-09 1.460658579e-09 1.8444551e-09 2.284725729e-09)
5(8.469844523e-10 1.158274379e-09 1.542997203e-09 1.909954582e-09 2.322361765e-09)
5(9.274444283e-10 1.22924602e-09 1.604334358e-09 1.945924417e-09 2.323831801e-09)
5(9.949372401e-10 1.287249895e-09 1.642367412e-09 1.953681467e-09 2.286355893e-09)
5(1.04847558e-09 1.325094327e-09 1.660030636e-09 1.931129934e-09 2.217472013e-09)
5(1.09145467e-09 1.346235915e-09 1.654994218e-09 1.883021306e-09 2.123143877e-09)
5(1.119513324e-09 1.348995994e-09 1.625002676e-09 1.813700799e-09 2.000500377e-09)
5(1.129665593e-09 1.330336395e-09 1.572943253e-09 1.719003784e-09 1.856901425e-09)
5(1.124896609e-09 1.29439616e-09 1.500326138e-09 1.604328931e-09 1.692518432e-09)
5(1.104548829e-09 1.242093741e-09 1.408361368e-09 1.476516882e-09 1.522923991e-09)
5(1.068016903e-09 1.173020987e-09 1.302405022e-09 1.337168382e-09 1.349158475e-09)
5(1.013786351e-09 1.091093445e-09 1.186388104e-09 1.191390639e-09 1.17299204e-09)
5(9.468843451e-10 9.96851901e-10 1.06395605e-09 1.046341587e-09 1.006849661e-09)
5(8.740757515e-10 8.969231467e-10 9.402696517e-10 9.065344737e-10 8.52715554e-10)
5(7.898331394e-10 7.983282311e-10 8.201887267e-10 7.761931375e-10 7.161608055e-10)
5(7.036465758e-10 7.00154515e-10 7.067662e-10 6.592693442e-10 5.988144821e-10)
5(6.181760313e-10 6.067514923e-10 6.047129415e-10 5.592621489e-10 5.007769316e-10)
5(5.351213916e-10 5.227832505e-10 5.170628813e-10 4.759934308e-10 4.24751036e-10)
5(4.6169514e-10 4.499198438e-10 4.434811029e-10 4.092729764e-10 3.66318596e-10)
5(3.967482324e-10 3.882013775e-10 3.839011438e-10 3.589557036e-10 3.251505819e-10)
5(3.413423778e-10 3.389714074e-10 3.389370371e-10 3.223404069e-10 2.988501307e-10)
5(2.969249538e-10 3.010363963e-10 3.060597132e-10 2.970467756e-10 2.809518731e-10)
5(2.622116564e-10 2.728551804e-10 2.823966492e-10 2.798694593e-10 2.693751137e-10)
5(2.368178747e-10 2.523337433e-10 2.658000498e-10 2.676944527e-10 2.614735284e-10)
5(2.180089399e-10 2.368611415e-10 2.537038349e-10 2.583070906e-10 2.559300824e-10)
5(2.038659276e-10 2.253843064e-10 2.441712428e-10 2.503768167e-10 2.518013678e-10)
5(1.934319445e-10 2.162224773e-10 2.355189066e-10 2.428619112e-10 2.485030836e-10)
5(1.849333474e-10 2.079037933e-10 2.267148659e-10 2.356904528e-10 2.446551027e-10)
5(1.776269486e-10 1.999107039e-10 2.174876001e-10 2.292102681e-10 2.373794365e-10)
5(1.706863183e-10 1.91382508e-10 2.077485336e-10 2.236900388e-10 2.278122577e-10)
5(1.636508603e-10 1.827222696e-10 1.98481385e-10 2.180665849e-10 2.179552139e-10)
5(1.559657172e-10 1.741535105e-10 1.919951404e-10 2.114207476e-10 2.085087331e-10)
5(1.501068074e-10 1.657286247e-10 1.887269884e-10 2.042284849e-10 2.002318012e-10)
5(1.454583809e-10 1.598128707e-10 1.87021828e-10 1.97320763e-10 1.92395638e-10)
5(1.409065338e-10 1.581644482e-10 1.859589003e-10 1.911458608e-10 1.84537178e-10)
5(1.382743778e-10 1.611845751e-10 1.853135998e-10 1.865252279e-10 1.76383272e-10)
5(1.381011159e-10 1.67084263e-10 1.852230635e-10 1.828749491e-10 1.67426373e-10)
5(1.421750082e-10 1.730719566e-10 1.858202419e-10 1.783408504e-10 1.573527957e-10)
5(1.507601989e-10 1.788881392e-10 1.866214408e-10 1.722244782e-10 1.464383348e-10)
5(1.634239533e-10 1.847318925e-10 1.860354786e-10 1.642243692e-10 1.34245232e-10)
5(1.778451614e-10 1.898302251e-10 1.828704165e-10 1.539061822e-10 1.203427994e-10)
5(1.929791053e-10 1.929924841e-10 1.763781327e-10 1.408217972e-10 1.049911134e-10)
5(2.053200193e-10 1.925440353e-10 1.652748512e-10 1.251646661e-10 8.866196941e-11)
5(2.105437915e-10 1.851471474e-10 1.483805914e-10 1.062417235e-10 7.089224978e-11)
5(2.041669926e-10 1.659645242e-10 1.213583231e-10 8.082305882e-11 4.851333808e-11)
5(1.200995462e-10 4.887688047e-11 -2.196035531e-11 -3.49749567e-11 -6.252213727e-11)
5(4.296737659e-11 -5.520955845e-11 -1.47971527e-10 -1.357602416e-10 -1.605125188e-10)
)


60
(
5(-6.0806296e-10 -1.386857605e-09 2.950600659e-10 3.995333456e-11 1.219276218e-09)
5(-5.11404542e-10 -1.119424764e-09 1.516232527e-10 2.490105927e-11 9.690685045e-10)
5(-3.247082228e-10 -5.334771603e-10 -9.429515046e-11 2.753368436e-11 4.71422345e-10)
5(-2.849768849e-10 -2.061042675e-10 -1.588986828e-10 1.193724206e-10 2.522212656e-10)
5(-2.732743288e-10 -4.233878787e-11 -1.668350248e-11 3.252406122e-10 3.692698272e-10)
5(-1.303898634e-10 1.304490737e-10 2.818012614e-10 6.327235314e-10 8.222112008e-10)
5(8.537018484e-11 3.218596168e-10 6.002328775e-10 9.535334937e-10 1.344041017e-09)
5(2.572547021e-10 4.901588832e-10 8.519532652e-10 1.218826619e-09 1.716415923e-09)
5(3.779495002e-10 6.415126964e-10 1.032607918e-09 1.428071736e-09 1.9591573e-09)
5(4.848959546e-10 7.835126258e-10 1.178306819e-09 1.607829967e-09 2.137919006e-09)
5(5.936549057e-10 9.221367301e-10 1.323164469e-09 1.776993189e-09 2.308377475e-09)
5(7.094605709e-10 1.055307782e-09 1.470574915e-09 1.933122121e-09 2.470393935e-09)
5(8.276640971e-10 1.17870416e-09 1.610450715e-09 2.066443076e-09 2.600549146e-09)
5(9.380259874e-10 1.288184422e-09 1.727644425e-09 2.167206343e-09 2.685026175e-09)
5(1.038118291e-09 1.384751072e-09 1.817460547e-09 2.234092134e-09 2.719397431e-09)
5(1.121127094e-09 1.463401094e-09 1.880674168e-09 2.270964062e-09 2.714036831e-09)
5(1.194745383e-09 1.524543976e-09 1.921696777e-09 2.277285562e-09 2.669247612e-09)
5(1.25423652e-09 1.564402259e-09 1.937262435e-09 2.250509486e-09 2.587353606e-09)
5(1.302269273e-09 1.581691283e-09 1.925661387e-09 2.193308368e-09 2.471782933e-09)
5(1.33066157e-09 1.580680532e-09 1.88804471e-09 2.107181683e-09 2.32594326e-09)
5(1.334810048e-09 1.55769369e-09 1.823674061e-09 1.996486131e-09 2.16823901e-09)
5(1.325027318e-09 1.512275158e-09 1.736648638e-09 1.865427624e-09 1.981970189e-09)
5(1.299042089e-09 1.447709518e-09 1.630237488e-09 1.717099127e-09 1.779121915e-09)
5(1.250040531e-09 1.36512635e-09 1.506195021e-09 1.555018299e-09 1.575021576e-09)
5(1.184496228e-09 1.267244794e-09 1.370996329e-09 1.387344683e-09 1.374934101e-09)
5(1.106370563e-09 1.161308992e-09 1.231042969e-09 1.219796591e-09 1.182625351e-09)
5(1.017051818e-09 1.047592824e-09 1.087644091e-09 1.056342971e-09 1.000093075e-09)
5(9.19525193e-10 9.285348716e-10 9.467442597e-10 9.028090897e-10 8.368862207e-10)
5(8.170899275e-10 8.122251542e-10 8.145887099e-10 7.635327846e-10 6.945490604e-10)
5(7.162802741e-10 7.019318712e-10 6.92737073e-10 6.407073968e-10 5.735666652e-10)
5(6.186890196e-10 6.00361483e-10 5.854002701e-10 5.379467848e-10 4.770334239e-10)
5(5.286988484e-10 5.097921784e-10 4.942290753e-10 4.547954243e-10 4.020262261e-10)
5(4.486464584e-10 4.335394779e-10 4.211934982e-10 3.888655634e-10 3.449896652e-10)
5(3.801450206e-10 3.717931504e-10 3.648347508e-10 3.400413166e-10 3.071451111e-10)
5(3.247910858e-10 3.232975946e-10 3.213302805e-10 3.055943395e-10 2.83369549e-10)
5(2.82415348e-10 2.862300886e-10 2.897208679e-10 2.819675711e-10 2.66643575e-10)
5(2.488484299e-10 2.588355743e-10 2.678386257e-10 2.660273354e-10 2.562962796e-10)
5(2.241565633e-10 2.395981015e-10 2.529658508e-10 2.551503738e-10 2.503785428e-10)
5(2.068011604e-10 2.261522351e-10 2.420244183e-10 2.47056729e-10 2.468063341e-10)
5(1.938988497e-10 2.154348969e-10 2.33003072e-10 2.401160032e-10 2.442662114e-10)
5(1.847292918e-10 2.063020591e-10 2.246167625e-10 2.336176006e-10 2.410906849e-10)
5(1.768824409e-10 1.980763652e-10 2.157839883e-10 2.277270312e-10 2.353734206e-10)
5(1.698210798e-10 1.894510706e-10 2.059754293e-10 2.222351278e-10 2.274108294e-10)
5(1.633159273e-10 1.808853321e-10 1.963156093e-10 2.161523038e-10 2.183673129e-10)
5(1.562705191e-10 1.723483676e-10 1.888548924e-10 2.089227577e-10 2.094428261e-10)
5(1.498534188e-10 1.635083649e-10 1.838021681e-10 2.009742479e-10 2.01577734e-10)
5(1.434671908e-10 1.560740567e-10 1.798616133e-10 1.933947812e-10 1.945191893e-10)
5(1.37268388e-10 1.518945243e-10 1.763208592e-10 1.872013017e-10 1.878755195e-10)
5(1.324798256e-10 1.51488315e-10 1.736029964e-10 1.827375283e-10 1.81745843e-10)
5(1.284363166e-10 1.528361853e-10 1.720190449e-10 1.80044787e-10 1.758235543e-10)
5(1.280208413e-10 1.551243e-10 1.721405133e-10 1.783931753e-10 1.694680201e-10)