/*--------------------------------*- C++ -*----------------------------------*\
| =========                 |                                                 |
| \\      /  F ield         | OpenFOAM: The Open Source CFD Toolbox           |
|  \\    /   O peration     | Version:  2.3.1                                 |
|   \\  /    A nd           | Web:      www.OpenFOAM.org                      |
|    \\/     M anipulation  |                                                 |
\*---------------------------------------------------------------------------*/
FoamFile
{
    version     2.0;
    format      ascii;
    class       dictionary;
    location    "constant";
    object      DPSI53;
}
// * * * * * * * * * * * * * * * * * * * * * * * * * * * * * * * * * * * * * //

DPSI53_table
60
(

60
(
5(9.193431913e-13 1.469630834e-13 -1.171651723e-14 2.373498204e-13 -1.257506569e-13)
5(8.81233956e-13 1.317352344e-13 -1.494389847e-13 1.772849621e-13 4.560377173e-14)
5(1.996651597e-11 1.103612267e-11 1.249378548e-13 2.902577804e-13 3.20883663e-13)
5(5.641234109e-11 3.304654932e-11 3.219455127e-13 1.540239439e-13 -2.452215954e-13)
5(8.223990939e-11 4.53212524e-11 1.951679708e-13 2.668024385e-13 1.511053169e-13)
5(8.583407873e-11 4.46866914e-11 1.634569353e-13 9.194576035e-14 2.777624535e-13)
5(5.255445613e-13 4.283655622e-13 2.462425178e-13 3.219747427e-14 -1.213110691e-13)
5(-8.027320017e-14 -2.057868288e-14 2.513266544e-13 4.508689976e-13 4.241659057e-13)
5(1.253213019e-10 6.435713506e-11 3.27953622e-13 4.339595247e-13 3.659575957e-13)
5(2.080073005e-10 1.07169385e-10 7.675139461e-13 6.591166528e-13 3.348789914e-13)
5(2.399231001e-10 1.235862523e-10 1.061336316e-12 7.402976698e-13 4.617346981e-13)
5(8.909221576e-11 4.591869998e-11 6.966857593e-13 7.170553591e-13 5.651281586e-13)
5(6.00598844e-14 4.70053177e-13 7.921881093e-13 7.582988526e-13 7.880044574e-13)
5(5.083250598e-13 7.902700476e-13 1.116411605e-12 1.000141671e-12 8.030673136e-13)
5(3.085501987e-13 7.7952654e-13 1.165962421e-12 1.1413533e-12 1.167822823e-12)
5(8.315713405e-12 5.807976598e-12 2.442690849e-12 1.72097815e-12 1.629712328e-12)
5(8.492794525e-12 5.70228289e-12 2.640246724e-12 2.171873906e-12 1.74770275e-12)
5(3.23688413e-12 3.380707189e-12 2.706916212e-12 2.043526437e-12 2.097056377e-12)
5(-9.646611464e-14 1.506886347e-12 2.745051228e-12 2.287742827e-12 2.166477339e-12)
5(4.715346669e-13 1.816562744e-12 2.913291758e-12 3.050563116e-12 3.392493912e-12)
5(6.025384192e-13 2.248485354e-12 3.409705421e-12 3.732161337e-12 4.49638838e-12)
5(7.660795332e-13 2.243053058e-12 4.847711375e-12 5.437715189e-12 4.83386829e-12)
5(8.277423621e-13 3.114275251e-12 5.503957018e-12 6.201941995e-12 6.741479022e-12)
5(-1.670982672e-12 3.339569048e-12 7.528370156e-12 7.933678367e-12 9.16049151e-12)
5(-6.817079129e-12 4.098272855e-12 1.141042836e-11 1.032308343e-11 1.29683303e-11)
5(-1.991810373e-11 2.685358284e-12 1.769401475e-11 1.522672718e-11 2.078601804e-11)
5(-2.198312007e-11 2.7988067e-12 1.779399683e-11 1.91609504e-11 3.084617564e-11)
5(-1.724940818e-11 -8.723249873e-13 1.332244644e-11 2.855874873e-11 4.638921091e-11)
5(-2.712856256e-11 -7.337039305e-15 2.064862367e-11 3.857728432e-11 6.367003158e-11)
5(-5.09812513e-11 -2.768821335e-12 3.789767787e-11 5.85887581e-11 8.800416337e-11)
5(-7.888251571e-11 -9.639217772e-12 5.24321224e-11 9.326709557e-11 1.430914478e-10)
5(-1.068039512e-10 -4.524201525e-12 9.469482157e-11 1.609723178e-10 2.326314203e-10)
5(-1.616145398e-10 -1.026924746e-11 1.527645811e-10 2.14661573e-10 2.681173656e-10)
5(-2.179100406e-10 -1.271804125e-11 2.626878665e-10 4.113276299e-10 4.934871084e-10)
5(-2.189762988e-10 4.035506524e-11 3.988610225e-10 5.996378693e-10 7.051514307e-10)
5(-2.973459588e-10 2.947040473e-11 6.438068399e-10 9.394198534e-10 9.508542414e-10)
5(-4.579452526e-11 3.715307266e-10 9.364288044e-10 1.041413597e-09 1.000190445e-09)
5(2.432240951e-11 6.546031899e-10 1.33873323e-09 1.560602075e-09 1.729691525e-09)
5(4.854215147e-10 1.009806364e-09 1.811897808e-09 1.710056014e-09 1.323484136e-09)
5(1.192066278e-09 1.496810058e-09 2.235778668e-09 2.368912377e-09 2.041453514e-09)
5(2.183341251e-09 2.332305261e-09 2.477132891e-09 2.043687727e-09 1.583410267e-09)
5(2.891212696e-09 2.892839404e-09 2.642027887e-09 1.700577676e-09 9.813021896e-10)
5(3.925896325e-09 3.41023657e-09 2.586973773e-09 1.157886344e-09 -1.666054518e-27)
5(4.13442302e-09 3.036971162e-09 2.165472344e-09 1.203954212e-09 -2.688434011e-11)
5(4.285849788e-09 2.977395187e-09 1.455316731e-09 6.423342469e-10 -2.145737425e-12)
5(3.322468378e-09 2.419633254e-09 9.359032914e-10 1.94060682e-10 -4.225261714e-26)
5(2.471495312e-09 1.62544494e-09 4.271857363e-10 5.433016622e-11 5.406226807e-12)
5(2.090128086e-09 1.119875504e-09 7.492322873e-11 1.16823664e-11 -3.100336606e-25)
5(8.2149513e-10 4.449410918e-10 3.08709923e-11 1.282556716e-12 -8.021338847e-25)
5(3.292247735e-10 1.664000277e-10 5.768457707e-13 -1.295356538e-24 -1.992043605e-24)
5(1.189223498e-10 5.997158793e-11 -9.088775518e-25 -3.127959866e-24 -4.792642919e-24)
5(2.276939782e-11 1.153203077e-11 -2.149361219e-24 -7.297824906e-24 -1.115254224e-23)
5(2.163207931e-13 1.097368616e-13 -4.938328303e-24 -1.654265628e-23 -2.520691201e-23)
5(-1.067281594e-24 -2.662843051e-24 -1.101022589e-23 -3.667629277e-23 -5.592651281e-23)
5(-2.382434501e-24 -5.938030278e-24 -2.400170964e-23 -7.874811855e-23 -1.19708689e-22)
5(-2.691026396e-24 -1.167304038e-23 -5.05707961e-23 -1.642031425e-22 -2.494996431e-22)
5(-2.997359069e-25 -2.213376076e-23 -1.037952795e-22 -3.257071e-22 -4.909438417e-22)
5(-2.405171335e-23 -4.954691381e-23 -1.968984732e-22 -6.229025395e-22 -9.323800929e-22)
5(-6.969948137e-23 -1.463497912e-22 -2.622841391e-22 -1.094711014e-21 -1.908056939e-21)
5(-1.485012904e-22 -3.642321602e-22 -1.472358976e-21 -3.684096864e-21 -5.019443096e-21)
)


60
(
5(1.253142268e-12 2.754854387e-13 8.436420282e-14 4.338954897e-13 -1.904776325e-14)
5(5.961127568e-13 3.490669315e-13 2.763031298e-13 3.885210359e-13 2.911983826e-13)
5(2.567762697e-13 3.937334731e-13 4.124304475e-13 4.078464491e-13 4.742535606e-13)
5(1.438810347e-13 4.375530172e-13 5.18371459e-13 4.772756638e-13 6.00508063e-13)
5(2.49923743e-13 5.213864623e-13 6.193272549e-13 5.869456214e-13 6.809378475e-13)
5(4.538260121e-13 6.510522688e-13 7.302816333e-13 7.028619933e-13 7.461546437e-13)
5(6.401243402e-13 8.139222303e-13 8.800682958e-13 8.338974079e-13 8.437865188e-13)
5(7.403689956e-13 9.936921703e-13 1.069716194e-12 9.854867149e-13 1.022728686e-12)
5(8.057120204e-13 1.203004753e-12 1.29915558e-12 1.161816896e-12 1.266285906e-12)
5(8.872676789e-13 1.424654157e-12 1.56225786e-12 1.361893404e-12 1.499158728e-12)
5(1.162666153e-12 1.737253844e-12 1.860143504e-12 1.62710206e-12 1.777061894e-12)
5(1.383735875e-12 2.051468182e-12 2.217113794e-12 1.947854091e-12 2.108080162e-12)
5(1.702158744e-12 2.439464533e-12 2.625800864e-12 2.322717248e-12 2.491909124e-12)
5(2.068833614e-12 2.896461056e-12 3.128864945e-12 2.78888836e-12 2.957807205e-12)
5(2.450689004e-12 3.423762558e-12 3.71707291e-12 3.327145453e-12 3.523955897e-12)
5(2.87172284e-12 4.008255946e-12 4.368282656e-12 3.915300458e-12 4.139757448e-12)
5(3.553937175e-12 4.773505562e-12 5.101138512e-12 4.564819931e-12 4.81139288e-12)
5(4.156218912e-12 5.549212393e-12 5.911971628e-12 5.331534274e-12 5.665859752e-12)
5(4.685764837e-12 6.351174485e-12 6.802413588e-12 6.156021109e-12 6.605494864e-12)
5(5.184488738e-12 7.165662495e-12 7.683946194e-12 7.027204015e-12 7.716000895e-12)
5(5.496125168e-12 7.897396018e-12 8.513230887e-12 7.826272234e-12 8.815122331e-12)
5(5.476494094e-12 8.38346849e-12 9.169487487e-12 8.61496336e-12 1.008812041e-11)
5(4.243568755e-12 8.227122478e-12 9.452679315e-12 9.049422857e-12 1.135737335e-11)
5(1.121789792e-12 6.827381763e-12 8.818300918e-12 8.981812846e-12 1.29036385e-11)
5(-4.099832893e-12 3.875869167e-12 6.717434172e-12 7.669061656e-12 1.393381765e-11)
5(-1.443283538e-11 -2.484114113e-12 1.931434298e-12 4.222433916e-12 1.446651442e-11)
5(-3.168436199e-11 -1.418414312e-11 -7.241990688e-12 -2.118157717e-12 1.435071507e-11)
5(-6.046294725e-11 -3.44920242e-11 -2.303283518e-11 -1.208229918e-11 1.474293767e-11)
5(-1.059277457e-10 -6.753495305e-11 -4.848965805e-11 -2.866863363e-11 1.270449328e-11)
5(-1.771136303e-10 -1.20016338e-10 -8.744610642e-11 -5.231606029e-11 1.077833597e-11)
5(-2.798375183e-10 -1.979911527e-10 -1.441581674e-10 -8.179678992e-11 1.369351396e-11)
5(-4.282922957e-10 -3.090539479e-10 -2.196243841e-10 -1.164602688e-10 2.394602801e-11)
5(-6.276490759e-10 -4.610137082e-10 -3.156725945e-10 -1.480764802e-10 5.111642622e-11)
5(-8.861550798e-10 -6.553563334e-10 -4.232394788e-10 -1.523229842e-10 1.312016133e-10)
5(-1.202141016e-09 -8.879871968e-10 -5.194726503e-10 -1.037336755e-10 2.756448184e-10)
5(-1.54530396e-09 -1.133476258e-09 -5.761790086e-10 4.441656757e-11 5.417767703e-10)
5(-1.880908469e-09 -1.35171998e-09 -5.359440899e-10 3.411438508e-10 9.578274236e-10)
5(-2.144305009e-09 -1.476482293e-09 -3.328998873e-10 8.391027344e-10 1.564705494e-09)
5(-2.216245364e-09 -1.414365582e-09 9.7651603e-11 1.604811999e-09 2.432567957e-09)
5(-2.021132256e-09 -1.067960184e-09 8.370908168e-10 2.67788355e-09 3.597400873e-09)
5(-1.398475878e-09 -3.414762531e-10 1.869911319e-09 3.991342071e-09 4.985564369e-09)
5(-3.971830893e-10 7.36681918e-10 3.181710574e-09 5.371760174e-09 6.271082964e-09)
5(1.083932114e-09 2.143940866e-09 4.578512272e-09 6.48227e-09 7.019517263e-09)
5(2.8528323e-09 3.655546163e-09 5.763562691e-09 6.997958793e-09 6.918948675e-09)
5(4.476025622e-09 4.975330108e-09 6.457644346e-09 6.723373662e-09 5.983053422e-09)
5(5.65908348e-09 5.796070628e-09 6.384831175e-09 5.690506006e-09 4.510165673e-09)
5(6.125730613e-09 5.917845981e-09 5.524602669e-09 4.156888724e-09 2.935504594e-09)
5(5.725754574e-09 5.238632321e-09 4.135261779e-09 2.58171449e-09 1.60676502e-09)
5(4.649266576e-09 4.000597979e-09 2.634494254e-09 1.335766189e-09 7.226242291e-10)
5(3.172788112e-09 2.540193753e-09 1.385236356e-09 5.731164752e-10 2.598997853e-10)
5(1.804536039e-09 1.338761916e-09 5.849580834e-10 1.953642576e-10 7.949401409e-11)
5(7.705963527e-10 5.386787339e-10 1.942661704e-10 5.451396815e-11 2.070545956e-11)
5(2.649859738e-10 1.736009751e-10 5.025317112e-11 1.271496541e-11 4.676923859e-12)
5(5.957466055e-11 3.765802482e-11 9.424213684e-12 2.288632621e-12 8.86590203e-13)
5(8.83620326e-12 5.630627237e-12 1.435594814e-12 3.346788466e-13 1.364903758e-13)
5(7.771512312e-13 4.943515435e-13 1.315582777e-13 3.729705657e-14 1.517355086e-14)
5(4.19585622e-14 2.949464674e-14 9.924419103e-15 2.16109587e-15 1.143954442e-15)
5(1.209696234e-15 8.630906071e-16 2.79252902e-16 7.124857763e-17 9.127435627e-17)
5(8.292361251e-17 -6.108173799e-17 3.199032867e-19 6.668942307e-17 -7.899060712e-17)
5(-4.326418159e-22 -1.84187153e-13 6.380682802e-17 1.884794702e-13 -7.512053938e-21)
)


60
(
5(1.869811024e-12 4.356700217e-13 1.500786538e-13 7.618510171e-13 1.983699894e-13)
5(1.102626675e-12 6.967633302e-13 5.446542566e-13 7.413521278e-13 6.246653878e-13)
5(6.451756963e-13 8.419793262e-13 8.387743133e-13 8.172531332e-13 9.181595204e-13)
5(5.478338628e-13 9.783988591e-13 1.070341965e-12 9.793733457e-13 1.145846588e-12)
5(7.622918371e-13 1.173833552e-12 1.297550535e-12 1.22048613e-12 1.350034502e-12)
5(1.203301536e-12 1.481627778e-12 1.568030682e-12 1.492723737e-12 1.523461307e-12)
5(1.613882114e-12 1.858878368e-12 1.926014269e-12 1.806728186e-12 1.770772515e-12)
5(1.926645774e-12 2.291340909e-12 2.362802136e-12 2.163534167e-12 2.153731919e-12)
5(2.165891987e-12 2.76730741e-12 2.89341658e-12 2.583383676e-12 2.637157158e-12)
5(2.592628559e-12 3.371917203e-12 3.521393419e-12 3.122871787e-12 3.232616666e-12)
5(3.188613382e-12 4.114929735e-12 4.288533566e-12 3.776568269e-12 3.883691871e-12)
5(4.059937205e-12 5.047187049e-12 5.194302005e-12 4.575414613e-12 4.646810722e-12)
5(5.000549735e-12 6.063669067e-12 6.253233647e-12 5.549228627e-12 5.551826484e-12)
5(6.16819901e-12 7.321663832e-12 7.524678103e-12 6.72060746e-12 6.679473735e-12)
5(7.573184479e-12 8.834960477e-12 9.046823147e-12 8.053683802e-12 7.89992719e-12)
5(9.487386893e-12 1.074933256e-11 1.083661015e-11 9.622404685e-12 9.341537736e-12)
5(1.11936843e-11 1.269709354e-11 1.290305516e-11 1.138366759e-11 1.089697836e-11)
5(1.3352586e-11 1.5020992e-11 1.522581769e-11 1.328158346e-11 1.250660907e-11)
5(1.603527843e-11 1.770549993e-11 1.767330322e-11 1.53106666e-11 1.432384427e-11)
5(1.884281572e-11 2.052970632e-11 2.029358514e-11 1.752305419e-11 1.631752054e-11)
5(2.238770145e-11 2.370952962e-11 2.285575602e-11 1.977263762e-11 1.846934334e-11)
5(2.510319801e-11 2.640648679e-11 2.522211179e-11 2.15138484e-11 1.987648479e-11)
5(2.738510651e-11 2.892667578e-11 2.724833747e-11 2.280241453e-11 2.115681883e-11)
5(2.867727257e-11 3.053014782e-11 2.809680607e-11 2.292725485e-11 2.164701615e-11)
5(2.75819184e-11 3.003868466e-11 2.675102787e-11 2.100577722e-11 2.067549259e-11)
5(2.127729507e-11 2.527030091e-11 2.137278219e-11 1.552732486e-11 1.739956195e-11)
5(7.927232372e-12 1.429072533e-11 1.01341824e-11 4.32675592e-12 9.119852124e-12)
5(-1.566174933e-11 -5.997075191e-12 -1.153634141e-11 -1.587150896e-11 -4.501891664e-12)
5(-6.060218404e-11 -4.402948328e-11 -4.78217816e-11 -4.9398649e-11 -2.942946253e-11)
5(-1.300176101e-10 -1.052887581e-10 -1.064415256e-10 -1.019607567e-10 -6.947180039e-11)
5(-2.400079387e-10 -2.016095005e-10 -1.951832328e-10 -1.731188104e-10 -1.154860084e-10)
5(-4.039230913e-10 -3.442704016e-10 -3.212697192e-10 -2.730916727e-10 -1.826473232e-10)
5(-6.334278503e-10 -5.471484782e-10 -4.934928834e-10 -3.920668908e-10 -2.49751236e-10)
5(-9.404562764e-10 -8.191779174e-10 -7.073986906e-10 -5.272104301e-10 -3.260802521e-10)
5(-1.340953152e-09 -1.16774786e-09 -9.575272732e-10 -6.44562498e-10 -3.530691803e-10)
5(-1.819078317e-09 -1.577089051e-09 -1.217746576e-09 -7.178452829e-10 -3.150943279e-10)
5(-2.332810954e-09 -2.012228088e-09 -1.44048131e-09 -6.748977264e-10 -1.355499289e-10)
5(-2.88235849e-09 -2.435119305e-09 -1.549313208e-09 -4.432402321e-10 2.545462442e-10)
5(-3.309464092e-09 -2.713343173e-09 -1.444777963e-09 8.265472216e-11 9.729508056e-10)
5(-3.533961178e-09 -2.765121154e-09 -1.03135759e-09 9.936945825e-10 2.093188103e-09)
5(-3.408998956e-09 -2.451450954e-09 -2.161634946e-10 2.332241839e-09 3.644799234e-09)
5(-2.785198815e-09 -1.648334923e-09 1.036169945e-09 3.973542273e-09 5.404479906e-09)
5(-1.598509532e-09 -3.49003118e-10 2.643002481e-09 5.665595844e-09 6.981256204e-09)
5(4.999980308e-11 1.321588625e-09 4.397170012e-09 7.075479302e-09 7.974829231e-09)
5(2.062227188e-09 3.190720835e-09 5.923237527e-09 7.805662411e-09 8.094352206e-09)
5(4.03076776e-09 4.873344298e-09 6.841803611e-09 7.65900365e-09 7.344817504e-09)
5(5.474104855e-09 5.994830555e-09 6.923300381e-09 6.59374759e-09 5.838036462e-09)
5(6.196856392e-09 6.266076996e-09 6.08411873e-09 4.954002319e-09 4.046472071e-09)
5(5.952118756e-09 5.625155391e-09 4.608682833e-09 3.17799306e-09 2.404953477e-09)
5(4.863691949e-09 4.285011751e-09 2.974229562e-09 1.718524381e-09 1.164416529e-09)
5(3.358007422e-09 2.738200356e-09 1.573708873e-09 7.621789066e-10 4.711344718e-10)
5(1.851967128e-09 1.406052326e-09 6.645072624e-10 2.648802141e-10 1.457760828e-10)
5(7.783188622e-10 5.544410056e-10 2.154048168e-10 7.18972396e-11 3.654859243e-11)
5(2.276929748e-10 1.553211071e-10 5.108045148e-11 1.413767517e-11 6.879718821e-12)
5(4.668826857e-11 3.038232397e-11 8.368752185e-12 2.107693866e-12 1.075658006e-12)
5(5.147366377e-12 3.362979517e-12 9.09038399e-13 2.088161714e-13 1.259370372e-13)
5(3.57013797e-13 2.176228263e-13 4.722503503e-14 1.438149154e-14 8.500590395e-15)
5(1.01138e-14 4.067059164e-15 5.085414601e-16 4.370022961e-16 -2.344789344e-15)
5(8.205850369e-13 -2.415346042e-16 -1.802541266e-13 4.650586123e-17 -4.931063408e-13)
5(1.059198043e-20 -4.019389278e-13 1.078902861e-16 4.11497565e-13 -1.260978854e-20)
)


60
(
5(2.575835742e-12 6.245536308e-13 2.534309628e-13 1.239120507e-12 6.107432878e-13)
5(1.711905766e-12 1.154012099e-12 9.626377969e-13 1.308880308e-12 1.204352164e-12)
5(1.188654247e-12 1.488365848e-12 1.505700557e-12 1.505539374e-12 1.674815069e-12)
5(1.098327364e-12 1.741124381e-12 1.930922604e-12 1.847642545e-12 2.099185597e-12)
5(1.501135488e-12 2.106717628e-12 2.361734293e-12 2.311414062e-12 2.491665462e-12)
5(2.251477035e-12 2.673554604e-12 2.886633862e-12 2.82779956e-12 2.849675432e-12)
5(2.974423832e-12 3.342661832e-12 3.527114018e-12 3.430611308e-12 3.376890807e-12)
5(3.517234524e-12 4.085775884e-12 4.335807852e-12 4.159349885e-12 4.147527321e-12)
5(4.090078177e-12 4.997368891e-12 5.337926226e-12 5.01245613e-12 5.086340232e-12)
5(4.962973121e-12 6.138852149e-12 6.541318954e-12 6.081821841e-12 6.211366064e-12)
5(6.122232424e-12 7.508638269e-12 7.974483188e-12 7.382955164e-12 7.508421209e-12)
5(7.704472896e-12 9.169269936e-12 9.694402082e-12 9.04372518e-12 9.103324844e-12)
5(9.693071103e-12 1.118856831e-11 1.179980332e-11 1.104332425e-11 1.090884438e-11)
5(1.176208693e-11 1.350900323e-11 1.433753651e-11 1.334898319e-11 1.298453808e-11)
5(1.441333266e-11 1.63792638e-11 1.731570024e-11 1.612013724e-11 1.562388348e-11)
5(1.78887445e-11 1.983655217e-11 2.067979718e-11 1.919924182e-11 1.844626907e-11)
5(2.221142301e-11 2.398325471e-11 2.464016378e-11 2.276833639e-11 2.157570662e-11)
5(2.627786725e-11 2.823940874e-11 2.909642158e-11 2.682712734e-11 2.517939605e-11)
5(3.250964824e-11 3.380275729e-11 3.383143615e-11 3.095936341e-11 2.879260835e-11)
5(3.77701345e-11 3.90804178e-11 3.908768533e-11 3.563760801e-11 3.287740006e-11)
5(4.413432057e-11 4.53751079e-11 4.49052205e-11 4.028123946e-11 3.669288606e-11)
5(5.351819779e-11 5.293228199e-11 5.037007008e-11 4.416742801e-11 3.915366753e-11)
5(6.138097441e-11 5.959740467e-11 5.59549975e-11 4.849777036e-11 4.202674122e-11)
5(6.484796372e-11 6.364661356e-11 6.075131613e-11 5.135460557e-11 4.275717828e-11)
5(6.997714395e-11 6.828157815e-11 6.324388528e-11 5.194484925e-11 4.30869368e-11)
5(7.185774686e-11 6.906969126e-11 6.120619077e-11 4.751791109e-11 3.802247342e-11)
5(6.790562456e-11 6.342281875e-11 5.186980999e-11 3.566973817e-11 2.573178807e-11)
5(5.257755657e-11 4.723880936e-11 3.133852255e-11 1.283906147e-11 4.307332572e-12)
5(1.968979582e-11 1.431504619e-11 -6.788848485e-12 -2.762982196e-11 -3.294120809e-11)
5(-4.052778959e-11 -4.522940805e-11 -7.093924843e-11 -9.199277676e-11 -9.160913548e-11)
5(-1.395396813e-10 -1.433779514e-10 -1.730416068e-10 -1.908889291e-10 -1.815618539e-10)
5(-2.932714639e-10 -2.939871293e-10 -3.245089882e-10 -3.309608978e-10 -3.048942842e-10)
5(-5.201365552e-10 -5.156401414e-10 -5.401631539e-10 -5.191228493e-10 -4.644539503e-10)
5(-8.414617885e-10 -8.246777235e-10 -8.229918495e-10 -7.479252025e-10 -6.505884062e-10)
5(-1.272592764e-09 -1.234552784e-09 -1.178601018e-09 -1.016252713e-09 -8.613897551e-10)
5(-1.822128434e-09 -1.747930641e-09 -1.593903764e-09 -1.271278698e-09 -1.013686355e-09)
5(-2.463744964e-09 -2.347114003e-09 -2.031368103e-09 -1.478482256e-09 -1.105373894e-09)
5(-3.163841574e-09 -2.974707179e-09 -2.419215894e-09 -1.547025259e-09 -1.016488933e-09)
5(-3.859408022e-09 -3.56412891e-09 -2.662825981e-09 -1.355275504e-09 -6.231529072e-10)
5(-4.444791591e-09 -3.993034504e-09 -2.631659146e-09 -7.596770029e-10 2.39868167e-10)
5(-4.75364749e-09 -4.088643135e-09 -2.189689443e-09 3.272781354e-10 1.654536612e-09)
5(-4.636161432e-09 -3.717073224e-09 -1.228932264e-09 1.864294803e-09 3.437695096e-09)
5(-3.897475504e-09 -2.737807996e-09 2.736831282e-10 3.761286901e-09 5.447556712e-09)
5(-2.508491045e-09 -1.161547364e-09 2.20317861e-09 5.665678353e-09 7.156315371e-09)
5(-4.779486993e-10 9.202811617e-10 4.252957834e-09 7.207550112e-09 8.263209874e-09)
5(1.901204175e-09 3.201075174e-09 6.010384263e-09 8.023098745e-09 8.547891998e-09)
5(4.184247419e-09 5.253050957e-09 7.071111697e-09 7.844598742e-09 7.875662944e-09)
5(6.058625277e-09 6.613353973e-09 7.174705311e-09 6.7806595e-09 6.368070023e-09)
5(7.036876765e-09 6.987440489e-09 6.297360675e-09 5.05297822e-09 4.421722695e-09)
5(6.879454592e-09 6.333309569e-09 4.769907913e-09 3.186612685e-09 2.58484462e-09)
5(5.754540831e-09 4.858523926e-09 3.017703891e-09 1.696935024e-09 1.282927213e-09)
5(4.046608144e-09 3.101946701e-09 1.547925998e-09 7.342097574e-10 4.961188485e-10)
5(2.199846703e-09 1.571946199e-09 6.301014971e-10 2.43586701e-10 1.500942874e-10)
5(9.032887715e-10 6.057454513e-10 1.903493077e-10 5.807998132e-11 3.416031639e-11)
5(2.779576806e-10 1.734344153e-10 3.947295755e-11 9.360589608e-12 5.439069476e-12)
5(4.735694871e-11 2.81533799e-11 4.914113731e-12 1.021249681e-12 5.707296578e-13)
5(3.029525781e-12 1.912009115e-12 4.15828727e-13 5.781763495e-14 4.358059841e-14)
5(2.109824625e-13 1.289655053e-13 1.469857183e-14 1.84820626e-15 1.907158019e-14)
5(-4.274606211e-12 2.310837165e-14 2.672345013e-13 -2.036627026e-14 3.958601348e-12)
5(-8.570319208e-15 3.680610084e-17 4.338219574e-15 9.175477401e-20 2.124584714e-16)
)


60
(
5(3.339359661e-12 8.509977534e-13 4.171994041e-13 1.867188795e-12 1.225705866e-12)
5(2.436531523e-12 1.740819153e-12 1.547235395e-12 2.097165975e-12 2.038367652e-12)
5(1.89231937e-12 2.333647935e-12 2.424120268e-12 2.486592873e-12 2.752416675e-12)
5(1.860180804e-12 2.756172104e-12 3.104915251e-12 3.08234404e-12 3.452669381e-12)
5(2.468830225e-12 3.316777592e-12 3.79781716e-12 3.841050022e-12 4.096021481e-12)
5(3.530449368e-12 4.181692138e-12 4.656533072e-12 4.687233742e-12 4.729795085e-12)
5(4.612189696e-12 5.198327625e-12 5.692088584e-12 5.681850755e-12 5.584025908e-12)
5(5.479419716e-12 6.347727909e-12 6.988680566e-12 6.912901773e-12 6.868163245e-12)
5(6.445972615e-12 7.762663894e-12 8.556022968e-12 8.341121937e-12 8.436637192e-12)
5(7.810638973e-12 9.502493128e-12 1.045962323e-11 1.015925125e-11 1.036066146e-11)
5(9.604140373e-12 1.160494116e-11 1.278124105e-11 1.233718921e-11 1.24601509e-11)
5(1.216301942e-11 1.424579693e-11 1.559005062e-11 1.511501506e-11 1.508565438e-11)
5(1.495119638e-11 1.73131587e-11 1.899028032e-11 1.837558048e-11 1.81179356e-11)
5(1.901491647e-11 2.128345849e-11 2.30145153e-11 2.238327131e-11 2.190734225e-11)
5(2.295060293e-11 2.55823391e-11 2.774666938e-11 2.686973657e-11 2.603336854e-11)
5(2.806214887e-11 3.07145519e-11 3.312111343e-11 3.207278019e-11 3.078306652e-11)
5(3.483894005e-11 3.720689178e-11 3.933124045e-11 3.783698186e-11 3.602571338e-11)
5(4.20241081e-11 4.43343688e-11 4.634285487e-11 4.436401034e-11 4.205788023e-11)
5(5.066650768e-11 5.242615473e-11 5.416047456e-11 5.142029278e-11 4.798114818e-11)
5(6.023787445e-11 6.146711784e-11 6.279550254e-11 5.895436976e-11 5.419391088e-11)
5(7.118567542e-11 7.141307528e-11 7.187141104e-11 6.692534993e-11 6.082202592e-11)
5(8.25973386e-11 8.163672251e-11 8.146570692e-11 7.458982098e-11 6.58755557e-11)
5(9.497027235e-11 9.263455656e-11 9.125089708e-11 8.278973481e-11 7.221582647e-11)
5(1.077881095e-10 1.039791318e-10 1.007971015e-10 8.863442966e-11 7.455909771e-11)
5(1.197029011e-10 1.142304221e-10 1.087358098e-10 9.377876185e-11 7.74652174e-11)
5(1.274176414e-10 1.203971157e-10 1.129648078e-10 9.354786612e-11 7.308977825e-11)
5(1.344802222e-10 1.216920361e-10 1.086129424e-10 8.607105228e-11 6.22537747e-11)
5(1.33260861e-10 1.151592359e-10 9.402742417e-11 6.600282894e-11 3.941877495e-11)
5(1.167455864e-10 9.293761292e-11 6.133384216e-11 2.537735022e-11 -4.295042155e-12)
5(7.398488271e-11 4.380351504e-11 1.037954226e-12 -4.329750295e-11 -7.634233842e-11)
5(-3.49667709e-12 -4.289555112e-11 -9.94175066e-11 -1.520862337e-10 -1.885716501e-10)
5(-1.324327689e-10 -1.832141989e-10 -2.585899632e-10 -3.1870913e-10 -3.545398692e-10)
5(-3.382183037e-10 -4.000262279e-10 -4.893021579e-10 -5.412013021e-10 -5.648364999e-10)
5(-6.424732872e-10 -7.14258305e-10 -8.064001002e-10 -8.367431187e-10 -8.444407335e-10)
5(-1.0574448e-09 -1.140460177e-09 -1.223861405e-09 -1.20186036e-09 -1.175119656e-09)
5(-1.598233103e-09 -1.692915445e-09 -1.737687241e-09 -1.61235996e-09 -1.529998396e-09)
5(-2.281384224e-09 -2.379154167e-09 -2.326986475e-09 -2.030998953e-09 -1.874904922e-09)
5(-3.095766475e-09 -3.169018669e-09 -2.944084339e-09 -2.386867871e-09 -2.113461096e-09)
5(-3.972358734e-09 -3.986842531e-09 -3.490505721e-09 -2.544301614e-09 -2.088905696e-09)
5(-4.823696531e-09 -4.725354636e-09 -3.84338871e-09 -2.359504888e-09 -1.63186841e-09)
5(-5.512272124e-09 -5.236298954e-09 -3.84130664e-09 -1.665067055e-09 -5.714782778e-10)
5(-5.865939446e-09 -5.33866359e-09 -3.313641581e-09 -4.247405363e-10 1.01144373e-09)
5(-5.682331862e-09 -4.835721615e-09 -2.136094753e-09 1.35887788e-09 3.05328619e-09)
5(-4.792705309e-09 -3.623186354e-09 -3.202113068e-10 3.467573322e-09 5.177188287e-09)
5(-3.123801837e-09 -1.648146266e-09 1.964456985e-09 5.553871776e-09 7.060318799e-09)
5(-7.682331331e-10 8.693338597e-10 4.361983274e-09 7.236998778e-09 8.302915905e-09)
5(2.086616534e-09 3.661495577e-09 6.372175814e-09 8.081191703e-09 8.687863348e-09)
5(4.938346641e-09 6.20382085e-09 7.63839598e-09 7.885830858e-09 7.980075371e-09)
5(7.233345422e-09 7.892936118e-09 7.812042852e-09 6.751246076e-09 6.425567131e-09)
5(8.513686282e-09 8.394346941e-09 6.883960559e-09 5.013757107e-09 4.509098795e-09)
5(8.543833301e-09 7.661419056e-09 5.203025819e-09 3.148049907e-09 2.626312904e-09)
5(7.425370726e-09 6.000280397e-09 3.25668882e-09 1.616747641e-09 1.243316131e-09)
5(5.298252668e-09 3.950155274e-09 1.717248557e-09 6.724180075e-10 4.672055071e-10)
5(3.037213525e-09 2.103494349e-09 7.113343517e-10 2.037014356e-10 1.243900616e-10)
5(1.313372997e-09 8.387145661e-10 2.072396504e-10 4.433200257e-11 2.313753802e-11)
5(4.687617868e-10 2.740373374e-10 4.108529713e-11 6.069426428e-12 3.131355637e-12)
5(9.373182086e-11 5.187125933e-11 4.611464678e-12 3.929599043e-13 2.408969976e-13)
5(8.894742199e-12 4.807042431e-12 3.016963238e-13 1.708661073e-14 1.851995375e-14)
5(-2.050072527e-12 3.156144249e-13 5.743057635e-13 -2.715825666e-16 1.644863758e-12)
5(7.395588132e-13 -1.498482658e-12 2.524415107e-15 1.928935539e-12 -2.021212686e-20)
)


60
(
5(4.140979289e-12 1.116182808e-12 6.47788341e-13 2.643531242e-12 2.047940898e-12)
5(3.274419448e-12 2.464716597e-12 2.312817159e-12 3.109865651e-12 3.124548482e-12)
5(2.701030295e-12 3.346074196e-12 3.611320304e-12 3.775539583e-12 4.14304101e-12)
5(2.779870742e-12 3.984698019e-12 4.614414488e-12 4.660669238e-12 5.098250611e-12)
5(3.713202081e-12 4.836627461e-12 5.618772521e-12 5.754383148e-12 6.047614133e-12)
5(5.185723708e-12 6.052223061e-12 6.836810174e-12 7.005899928e-12 7.064657632e-12)
5(6.707466076e-12 7.4851704e-12 8.325602204e-12 8.446650505e-12 8.295885102e-12)
5(7.933281317e-12 9.095007851e-12 1.018716598e-11 1.029015194e-11 1.02366893e-11)
5(9.342505447e-12 1.110464336e-11 1.246904071e-11 1.245210675e-11 1.258893113e-11)
5(1.12150438e-11 1.349853576e-11 1.521585332e-11 1.515508172e-11 1.539633724e-11)
5(1.401851056e-11 1.655177397e-11 1.853634618e-11 1.84433231e-11 1.860416966e-11)
5(1.713128641e-11 1.999665535e-11 2.253953365e-11 2.253909706e-11 2.253521029e-11)
5(2.159046424e-11 2.449013616e-11 2.736275713e-11 2.740447617e-11 2.709915002e-11)
5(2.648972976e-11 2.962686534e-11 3.304482103e-11 3.32370059e-11 3.272736393e-11)
5(3.306741782e-11 3.613720288e-11 3.978024567e-11 3.979565177e-11 3.874973959e-11)
5(4.041322976e-11 4.352461019e-11 4.75941505e-11 4.748970487e-11 4.58710557e-11)
5(4.915254658e-11 5.210732116e-11 5.643033064e-11 5.574441305e-11 5.305232109e-11)
5(5.96646299e-11 6.215781256e-11 6.64330929e-11 6.535675021e-11 6.176710905e-11)
5(7.09418514e-11 7.29685589e-11 7.727167022e-11 7.527002658e-11 7.016347575e-11)
5(8.544097082e-11 8.580290225e-11 8.916499281e-11 8.653096607e-11 7.993468849e-11)
5(1.008854012e-10 9.972820544e-11 1.021947174e-10 9.828730703e-11 8.965819492e-11)
5(1.15817393e-10 1.136782667e-10 1.158738644e-10 1.09682865e-10 9.793154131e-11)
5(1.352114029e-10 1.299012712e-10 1.303790003e-10 1.221649205e-10 1.067443539e-10)
5(1.550653378e-10 1.465043684e-10 1.447716149e-10 1.335043047e-10 1.137988344e-10)
5(1.736888621e-10 1.6175223e-10 1.575678994e-10 1.421525298e-10 1.171909025e-10)
5(1.934829933e-10 1.757865439e-10 1.675031509e-10 1.486590952e-10 1.183817726e-10)
5(2.111371405e-10 1.869502321e-10 1.720781381e-10 1.470887141e-10 1.105407724e-10)
5(2.206708971e-10 1.897315733e-10 1.664406468e-10 1.322378371e-10 8.79579686e-11)
5(2.17137037e-10 1.775668834e-10 1.431156912e-10 9.801287121e-11 4.520887336e-11)
5(1.967030576e-10 1.434181033e-10 9.280709743e-11 3.500828429e-11 -2.823852063e-11)
5(1.454099623e-10 7.537695892e-11 2.765515599e-12 -7.480979487e-11 -1.527466705e-10)
5(4.362149628e-11 -4.596723069e-11 -1.430620074e-10 -2.410879014e-10 -3.345937659e-10)
5(-1.269570925e-10 -2.419232057e-10 -3.673554478e-10 -4.813403535e-10 -5.877354887e-10)
5(-3.9236484e-10 -5.365540217e-10 -6.91214798e-10 -8.286486645e-10 -9.583329982e-10)
5(-7.614478256e-10 -9.471242916e-10 -1.13158632e-09 -1.252305548e-09 -1.376386119e-09)
5(-1.281027727e-09 -1.505749817e-09 -1.697978129e-09 -1.771267152e-09 -1.878118566e-09)
5(-1.967148828e-09 -2.226679701e-09 -2.387014174e-09 -2.353817397e-09 -2.419208302e-09)
5(-2.803769728e-09 -3.089552468e-09 -3.158662689e-09 -2.941895481e-09 -2.938788784e-09)
5(-3.764689119e-09 -4.053457389e-09 -3.952592088e-09 -3.428433255e-09 -3.28700588e-09)
5(-4.776963148e-09 -5.030977587e-09 -4.644201342e-09 -3.643200789e-09 -3.270432539e-09)
5(-5.764664665e-09 -5.892980499e-09 -5.066088246e-09 -3.367755581e-09 -2.602314225e-09)
5(-6.538197369e-09 -6.455817473e-09 -5.02239894e-09 -2.579168352e-09 -1.454688044e-09)
5(-6.893684093e-09 -6.501903643e-09 -4.329432873e-09 -1.089097472e-09 4.141837503e-10)
5(-6.611140989e-09 -5.824087939e-09 -2.872660808e-09 9.441759781e-10 2.649649687e-09)
5(-5.498400181e-09 -4.249902024e-09 -6.669305901e-10 3.327155557e-09 5.046706043e-09)
5(-3.568030273e-09 -1.857850762e-09 2.068247767e-09 5.670718617e-09 7.119288877e-09)
5(-1.034323297e-09 1.099156283e-09 4.909270253e-09 7.539237715e-09 8.553284709e-09)
5(2.350999892e-09 4.471027764e-09 7.307770107e-09 8.482750642e-09 8.989753322e-09)