/*--------------------------------*- C++ -*----------------------------------*\
| =========                 |                                                 |
| \\      /  F ield         | OpenFOAM: The Open Source CFD Toolbox           |
|  \\    /   O peration     | Version:  2.3.1                                 |
|   \\  /    A nd           | Web:      www.OpenFOAM.org                      |
|    \\/     M anipulation  |                                                 |
\*---------------------------------------------------------------------------*/
FoamFile
{
    version     2.0;
    format      ascii;
    class       dictionary;
    location    "constant";
    object      DPSI5;
}
// * * * * * * * * * * * * * * * * * * * * * * * * * * * * * * * * * * * * * //

DPSI5_table
60
(

60
(
5(2.880598081e-10 4.423489158e-10 5.016836558e-10 3.788943614e-10 6.615000721e-10)
5(-4.340092204e-10 1.278686094e-10 3.995179201e-10 3.362443671e-10 7.974106723e-10)
5(-1.975081714e-09 -1.634155427e-10 9.338550923e-11 2.578003577e-10 6.6023843e-11)
5(-2.229098592e-09 -6.580665432e-11 -9.420726231e-11 -5.313462454e-11 -3.621668346e-10)
5(-7.462357572e-10 -1.294817682e-11 1.532994743e-10 -2.411441275e-10 1.370512187e-10)
5(3.488781408e-09 -3.28669431e-11 1.021237963e-10 -1.313968753e-11 -2.223621557e-10)
5(3.636978602e-09 -9.644456226e-11 -3.260843649e-10 -9.762403234e-11 -1.311517102e-11)
5(-5.216189504e-09 -1.884080106e-10 -3.725628092e-10 -2.883482953e-10 3.309407705e-11)
5(-8.09440396e-09 -5.205229211e-10 -4.52403234e-10 -2.696610287e-10 -4.668062122e-10)
5(-3.523335802e-09 -7.503978293e-10 -4.835553428e-10 -3.698219479e-10 -4.02355304e-10)
5(3.78215786e-09 -7.804009028e-11 -1.853246928e-10 -4.19313495e-10 -4.041376652e-10)
5(9.420707455e-09 2.543747192e-11 -2.091669823e-10 -5.94386391e-10 -5.440685849e-10)
5(4.301608199e-09 -5.812894628e-10 -5.6844508e-10 -6.348215403e-10 -6.401277234e-10)
5(-4.614970816e-10 -6.118588473e-10 -7.261314557e-10 -8.105912264e-10 -7.643345621e-10)
5(-1.241784108e-09 -1.705313675e-09 -1.301800513e-09 -1.545043896e-09 -1.230087868e-09)
5(-1.566173768e-09 -1.818101564e-09 -1.837649199e-09 -1.593604465e-09 -1.662237427e-09)
5(-3.668096017e-10 -7.743209838e-10 -1.176776685e-09 -1.648966729e-09 -2.031158751e-09)
5(-7.620389028e-11 -8.724716461e-10 -1.294094497e-09 -2.169325533e-09 -2.78618823e-09)
5(-9.445882639e-10 -1.434148965e-09 -2.472247016e-09 -3.168389466e-09 -3.141770901e-09)
5(-1.583247857e-09 -1.967827512e-09 -2.716010496e-09 -3.715529812e-09 -3.067384947e-09)
5(-1.782635774e-09 -2.34262306e-09 -3.277881956e-09 -2.487450398e-09 -2.872665982e-09)
5(-2.46806696e-09 -3.198180615e-09 -4.067378922e-09 -4.151115221e-09 -4.808645808e-09)
5(-2.764736184e-09 -4.359309831e-09 -4.533593457e-09 -6.27305818e-09 -6.34356105e-09)
5(-3.276857386e-09 -5.226472447e-09 -5.782321951e-09 -6.893491304e-09 -6.786399449e-09)
5(-4.069546334e-09 -5.866359572e-09 -7.64145604e-09 -9.07628233e-09 -7.889666777e-09)
5(-4.613245815e-09 -5.902205388e-09 -7.501736762e-09 -1.010902328e-08 -8.407342714e-09)
5(-5.158799799e-09 -5.984475773e-09 -8.336739781e-09 -1.046056795e-08 -9.226421122e-09)
5(-6.751582677e-09 -8.018668444e-09 -9.675198966e-09 -1.035154175e-08 -1.022725157e-08)
5(-8.220154983e-09 -1.05686206e-08 -9.670192937e-09 -9.160083868e-09 -1.031920276e-08)
5(-9.448293182e-09 -1.22638686e-08 -1.287856986e-08 -1.229440101e-08 -1.117995187e-08)
5(-1.092075619e-08 -1.24746895e-08 -1.307285829e-08 -1.185336202e-08 -6.025787265e-09)
5(-1.15996201e-08 -1.385146908e-08 -1.389728944e-08 -1.095916974e-08 -1.216384348e-08)
5(-1.370487003e-08 -1.721198706e-08 -1.900914416e-08 -1.36967785e-08 -1.050342089e-08)
5(-1.646694818e-08 -1.794214179e-08 -1.858686799e-08 -1.396947063e-08 -2.59899395e-09)
5(-1.835151656e-08 -2.17845111e-08 -2.457141249e-08 -1.660628736e-08 -1.07183495e-08)
5(-2.035898242e-08 -1.917674479e-08 -1.510129071e-08 -1.167649427e-08 -1.394425501e-08)
5(-2.254553104e-08 -2.108835643e-08 -8.483814215e-09 -1.343611781e-08 1.01573648e-08)
5(-2.621343407e-08 -2.681448037e-08 -2.470096414e-08 -1.564758886e-08 -9.918407218e-09)
5(-3.392025175e-08 -2.634897508e-08 -3.246716168e-08 -1.568527865e-08 6.931788909e-08)
5(-3.526940546e-08 -2.330338535e-08 -1.820879619e-08 -1.261359934e-08 9.487452762e-08)
5(-2.943582691e-08 -2.099205835e-08 -6.540535929e-09 3.454615619e-08 -3.683823813e-09)
5(-3.086601484e-08 -1.771233234e-08 -8.550755262e-09 1.263098267e-07 -3.662802648e-09)
5(-3.732938829e-08 -2.408487362e-08 -4.931322418e-08 8.559719075e-08 -1.388299609e-08)
5(-4.040408336e-08 -2.57531498e-08 -4.365267908e-08 -1.104913073e-08 -1.356336449e-08)
5(-2.822143136e-08 -2.327911213e-08 2.298775461e-08 -1.476465419e-08 -1.269642249e-08)
5(-1.728842612e-08 -1.397374504e-08 1.35754396e-07 -2.025790064e-08 -2.146597825e-08)
5(-1.229000073e-08 4.585942543e-08 1.5072436e-07 -2.521291195e-08 -2.880043596e-08)
5(-1.344595082e-08 2.510184672e-08 2.397999425e-08 -3.171936878e-08 -3.71441804e-08)
5(-1.377378909e-08 1.242198948e-07 -2.773371604e-08 -4.082277736e-08 -4.688578587e-08)
5(9.988857735e-09 1.27716967e-07 -4.148276379e-08 -5.180940978e-08 -5.901765456e-08)
5(1.438526878e-07 -3.889073621e-08 -5.258620556e-08 -6.506654296e-08 -7.389724865e-08)
5(1.658281979e-07 -5.215661567e-08 -6.567629215e-08 -8.056659124e-08 -9.140639282e-08)
5(1.665837581e-08 -6.447988758e-08 -8.174909299e-08 -9.918296299e-08 -1.133569012e-07)
5(-5.105494012e-08 -7.913244913e-08 -1.008447512e-07 -1.218969082e-07 -1.393885155e-07)
5(-8.433799712e-08 -9.714023477e-08 -1.234176374e-07 -1.480561166e-07 -1.693438823e-07)
5(-1.287371697e-07 -1.192492473e-07 -1.506083995e-07 -1.785754274e-07 -2.047797198e-07)
5(-1.548700299e-07 -1.600656012e-07 -1.842258577e-07 -2.158876516e-07 -2.409967229e-07)
5(-1.530979747e-07 -2.075658743e-07 -2.415595358e-07 -2.13172382e-07 -2.907021465e-07)
5(-1.566498387e-07 -2.534875702e-07 -3.36821193e-07 -4.26550128e-07 -4.575755523e-07)
5(-1.627600191e-07 -2.823932313e-07 -3.963032551e-07 -6.730431689e-07 -5.976389e-07)
)


60
(
5(1.04768558e-10 -6.912318139e-11 2.655582962e-10 1.394932231e-10 4.95689565e-10)
5(5.590772789e-11 -1.092446902e-10 1.632798493e-10 4.680389612e-11 3.320689132e-10)
5(-5.751593289e-11 -1.955541011e-10 -7.497779098e-11 -1.690253248e-10 -3.084791205e-11)
5(-1.861054269e-10 -3.068238546e-10 -3.268996297e-10 -4.079067473e-10 -4.060202708e-10)
5(-3.225088351e-10 -4.446356981e-10 -5.585033682e-10 -6.560284342e-10 -7.776783205e-10)
5(-4.390607864e-10 -6.011353186e-10 -7.362678698e-10 -8.966743521e-10 -1.057866438e-09)
5(-5.396112853e-10 -7.828224076e-10 -9.125919395e-10 -1.159033686e-09 -1.278368592e-09)
5(-6.706091361e-10 -1.010027707e-09 -1.157487748e-09 -1.500080329e-09 -1.596273418e-09)
5(-8.728862404e-10 -1.309884492e-09 -1.514991267e-09 -1.967789902e-09 -2.127466201e-09)
5(-1.144975308e-09 -1.699516955e-09 -2.018903824e-09 -2.587607253e-09 -2.865405664e-09)
5(-1.488379521e-09 -2.186394862e-09 -2.659539292e-09 -3.359085011e-09 -3.763706113e-09)
5(-1.908578151e-09 -2.79323121e-09 -3.425428947e-09 -4.300505144e-09 -4.815227635e-09)
5(-2.420443554e-09 -3.537762156e-09 -4.337255173e-09 -5.434382177e-09 -6.014227914e-09)
5(-3.05764565e-09 -4.451260047e-09 -5.440160721e-09 -6.774437393e-09 -7.43116035e-09)
5(-3.851645406e-09 -5.570002793e-09 -6.791735228e-09 -8.364776989e-09 -9.153303339e-09)
5(-4.857375401e-09 -6.922958758e-09 -8.444713667e-09 -1.02773402e-08 -1.119861294e-08)
5(-6.063769493e-09 -8.556968459e-09 -1.039828712e-08 -1.249119799e-08 -1.344631386e-08)
5(-7.515765278e-09 -1.046828838e-08 -1.265661623e-08 -1.499779996e-08 -1.595170971e-08)
5(-9.247786906e-09 -1.267963824e-08 -1.522011789e-08 -1.781117548e-08 -1.876789899e-08)
5(-1.1305893e-08 -1.526243598e-08 -1.815387837e-08 -2.088815213e-08 -2.175488531e-08)
5(-1.371075789e-08 -1.818654145e-08 -2.143849804e-08 -2.42201503e-08 -2.484264714e-08)
5(-1.636747543e-08 -2.143557413e-08 -2.499695863e-08 -2.774590296e-08 -2.816806984e-08)
5(-1.949994202e-08 -2.512402735e-08 -2.893969151e-08 -3.145706982e-08 -3.158497338e-08)
5(-2.319049977e-08 -2.914395842e-08 -3.313618637e-08 -3.546026117e-08 -3.510698609e-08)
5(-2.717998225e-08 -3.354795318e-08 -3.771804556e-08 -3.978282526e-08 -3.88181183e-08)
5(-3.168321256e-08 -3.83837672e-08 -4.265905086e-08 -4.430811557e-08 -4.246748653e-08)
5(-3.671916075e-08 -4.372000528e-08 -4.775032362e-08 -4.883150904e-08 -4.597264024e-08)
5(-4.239526014e-08 -4.957831821e-08 -5.329308849e-08 -5.337226917e-08 -4.972955642e-08)
5(-4.872432646e-08 -5.573988036e-08 -5.915313697e-08 -5.81113362e-08 -5.342446211e-08)
5(-5.578307803e-08 -6.24990922e-08 -6.534894643e-08 -6.302669639e-08 -5.692817148e-08)
5(-6.367893187e-08 -6.992501453e-08 -7.169645013e-08 -6.798856781e-08 -6.027637384e-08)
5(-7.221261372e-08 -7.769733795e-08 -7.829631449e-08 -7.281411846e-08 -6.325220406e-08)
5(-8.158356994e-08 -8.592852044e-08 -8.513831659e-08 -7.746469707e-08 -6.555703967e-08)
5(-9.19592221e-08 -9.491376095e-08 -9.212065013e-08 -8.178171776e-08 -6.729496677e-08)
5(-1.034596433e-07 -1.041930334e-07 -9.919828338e-08 -8.570614966e-08 -6.879629912e-08)
5(-1.156109063e-07 -1.134848913e-07 -1.058969713e-07 -8.889099867e-08 -7.012089106e-08)
5(-1.284136316e-07 -1.231602607e-07 -1.12085229e-07 -9.16181813e-08 -7.119793442e-08)
5(-1.420684059e-07 -1.321367835e-07 -1.174074524e-07 -9.376639761e-08 -6.926604196e-08)
5(-1.556637634e-07 -1.413185411e-07 -1.217372711e-07 -9.397890231e-08 -6.147587844e-08)
5(-1.690271484e-07 -1.491874433e-07 -1.239596031e-07 -9.189723324e-08 -4.759606942e-08)
5(-1.807817767e-07 -1.558153342e-07 -1.258068159e-07 -8.56668832e-08 -3.160272715e-08)
5(-1.922240013e-07 -1.601018269e-07 -1.267542665e-07 -7.26129297e-08 -1.81803573e-08)
5(-2.020596447e-07 -1.584789769e-07 -1.248562939e-07 -5.300205774e-08 -9.477452807e-09)
5(-2.059026791e-07 -1.561875819e-07 -1.171893934e-07 -3.091418188e-08 -3.184039365e-09)
5(-2.038940579e-07 -1.515385467e-07 -9.846848007e-08 -1.183223299e-08 3.610750219e-09)
5(-1.947461799e-07 -1.413196345e-07 -6.759676788e-08 1.574889625e-09 9.285944034e-09)
5(-1.789425447e-07 -1.218892453e-07 -3.123387513e-08 1.027735976e-08 1.18720831e-08)
5(-1.556511112e-07 -8.832844503e-08 8.334190157e-10 1.630520402e-08 9.788124224e-09)
5(-1.223111856e-07 -3.98945808e-08 2.488729699e-08 1.941563918e-08 2.246573875e-09)
5(-7.797131759e-08 1.422194464e-08 4.001184154e-08 1.738009975e-08 -9.6652139e-09)
5(-2.039142186e-08 5.763373143e-08 4.725447341e-08 8.516932097e-09 -2.571475554e-08)
5(4.803957746e-08 8.330037254e-08 4.649107134e-08 -5.692711792e-09 -4.528128855e-08)
5(1.162711098e-07 9.392732721e-08 3.822289625e-08 -2.408177368e-08 -6.904529822e-08)
5(1.718807588e-07 9.327270381e-08 2.350445466e-08 -4.949109122e-08 -9.890380897e-08)
5(2.063350273e-07 8.544000124e-08 3.283002932e-09 -8.126593054e-08 -1.352196787e-07)
5(2.194796155e-07 7.395549077e-08 -2.246949167e-08 -1.178470497e-07 -1.790114848e-07)
5(2.137231256e-07 5.515412741e-08 -5.394284693e-08 -1.616934318e-07 -2.31941473e-07)
5(1.891671478e-07 3.028677271e-08 -8.944248929e-08 -2.167228829e-07 -2.998784726e-07)
5(1.445724929e-07 -2.467315545e-08 -1.607075946e-07 -3.605287365e-07 -4.420769807e-07)
5(1.166023551e-07 -6.684814406e-08 -2.133047518e-07 -4.742639899e-07 -5.469195107e-07)
)


60
(
5(1.616238457e-11 -1.663205568e-10 1.587236047e-10 3.607816705e-11 4.007990998e-10)
5(-3.499764799e-11 -2.197501598e-10 3.843089701e-11 -8.796711903e-11 1.999730344e-10)
5(-1.557725537e-10 -3.328306682e-10 -2.411661141e-10 -3.725141971e-10 -2.580569395e-10)
5(-3.109933657e-10 -4.914886211e-10 -5.540454572e-10 -7.08798724e-10 -7.595241362e-10)
5(-4.924398038e-10 -7.012751588e-10 -8.774636667e-10 -1.085640523e-09 -1.289135423e-09)
5(-6.718074041e-10 -9.508934089e-10 -1.186323538e-09 -1.481844541e-09 -1.753962273e-09)
5(-8.574255798e-10 -1.251676335e-09 -1.516123277e-09 -1.933830122e-09 -2.193442067e-09)
5(-1.095824834e-09 -1.635730812e-09 -1.949582316e-09 -2.517109304e-09 -2.781946916e-09)
5(-1.429753324e-09 -2.128340256e-09 -2.551459826e-09 -3.289316668e-09 -3.65063497e-09)
5(-1.86767796e-09 -2.758714237e-09 -3.360059988e-09 -4.278828751e-09 -4.792016377e-09)
5(-2.429902523e-09 -3.543331512e-09 -4.365733265e-09 -5.491617045e-09 -6.15064674e-09)
5(-3.123163426e-09 -4.508705718e-09 -5.571639328e-09 -6.937910719e-09 -7.733432818e-09)
5(-3.953177274e-09 -5.702178553e-09 -7.019610236e-09 -8.657036954e-09 -9.539865037e-09)
5(-5.008701528e-09 -7.155992616e-09 -8.773829054e-09 -1.069266547e-08 -1.169431506e-08)
5(-6.329193839e-09 -8.925877374e-09 -1.087783392e-08 -1.310094014e-08 -1.419995607e-08)
5(-7.912996763e-09 -1.102749733e-08 -1.337847311e-08 -1.591982191e-08 -1.708037333e-08)
5(-9.803733196e-09 -1.35248013e-08 -1.628048134e-08 -1.912532832e-08 -2.029769415e-08)
5(-1.209934112e-08 -1.645275204e-08 -1.963660068e-08 -2.273343372e-08 -2.386436186e-08)
5(-1.483143052e-08 -1.979666685e-08 -2.345280882e-08 -2.675563044e-08 -2.778485249e-08)
5(-1.794375712e-08 -2.36076119e-08 -2.771042938e-08 -3.115310685e-08 -3.197417518e-08)
5(-2.16675475e-08 -2.793943883e-08 -3.242343814e-08 -3.588722092e-08 -3.649323722e-08)
5(-2.580165014e-08 -3.27902564e-08 -3.758153205e-08 -4.096684721e-08 -4.109116023e-08)
5(-3.052220043e-08 -3.812164903e-08 -4.321357146e-08 -4.632019192e-08 -4.586464481e-08)
5(-3.586349824e-08 -4.395887581e-08 -4.92911533e-08 -5.198393748e-08 -5.09099971e-08)
5(-4.176409446e-08 -5.037117132e-08 -5.579941955e-08 -5.814818996e-08 -5.607543692e-08)
5(-4.845364739e-08 -5.733676686e-08 -6.269771291e-08 -6.444481489e-08 -6.149070625e-08)
5(-5.570700326e-08 -6.493249239e-08 -6.998100642e-08 -7.092129499e-08 -6.679696054e-08)
5(-6.381002603e-08 -7.310083382e-08 -7.771019991e-08 -7.761314773e-08 -7.239767368e-08)
5(-7.282627125e-08 -8.182004572e-08 -8.611152809e-08 -8.460085428e-08 -7.827600798e-08)
5(-8.255808377e-08 -9.148186872e-08 -9.493766224e-08 -9.189991919e-08 -8.372355799e-08)
5(-9.325424317e-08 -1.01838391e-07 -1.039577815e-07 -9.932730335e-08 -8.932590367e-08)
5(-1.052943627e-07 -1.126329233e-07 -1.136404367e-07 -1.07098655e-07 -9.461489734e-08)
5(-1.184060181e-07 -1.244904682e-07 -1.23962746e-07 -1.146614683e-07 -9.970864792e-08)
5(-1.32460773e-07 -1.371663467e-07 -1.343101096e-07 -1.22031721e-07 -1.04290043e-07)
5(-1.474219589e-07 -1.503133094e-07 -1.449965633e-07 -1.295307917e-07 -1.084784069e-07)
5(-1.64828085e-07 -1.6393625e-07 -1.559366449e-07 -1.367578368e-07 -1.131618244e-07)
5(-1.820756447e-07 -1.782159085e-07 -1.664610179e-07 -1.434009929e-07 -1.169224024e-07)
5(-2.001176417e-07 -1.932399227e-07 -1.764038067e-07 -1.491708882e-07 -1.174662485e-07)
5(-2.196736752e-07 -2.074801777e-07 -1.858552981e-07 -1.535508736e-07 -1.131162896e-07)
5(-2.374275545e-07 -2.207768371e-07 -1.947993351e-07 -1.558043164e-07 -1.028282792e-07)
5(-2.57320445e-07 -2.340738037e-07 -2.018728013e-07 -1.540184369e-07 -8.982504064e-08)
5(-2.753288333e-07 -2.451269523e-07 -2.074688661e-07 -1.454695546e-07 -7.760627981e-08)
5(-2.901083225e-07 -2.522821071e-07 -2.110807027e-07 -1.296667028e-07 -6.701083186e-08)
5(-3.02463975e-07 -2.55319968e-07 -2.075436084e-07 -1.094538662e-07 -5.732280745e-08)
5(-3.094665288e-07 -2.556858386e-07 -1.927746598e-07 -8.847149708e-08 -4.622093618e-08)
5(-3.088846865e-07 -2.508775561e-07 -1.649829475e-07 -6.973703651e-08 -3.336899062e-08)
5(-2.988993201e-07 -2.33576177e-07 -1.271920683e-07 -5.221270855e-08 -2.108496709e-08)
5(-2.793333244e-07 -1.984879421e-07 -8.710627118e-08 -3.387937129e-08 -1.25018939e-08)
5(-2.487515855e-07 -1.463664557e-07 -4.976705302e-08 -1.690650419e-08 -9.4354806e-09)
5(-2.032496177e-07 -8.361298698e-08 -1.704172788e-08 -3.988802868e-09 -1.302732287e-08)
5(-1.396188612e-07 -2.183001022e-08 1.005312836e-08 2.646060179e-09 -2.123213403e-08)
5(-5.814826306e-08 2.849600782e-08 3.120630592e-08 1.638595681e-09 -3.41581357e-08)
5(3.266625142e-08 6.60926966e-08 4.366516243e-08 -7.424217685e-09 -5.488090845e-08)
5(1.177913695e-07 9.387671422e-08 4.585491262e-08 -2.497609882e-08 -8.318167029e-08)
5(1.869307829e-07 1.11666569e-07 3.859286711e-08 -5.098982995e-08 -1.196418865e-07)
5(2.3349419e-07 1.17147806e-07 2.161883847e-08 -8.592475427e-08 -1.655807459e-07)
5(2.54206714e-07 1.109014727e-07 -4.696610797e-09 -1.319376604e-07 -2.229909271e-07)
5(2.473099092e-07 8.917966728e-08 -4.509579917e-08 -1.920387018e-07 -2.977035913e-07)
5(1.96521657e-07 5.768989844e-09 -1.891759232e-07 -4.179867447e-07 -5.043794521e-07)
5(1.557283468e-07 -6.224883152e-08 -3.081161789e-07 -6.102095591e-07 -6.697524122e-07)
)


60
(
5(-5.217574184e-11 -2.489531372e-10 7.210014625e-11 -4.918894878e-11 3.079431899e-10)
5(-1.102224361e-10 -3.179118265e-10 -7.075166268e-11 -2.085474622e-10 6.459015325e-11)
5(-2.445532858e-10 -4.589654356e-10 -4.005933635e-10 -5.664431111e-10 -4.879005167e-10)
5(-4.280548961e-10 -6.616897234e-10 -7.793231775e-10 -9.935215172e-10 -1.101852816e-09)
5(-6.551500015e-10 -9.389001651e-10 -1.188159385e-09 -1.487054733e-09 -1.775321247e-09)
5(-8.953358593e-10 -1.278307628e-09 -1.614309666e-09 -2.033539342e-09 -2.415865163e-09)
5(-1.158632984e-09 -1.689373354e-09 -2.09222019e-09 -2.662283754e-09 -3.049927986e-09)
5(-1.492332034e-09 -2.207660542e-09 -2.700965027e-09 -3.454884705e-09 -3.870062481e-09)
5(-1.950282435e-09 -2.874505567e-09 -3.5189714e-09 -4.483625712e-09 -5.012560072e-09)
5(-2.554187825e-09 -3.715509621e-09 -4.583057859e-09 -5.771736073e-09 -6.474828886e-09)
5(-3.300590222e-09 -4.758565662e-09 -5.902751837e-09 -7.329966374e-09 -8.204367019e-09)
5(-4.220759984e-09 -6.041166989e-09 -7.49842303e-09 -9.196143085e-09 -1.022765818e-08)
5(-5.351136874e-09 -7.601842237e-09 -9.39224697e-09 -1.139891653e-08 -1.251264641e-08)
5(-6.762935261e-09 -9.487973369e-09 -1.164888213e-08 -1.3968294e-08 -1.518730854e-08)
5(-8.493009165e-09 -1.17513402e-08 -1.434177202e-08 -1.698825905e-08 -1.832076076e-08)
5(-1.057597022e-08 -1.447032128e-08 -1.751924685e-08 -2.051616719e-08 -2.187582167e-08)
5(-1.307107047e-08 -1.767921549e-08 -2.120902248e-08 -2.451395626e-08 -2.587783257e-08)
5(-1.607299495e-08 -2.137007514e-08 -2.541108336e-08 -2.901024901e-08 -3.026788203e-08)
5(-1.949986081e-08 -2.558897602e-08 -3.013650706e-08 -3.395619509e-08 -3.506121149e-08)
5(-2.35147819e-08 -3.042066617e-08 -3.543805004e-08 -3.934085203e-08 -4.019218629e-08)
5(-2.836630874e-08 -3.584127665e-08 -4.125179461e-08 -4.515885948e-08 -4.572757834e-08)
5(-3.365740379e-08 -4.18135903e-08 -4.762655722e-08 -5.139531424e-08 -5.138732456e-08)
5(-3.925954176e-08 -4.843232198e-08 -5.456439218e-08 -5.804697379e-08 -5.729583257e-08)
5(-4.598807888e-08 -5.571337289e-08 -6.200696488e-08 -6.506908048e-08 -6.370820593e-08)
5(-5.349567584e-08 -6.360767095e-08 -6.999862954e-08 -7.252978495e-08 -7.01959171e-08)
5(-6.152719858e-08 -7.20608369e-08 -7.851640396e-08 -8.041453994e-08 -7.684291428e-08)
5(-7.040967004e-08 -8.12437456e-08 -8.750717377e-08 -8.857036066e-08 -8.387990071e-08)
5(-8.037286458e-08 -9.130392234e-08 -9.707458095e-08 -9.695384319e-08 -9.085155055e-08)
5(-9.13787505e-08 -1.020890027e-07 -1.073329786e-07 -1.058460334e-07 -9.834831614e-08)
5(-1.030389051e-07 -1.136711031e-07 -1.181371524e-07 -1.151414284e-07 -1.061458401e-07)
5(-1.160180469e-07 -1.261576985e-07 -1.294200397e-07 -1.247622475e-07 -1.138130652e-07)
5(-1.303928598e-07 -1.395116165e-07 -1.41572529e-07 -1.349005235e-07 -1.215513824e-07)
5(-1.456059484e-07 -1.539493227e-07 -1.544342083e-07 -1.450701425e-07 -1.289725764e-07)
5(-1.624511584e-07 -1.693415396e-07 -1.677220692e-07 -1.554470244e-07 -1.364413006e-07)
5(-1.806791615e-07 -1.856773441e-07 -1.815219471e-07 -1.663672392e-07 -1.436161252e-07)
5(-1.998450644e-07 -2.026163848e-07 -1.957180864e-07 -1.770659308e-07 -1.510710469e-07)
5(-2.210649657e-07 -2.20398823e-07 -2.103539896e-07 -1.874128112e-07 -1.583046942e-07)
5(-2.428704233e-07 -2.390365044e-07 -2.251519102e-07 -1.974000765e-07 -1.627805889e-07)
5(-2.651528335e-07 -2.577154665e-07 -2.397849838e-07 -2.063417775e-07 -1.622662361e-07)
5(-2.893181497e-07 -2.772375178e-07 -2.533620361e-07 -2.135469563e-07 -1.565923281e-07)
5(-3.120595191e-07 -2.962674861e-07 -2.659716055e-07 -2.172832893e-07 -1.483814416e-07)
5(-3.345568562e-07 -3.12898203e-07 -2.780807398e-07 -2.148407136e-07 -1.39285445e-07)
5(-3.563569103e-07 -3.269684148e-07 -2.878385895e-07 -2.048989513e-07 -1.311965223e-07)
5(-3.753026339e-07 -3.38521511e-07 -2.91249274e-07 -1.899159458e-07 -1.232734058e-07)
5(-3.896285703e-07 -3.463755895e-07 -2.834547278e-07 -1.728906721e-07 -1.117622174e-07)
5(-3.970448973e-07 -3.47690897e-07 -2.627500052e-07 -1.548077732e-07 -9.531019867e-08)
5(-3.974922607e-07 -3.398852583e-07 -2.299777114e-07 -1.35441002e-07 -7.735684579e-08)
5(-3.889240458e-07 -3.155149916e-07 -1.918497974e-07 -1.125018264e-07 -6.068687186e-08)
5(-3.706608838e-07 -2.689333152e-07 -1.529263387e-07 -8.60201387e-08 -4.747689286e-08)
5(-3.364268064e-07 -2.07266572e-07 -1.102701886e-07 -5.910283865e-08 -3.996138951e-08)
5(-2.824384403e-07 -1.424801751e-07 -6.663710203e-08 -3.689727754e-08 -3.764368744e-08)
5(-2.097734952e-07 -7.960582329e-08 -2.649772145e-08 -2.155325655e-08 -4.203922299e-08)
5(-1.180421133e-07 -2.012041133e-08 7.431876952e-09 -1.505525735e-08 -5.469221345e-08)
5(-1.800230748e-08 3.368154681e-08 3.093245659e-08 -2.049527646e-08 -7.715032205e-08)
5(7.71856661e-08 7.8334398e-08 4.252621555e-08 -3.755224582e-08 -1.110261673e-07)
5(1.589414304e-07 1.093915975e-07 4.034498642e-08 -6.61778683e-08 -1.557098555e-07)
5(2.201674288e-07 1.222306086e-07 2.128317581e-08 -1.089488372e-07 -2.140941404e-07)
5(2.478977926e-07 1.089890045e-07 -2.303271462e-08 -1.748028605e-07 -2.976141578e-07)
5(1.98917826e-07 -4.549737642e-08 -2.807864562e-07 -4.703738613e-07 -6.310655173e-07)
5(1.470259679e-07 -1.857612343e-07 -5.073316478e-07 -7.256747409e-07 -9.149487294e-07)
)


60
(
5(-1.144093191e-10 -3.288907603e-10 -1.029703899e-11 -1.294469081e-10 2.071600403e-10)
5(-1.812263148e-10 -4.118776873e-10 -1.747706146e-10 -3.231797887e-10 -7.29527677e-11)
5(-3.295501272e-10 -5.768732504e-10 -5.51178095e-10 -7.518276821e-10 -7.033531919e-10)
5(-5.36088172e-10 -8.197845545e-10 -9.966083559e-10 -1.26450876e-09 -1.431016713e-09)
5(-8.079462562e-10 -1.162892729e-09 -1.490628375e-09 -1.863234587e-09 -2.237442951e-09)
5(-1.10868494e-09 -1.584260273e-09 -2.02228353e-09 -2.53693315e-09 -3.021708105e-09)
5(-1.442899656e-09 -2.093946552e-09 -2.631781728e-09 -3.323952133e-09 -3.826402336e-09)
5(-1.87099228e-09 -2.73406822e-09 -3.394469878e-09 -4.299940381e-09 -4.852188244e-09)
5(-2.439869578e-09 -3.543092801e-09 -4.39870142e-09 -5.53488322e-09 -6.218983728e-09)
5(-3.184441392e-09 -4.570470813e-09 -5.697849713e-09 -7.073247077e-09 -7.954136278e-09)
5(-4.108106697e-09 -5.83670627e-09 -7.292807746e-09 -8.932224303e-09 -9.999869746e-09)
5(-5.231980441e-09 -7.376781592e-09 -9.193531228e-09 -1.113012394e-08 -1.234201309e-08)
5(-6.610072017e-09 -9.25187952e-09 -1.143639611e-08 -1.370595169e-08 -1.502543549e-08)
5(-8.311608301e-09 -1.150147422e-08 -1.409697563e-08 -1.672405816e-08 -1.81415115e-08)
5(-1.038451147e-08 -1.417786582e-08 -1.725000327e-08 -2.025900562e-08 -2.175749365e-08)
5(-1.290989661e-08 -1.73528388e-08 -2.097049085e-08 -2.431537481e-08 -2.589997097e-08)
5(-1.587033923e-08 -2.11031588e-08 -2.526845346e-08 -2.887858138e-08 -3.045902909e-08)
5(-1.936918103e-08 -2.543287382e-08 -3.012343374e-08 -3.406323727e-08 -3.550582661e-08)
5(-2.349877914e-08 -3.034996082e-08 -3.562078811e-08 -3.980575746e-08 -4.107146673e-08)
5(-2.822343391e-08 -3.590175706e-08 -4.177937886e-08 -4.60344435e-08 -4.704209566e-08)
5(-3.369404572e-08 -4.214344869e-08 -4.850914369e-08 -5.274432872e-08 -5.336634019e-08)
5(-3.974075043e-08 -4.908263482e-08 -5.577796085e-08 -5.988026465e-08 -5.991862803e-08)
5(-4.660111854e-08 -5.676680243e-08 -6.370365397e-08 -6.750218698e-08 -6.709594161e-08)
5(-5.447430255e-08 -6.517332034e-08 -7.234260852e-08 -7.56895429e-08 -7.43731442e-08)
5(-6.274996753e-08 -7.412306382e-08 -8.157480345e-08 -8.438418593e-08 -8.185397526e-08)
5(-7.205148515e-08 -8.374294818e-08 -9.130626858e-08 -9.348755141e-08 -9.004589508e-08)
5(-8.251791703e-08 -9.422486556e-08 -1.015585959e-07 -1.029659256e-07 -9.822797772e-08)
5(-9.38653486e-08 -1.055467527e-07 -1.125125098e-07 -1.129039489e-07 -1.067786071e-07)
5(-1.057250976e-07 -1.178449684e-07 -1.242452677e-07 -1.233028963e-07 -1.157435238e-07)
5(-1.189650075e-07 -1.31195571e-07 -1.367070627e-07 -1.342561059e-07 -1.249558423e-07)
5(-1.340533859e-07 -1.453007255e-07 -1.498777913e-07 -1.458862032e-07 -1.348319003e-07)
5(-1.49638201e-07 -1.604074179e-07 -1.639753208e-07 -1.580302325e-07 -1.445270771e-07)
5(-1.665097455e-07 -1.766766179e-07 -1.790901822e-07 -1.705011443e-07 -1.542882182e-07)
5(-1.851448662e-07 -1.942317319e-07 -1.946739547e-07 -1.833929905e-07 -1.643772699e-07)
5(-2.054920576e-07 -2.131082931e-07 -2.110591285e-07 -1.968043723e-07 -1.743783079e-07)
5(-2.275602028e-07 -2.324849945e-07 -2.284924501e-07 -2.105317432e-07 -1.849935278e-07)
5(-2.503128388e-07 -2.530085514e-07 -2.464028816e-07 -2.247010708e-07 -1.955633753e-07)
5(-2.745722915e-07 -2.753620033e-07 -2.647334146e-07 -2.3873661e-07 -2.041459785e-07)
5(-3.003037373e-07 -2.979312122e-07 -2.829659527e-07 -2.520642441e-07 -2.083701546e-07)
5(-3.262823057e-07 -3.206368518e-07 -3.012559728e-07 -2.644706814e-07 -2.08137499e-07)
5(-3.52683402e-07 -3.433303697e-07 -3.197373182e-07 -2.738122741e-07 -2.045416385e-07)
5(-3.78771787e-07 -3.651228331e-07 -3.374911739e-07 -2.777448712e-07 -2.00738318e-07)
5(-4.028266741e-07 -3.861791794e-07 -3.537597055e-07 -2.752428395e-07 -1.981339714e-07)
5(-4.251819991e-07 -4.045828419e-07 -3.655452735e-07 -2.678162015e-07 -1.932361847e-07)
5(-4.460678583e-07 -4.199849824e-07 -3.671816651e-07 -2.580474079e-07 -1.84261935e-07)
5(-4.603285959e-07 -4.317538457e-07 -3.558728723e-07 -2.457140527e-07 -1.706222931e-07)
5(-4.690891082e-07 -4.337410311e-07 -3.339870749e-07 -2.298393194e-07 -1.52649579e-07)
5(-4.728889196e-07 -4.202725322e-07 -3.046209904e-07 -2.088075297e-07 -1.324684301e-07)
5(-4.676551643e-07 -3.877656458e-07 -2.696649874e-07 -1.795920985e-07 -1.129404481e-07)
5(-4.512449136e-07 -3.406578977e-07 -2.289129814e-07 -1.45606372e-07 -9.474040243e-08)
5(-4.174973271e-07 -2.876084661e-07 -1.818435945e-07 -1.121429345e-07 -7.970348588e-08)
5(-3.641879318e-07 -2.293636413e-07 -1.307920515e-07 -8.260983544e-08 -7.275641756e-08)
5(-2.928165654e-07 -1.662584323e-07 -8.096494606e-08 -5.982081788e-08 -7.286009824e-08)
5(-2.093669176e-07 -1.014659356e-07 -3.673118759e-08 -4.708442683e-08 -8.472969195e-08)
5(-1.126752095e-07 -3.659356547e-08 -2.528592366e-09 -4.814148041e-08 -1.124544203e-07)
5(-1.444194366e-08 2.288600572e-08 1.560519847e-08 -6.52333421e-08 -1.525946743e-07)
5(7.24376636e-08 6.54021881e-08 1.079582887e-08 -1.038628479e-07 -2.107376475e-07)
5(1.478226636e-07 7.973316021e-08 -3.310820411e-08 -1.780063687e-07 -3.029664572e-07)
5(1.347073071e-07 -9.832626209e-08 -3.656594618e-07 -5.512233129e-07 -7.610430816e-07)
5(8.790439419e-08 -2.751736625e-07 -6.615035871e-07 -8.745004253e-07 -1.159860118e-06)
)


60
(
5(-1.746186417e-10 -4.036539483e-10 -9.093406945e-11 -2.04017045e-10 1.08757447e-10)
5(-2.460590761e-10 -4.993968968e-10 -2.783011977e-10 -4.291749729e-10 -2.031044891e-10)
5(-4.093073484e-10 -6.897804644e-10 -7.01307465e-10 -9.241917417e-10 -9.273248276e-10)
5(-6.463156387e-10 -9.719176694e-10 -1.203872533e-09 -1.519653054e-09 -1.760618334e-09)
5(-9.582217111e-10 -1.36985929e-09 -1.773658959e-09 -2.217353542e-09 -2.662460968e-09)
5(-1.316824435e-09 -1.863758277e-09 -2.402938932e-09 -3.003068932e-09 -3.581447014e-09)
5(-1.716575977e-09 -2.466966486e-09 -3.130418461e-09 -3.918773541e-09 -4.52972006e-09)
5(-2.22663552e-09 -3.223177708e-09 -4.035960509e-09 -5.055115146e-09 -5.712613909e-09)
5(-2.902203847e-09 -4.171152453e-09 -5.210829716e-09 -6.480214544e-09 -7.298546885e-09)
5(-3.768540375e-09 -5.350053708e-09 -6.699578913e-09 -8.236129333e-09 -9.263443492e-09)
5(-4.837433143e-09 -6.79898618e-09 -8.513767347e-09 -1.033883476e-08 -1.157573776e-08)
5(-6.147608444e-09 -8.560821644e-09 -1.067552465e-08 -1.281109005e-08 -1.418976135e-08)
5(-7.771602965e-09 -1.068453663e-08 -1.322446535e-08 -1.570560993e-08 -1.719492921e-08)
5(-9.72954066e-09 -1.324055897e-08 -1.624334738e-08 -1.908482304e-08 -2.070362545e-08)
5(-1.207043465e-08 -1.626961039e-08 -1.979886958e-08 -2.299908417e-08 -2.474173009e-08)
5(-1.490596036e-08 -1.983662268e-08 -2.393795918e-08 -2.747951557e-08 -2.932113767e-08)
5(-1.831735874e-08 -2.400420737e-08 -2.868820763e-08 -3.259557093e-08 -3.438038552e-08)
5(-2.229534608e-08 -2.880633686e-08 -3.411124218e-08 -3.834589031e-08 -4.009664346e-08)
5(-2.688146974e-08 -3.428717824e-08 -4.021833105e-08 -4.466566484e-08 -4.621267785e-08)
5(-3.225966468e-08 -4.048491696e-08 -4.698197165e-08 -5.155463201e-08 -5.277377604e-08)
5(-3.821490712e-08 -4.73993188e-08 -5.441816378e-08 -5.89779473e-08 -5.994043367e-08)
5(-4.500091396e-08 -5.504455903e-08 -6.254292547e-08 -6.693963556e-08 -6.737636006e-08)
5(-5.277453002e-08 -6.345313615e-08 -7.135376899e-08 -7.549099205e-08 -7.524244091e-08)
5(-6.123576574e-08 -7.259915337e-08 -8.081521808e-08 -8.460345663e-08 -8.365164879e-08)
5(-7.049633598e-08 -8.254202851e-08 -9.09302923e-08 -9.423015108e-08 -9.213917316e-08)
5(-8.076486172e-08 -9.330012532e-08 -1.016738673e-07 -1.043818817e-07 -1.010428415e-07)
5(-9.206930586e-08 -1.04880717e-07 -1.131422805e-07 -1.149848396e-07 -1.105305366e-07)
5(-1.044770419e-07 -1.173303469e-07 -1.253704276e-07 -1.261153431e-07 -1.205050791e-07)
5(-1.177524423e-07 -1.307542279e-07 -1.383040965e-07 -1.379401204e-07 -1.308290632e-07)
5(-1.323695586e-07 -1.451374208e-07 -1.520617534e-07 -1.503842425e-07 -1.416007262e-07)
5(-1.481804777e-07 -1.605329702e-07 -1.668232644e-07 -1.635032925e-07 -1.530530074e-07)
5(-1.649961917e-07 -1.773291545e-07 -1.824348085e-07 -1.773606872e-07 -1.64654593e-07)
5(-1.835639274e-07 -1.95147952e-07 -1.989961597e-07 -1.918795364e-07 -1.763343406e-07)
5(-2.035311014e-07 -2.140575603e-07 -2.165761803e-07 -2.070147146e-07 -1.890057189e-07)