/*--------------------------------*- C++ -*----------------------------------*\
| =========                 |                                                 |
| \\      /  F ield         | OpenFOAM: The Open Source CFD Toolbox           |
|  \\    /   O peration     | Version:  2.3.1                                 |
|   \\  /    A nd           | Web:      www.OpenFOAM.org                      |
|    \\/     M anipulation  |                                                 |
\*---------------------------------------------------------------------------*/
FoamFile
{
    version     2.0;
    format      ascii;
    class       dictionary;
    location    "constant";
    object      DPSI60;
}
// * * * * * * * * * * * * * * * * * * * * * * * * * * * * * * * * * * * * * //

DPSI60_table
60
(

60
(
5(1.62201704e-17 5.900790755e-19 -1.829634264e-18 3.356101106e-18 -4.647432172e-18)
5(5.610442348e-18 2.304153771e-19 -1.297355318e-18 9.888199939e-19 -5.237404293e-19)
5(-8.69908236e-19 -5.962734866e-19 1.597350937e-19 5.732998682e-19 5.351578566e-19)
5(-8.385391967e-19 -4.247321829e-19 4.824098451e-19 3.001507117e-19 -2.032598354e-19)
5(-5.917172556e-19 -5.057808561e-19 1.492845663e-19 4.354330171e-19 2.223824951e-19)
5(3.311314929e-19 2.706382962e-19 -1.659148349e-20 -6.314556207e-21 2.099250569e-19)
5(4.336582666e-19 1.763775388e-19 3.610249394e-20 -1.056274332e-19 -3.762295232e-19)
5(-3.424467166e-20 -1.485482365e-19 7.035530153e-21 2.024783794e-19 1.267007846e-19)
5(1.010100719e-18 4.653320482e-19 2.011995541e-20 9.846917257e-20 4.710092041e-20)
5(6.015513332e-19 2.753961629e-19 6.53048352e-20 1.107966701e-19 2.038774748e-20)
5(7.742922719e-19 4.024550716e-19 6.55920803e-20 7.57758572e-20 2.752757029e-20)
5(2.89234745e-19 1.291963231e-19 1.030993662e-20 2.932193062e-20 -1.14253066e-21)
5(1.338832061e-20 6.268609153e-21 4.856225983e-21 7.08186539e-21 3.029813807e-21)
5(1.10763742e-20 5.567783917e-21 3.080521636e-21 3.72002518e-21 9.67032666e-22)
5(3.909791506e-21 2.097054449e-21 1.317637518e-21 1.6310718e-21 7.686538358e-22)
5(-8.414807666e-20 1.508307797e-21 4.508292573e-20 1.752622977e-21 2.213369433e-21)
5(-6.264472694e-20 1.045569518e-21 3.410469273e-20 1.581298416e-21 9.948537571e-22)
5(-4.028557518e-20 1.021896036e-21 2.182284367e-20 2.817726784e-22 1.305426483e-22)
5(-1.561826433e-20 1.932870077e-22 8.291532372e-21 1.219869599e-22 2.062177158e-23)
5(2.288341552e-22 1.372376758e-22 8.414072797e-23 7.51518652e-23 2.06945908e-23)
5(1.294086694e-22 8.575453225e-23 5.219817083e-23 4.785809854e-23 2.97493843e-23)
5(8.749661386e-23 4.821572543e-23 3.28546492e-23 3.609861127e-23 1.288496263e-23)
5(6.202028986e-23 3.626416826e-23 2.085368573e-23 2.136319663e-23 9.873270405e-24)
5(3.157361969e-23 2.354401611e-23 1.635117135e-23 1.258645207e-23 7.162700605e-24)
5(1.926653648e-23 1.869274326e-23 1.530481183e-23 9.744407112e-24 6.534135862e-24)
5(2.332096147e-24 1.341715775e-23 1.816907883e-23 1.010603589e-23 8.3358411e-24)
5(-2.244594899e-24 1.011528375e-23 1.583318486e-23 1.039186473e-23 1.16815212e-23)
5(2.893440957e-24 7.302476824e-24 1.200490281e-23 1.56220993e-23 1.887245584e-23)
5(-1.706494555e-24 1.062019209e-23 1.995321768e-23 2.335835926e-23 2.98431643e-23)
5(-1.950736752e-23 1.329457178e-23 4.016673773e-23 4.064500071e-23 4.752142192e-23)
5(-4.408925243e-23 1.650706555e-23 7.07734398e-23 7.959582015e-23 9.576556544e-23)
5(-7.131422948e-23 3.9821492e-23 1.420037984e-22 1.492953488e-22 1.670615465e-22)
5(-1.511732022e-22 6.217438323e-23 2.754594223e-22 2.596867416e-22 2.469819983e-22)
5(-2.526490424e-22 1.124411616e-22 5.52729152e-22 5.537074374e-22 4.832762592e-22)
5(-2.018134233e-22 3.301592012e-22 9.593315012e-22 9.007722845e-22 7.478807695e-22)
5(-3.749565478e-22 4.710857997e-22 1.792254607e-21 1.68411082e-21 1.101991803e-21)
5(7.605335658e-22 1.775672413e-21 2.624859404e-21 1.791853732e-21 1.116197263e-21)
5(1.378612582e-21 3.167626549e-21 4.10017911e-21 2.437033419e-21 1.619437207e-21)
5(4.03900692e-21 5.078479059e-21 5.410585972e-21 2.971617114e-21 1.189475349e-21)
5(8.399126848e-21 7.89867548e-21 6.514227563e-21 3.455187313e-21 1.164435939e-21)
5(1.341020379e-20 1.101727873e-20 6.184119318e-21 2.278920007e-21 6.551898242e-22)
5(1.558166391e-20 1.195137203e-20 5.340615711e-21 1.445269641e-21 3.571315813e-22)
5(1.751252981e-20 1.166374593e-20 3.445505064e-21 6.374374724e-22 -1.506496598e-48)
5(1.524553373e-20 9.25134819e-21 2.24326633e-21 7.020945538e-22 -8.967047299e-24)
5(1.155226395e-20 6.577474461e-21 9.404505454e-22 2.099097531e-22 -6.380696825e-25)
5(5.806976107e-21 3.303887375e-21 3.803549412e-22 1.659151111e-23 -2.056149027e-46)
5(2.374553946e-21 1.28879641e-21 8.825581141e-23 4.021634431e-24 4.195868494e-24)
5(1.167500977e-21 5.910614673e-22 2.461905262e-24 2.004377129e-24 -4.247964958e-45)
5(1.665312181e-22 8.421445542e-23 4.016145849e-25 4.632589304e-25 -1.82514074e-44)
5(2.274217179e-23 1.146205306e-23 9.776026407e-27 -4.104020132e-44 -7.193638351e-44)
5(3.002056989e-24 1.513747286e-24 -2.280114382e-44 -1.553323429e-43 -2.711924769e-43)
5(3.550040261e-25 1.798890509e-25 -8.440719294e-44 -5.681256148e-43 -9.906501215e-43)
5(1.493287113e-28 7.580749602e-29 -2.99705758e-43 -1.97205509e-42 -3.428179382e-42)
5(-2.251749931e-44 -1.116271886e-43 -1.008331516e-42 -6.62753611e-42 -1.153060558e-41)
5(-7.74222617e-44 -3.789673857e-43 -3.319251769e-42 -2.123064754e-41 -3.679469338e-41)
5(4.64900919e-44 -1.087966536e-42 -1.030904214e-41 -6.505443437e-41 -1.126209978e-40)
5(5.642057285e-43 -3.233085815e-42 -3.081116974e-41 -1.849002482e-40 -3.177345052e-40)
5(-5.711722619e-42 -1.109400297e-41 -8.489773075e-41 -4.99344578e-40 -8.517520865e-40)
5(-1.816008336e-41 -6.069274822e-41 -1.395839141e-40 -1.223276882e-39 -2.2973621e-39)
5(-4.2832478e-41 2.597618385e-42 -1.72457681e-39 -7.636104592e-39 -1.182660484e-38)
)


60
(
5(6.120063767e-17 1.12969191e-17 -1.074219862e-18 1.792198524e-17 -1.4101931e-18)
5(2.302635623e-17 9.388901026e-18 4.102548748e-18 9.113124655e-18 4.804922197e-18)
5(8.533634357e-18 7.010248916e-18 5.725838875e-18 6.711082645e-18 6.569651288e-18)
5(5.221434217e-18 5.782612639e-18 5.786156799e-18 6.278756209e-18 6.61739267e-18)
5(8.225109907e-18 5.963341912e-18 5.381669849e-18 6.768135227e-18 5.83607751e-18)
5(1.100351479e-17 6.136390596e-18 4.650183011e-18 6.822440499e-18 5.036750668e-18)
5(1.226977276e-17 6.070528317e-18 4.31243605e-18 6.608370848e-18 3.917956688e-18)
5(1.238794774e-17 6.566967235e-18 4.182149168e-18 5.598240835e-18 3.066431124e-18)
5(1.180490137e-17 6.666473033e-18 3.85712323e-18 4.470348704e-18 2.298645015e-18)
5(9.686042812e-18 5.519209403e-18 2.960601863e-18 3.187044884e-18 1.457639407e-18)
5(7.877297422e-18 4.432232189e-18 1.837257827e-18 1.875169511e-18 8.100971846e-19)
5(4.559926018e-18 2.64793757e-18 1.031453803e-18 9.46471677e-19 4.29292243e-19)
5(2.580044511e-18 1.533422862e-18 5.69351212e-19 4.752296522e-19 2.256689796e-19)
5(1.455366341e-18 8.851928215e-19 3.30619359e-19 2.541174754e-19 1.227025028e-19)
5(8.664348539e-19 5.366472937e-19 2.009252152e-19 1.438512287e-19 7.034011824e-20)
5(5.335940553e-19 3.350936645e-19 1.253817155e-19 8.449147684e-20 4.163245332e-20)
5(3.495074003e-19 2.209899912e-19 8.064399937e-20 5.114318932e-20 2.521976901e-20)
5(2.369039972e-19 1.501100334e-19 5.303814615e-20 3.183818167e-20 1.556226442e-20)
5(1.619485264e-19 1.032366887e-19 3.58848125e-20 2.028553538e-20 9.818273041e-21)
5(1.144974871e-19 7.298466266e-20 2.456133157e-20 1.314756686e-20 6.259417265e-21)
5(8.151777127e-20 5.192357849e-20 1.690747382e-20 8.566371024e-21 4.01172928e-21)
5(5.976012599e-20 3.780680053e-20 1.167966562e-20 5.605194615e-21 2.545716504e-21)
5(4.475107252e-20 2.805137962e-20 8.130085054e-21 3.690250313e-21 1.633327281e-21)
5(3.182187509e-20 1.990977595e-20 5.594795855e-21 2.410561162e-21 1.052213546e-21)
5(2.323272991e-20 1.444282073e-20 3.862915128e-21 1.585213845e-21 6.886740524e-22)
5(1.679048443e-20 1.036627987e-20 2.629068342e-21 1.033474451e-21 4.642052002e-22)
5(1.197134796e-20 7.34315178e-21 1.771503982e-21 6.819541318e-22 3.37443645e-22)
5(8.618724209e-21 5.221447566e-21 1.162722672e-21 4.644409064e-22 2.883762411e-22)
5(5.965131115e-21 3.575357065e-21 7.285058652e-22 3.353206927e-22 3.059375779e-22)
5(3.847015512e-21 2.280831798e-21 4.004169281e-22 2.699658676e-22 3.967977775e-22)
5(2.071562414e-21 1.188743992e-21 1.027826543e-22 2.753633728e-22 6.245294075e-22)
5(3.624031598e-22 1.256488908e-22 -2.123888916e-22 3.755331662e-22 1.067686927e-21)
5(-1.58729126e-21 -1.121970151e-21 -5.853756417e-22 6.654287501e-22 1.880983501e-21)
5(-4.155345392e-21 -2.756517483e-21 -9.531852819e-22 1.467937763e-21 3.564151545e-21)
5(-7.607601109e-21 -4.885927869e-21 -1.018326581e-21 3.256705072e-21 6.520774245e-21)
5(-1.19576104e-20 -7.362841627e-21 -2.310402716e-22 6.872655072e-21 1.164171606e-20)
5(-1.662215909e-20 -9.452439503e-21 2.554256955e-21 1.336346447e-20 1.960972195e-20)
5(-2.048619358e-20 -9.802031242e-21 8.903225767e-21 2.37164628e-20 3.08468863e-20)
5(-2.024158008e-20 -5.874113469e-21 2.024010704e-20 3.847712762e-20 4.532458416e-20)
5(-1.313831697e-20 5.011361043e-21 3.771524643e-20 5.670273195e-20 6.145246127e-20)
5(5.29039539e-21 2.48686094e-20 5.916643615e-20 7.424275808e-20 7.47592705e-20)
5(3.316855438e-20 5.128917955e-20 8.098289014e-20 8.568053025e-20 7.870973503e-20)
5(6.885415515e-20 7.965419402e-20 9.549609261e-20 8.498622858e-20 6.898908323e-20)
5(1.018126773e-19 1.003530617e-19 9.597249446e-20 7.15881025e-20 4.93501129e-20)
5(1.173851031e-19 1.049541012e-19 8.18017325e-20 5.005119415e-20 2.808562078e-20)
5(1.105797424e-19 9.133941567e-20 5.769819197e-20 2.833364933e-20 1.246606609e-20)
5(8.527911051e-20 6.560726826e-20 3.297040394e-20 1.246714021e-20 4.214345802e-21)
5(5.234543293e-20 3.759198217e-20 1.480176395e-20 4.131635147e-21 1.04214205e-21)
5(2.538952584e-20 1.694295579e-20 5.028575826e-21 9.885014612e-22 1.815972542e-22)
5(8.911938904e-21 5.55674317e-21 1.213921642e-21 1.677781943e-22 2.131287502e-23)
5(2.248333933e-21 1.315715037e-21 1.972727773e-22 1.845261503e-23 1.82717244e-24)
5(3.395750168e-22 1.907494178e-22 2.039829662e-23 1.370075683e-24 1.14760829e-25)
5(3.621980603e-23 1.955737208e-23 1.304272495e-24 7.084127913e-26 5.391866899e-27)
5(1.64679851e-24 8.754651126e-25 4.421156336e-26 2.162778061e-27 1.808276126e-28)
5(3.563528814e-26 1.896477927e-26 9.671954969e-28 4.345489615e-29 8.817279402e-30)
5(1.847732996e-27 1.402798196e-28 -1.452294346e-27 1.467736098e-31 1.319996195e-27)
5(1.443916414e-25 9.198072421e-29 -2.445736916e-25 -1.79273172e-28 3.479068864e-25)
5(-6.786359278e-24 -2.725883593e-27 -3.464447879e-23 -3.141337725e-26 7.782584441e-23)
5(2.265515336e-22 4.129821878e-25 -6.150559277e-23 -2.938350355e-25 -1.119144032e-22)
5(-4.664887139e-40 6.292549711e-41 -4.492801034e-39 -2.021745473e-38 -3.110130772e-38)
)


60
(
5(1.806033662e-16 5.11171504e-17 8.458977329e-18 5.741190661e-17 1.644236747e-17)
5(1.082908086e-16 5.985494834e-17 3.017839806e-17 4.051717655e-17 2.724208167e-17)
5(6.910274888e-17 5.7394332e-17 4.095586092e-17 3.660904053e-17 3.192981761e-17)
5(6.50204698e-17 5.740627078e-17 4.422574552e-17 3.843725867e-17 3.349669195e-17)
5(7.570934065e-17 5.95490386e-17 4.482195309e-17 4.215777288e-17 3.372976193e-17)
5(9.413231149e-17 6.547341671e-17 4.464971296e-17 4.445392118e-17 3.220006343e-17)
5(1.030885635e-16 6.871970718e-17 4.364665544e-17 4.309225252e-17 2.920222465e-17)
5(1.044670832e-16 6.866029206e-17 4.05788127e-17 3.844286639e-17 2.483691192e-17)
5(9.660718276e-17 6.306774559e-17 3.454584279e-17 3.054379556e-17 1.832277748e-17)
5(8.533431061e-17 5.393424777e-17 2.558761023e-17 2.137343378e-17 1.153423799e-17)
5(6.646155937e-17 4.072986211e-17 1.571680648e-17 1.205550712e-17 5.859882563e-18)
5(4.054528768e-17 2.487512306e-17 8.649730049e-18 5.9741328e-18 2.820477337e-18)
5(2.292710232e-17 1.41867911e-17 4.700619472e-18 2.953038269e-18 1.398319986e-18)
5(1.356900697e-17 8.434782153e-18 2.694696342e-18 1.573328394e-18 7.454500075e-19)
5(8.187134454e-18 5.135659441e-18 1.629806918e-18 8.903626728e-19 4.246191972e-19)
5(5.320968188e-18 3.337122323e-18 1.023607473e-18 5.27777507e-19 2.487427042e-19)
5(3.502833324e-18 2.204826615e-18 6.654244562e-19 3.22705457e-19 1.499969633e-19)
5(2.423254886e-18 1.519143687e-18 4.407059139e-19 2.03255992e-19 9.246690625e-20)
5(1.725163383e-18 1.075407226e-18 2.971817542e-19 1.299710361e-19 5.842966132e-20)
5(1.239493471e-18 7.68686011e-19 2.033946747e-19 8.460307664e-20 3.744815117e-20)
5(9.464275322e-19 5.789693578e-19 1.407694682e-19 5.565696286e-20 2.430214115e-20)
5(6.806316569e-19 4.150807478e-19 9.784070164e-20 3.688940719e-20 1.573983794e-20)
5(5.230667133e-19 3.150019691e-19 6.836932818e-20 2.444507083e-20 1.016489602e-20)
5(3.878077549e-19 2.319638769e-19 4.772127041e-20 1.619828626e-20 6.612612955e-21)
5(3.014894341e-19 1.779385007e-19 3.327159241e-20 1.069190296e-20 4.304881664e-21)
5(2.257672743e-19 1.321227663e-19 2.308397915e-20 7.044605251e-21 2.78765096e-21)
5(1.716629809e-19 9.943305407e-20 1.593490338e-20 4.600424301e-21 1.841138847e-21)
5(1.34970203e-19 7.69600637e-20 1.08000699e-20 2.988584078e-21 1.237341228e-21)
5(9.9131857e-20 5.610150882e-20 7.262150484e-21 1.920845983e-21 8.840366047e-22)
5(7.515527315e-20 4.201805699e-20 4.716563332e-21 1.164591214e-21 6.54846793e-22)
5(5.534864363e-20 3.048291865e-20 2.723780977e-21 6.267344432e-22 6.104211461e-22)
5(3.988761191e-20 2.147082199e-20 1.054140412e-21 1.311386147e-22 6.337887588e-22)
5(2.639230176e-20 1.35025337e-20 -6.6250949e-22 -2.947462185e-22 9.792391342e-22)
5(1.486413575e-20 6.30856471e-21 -2.683193311e-21 -6.368592218e-22 1.643711689e-21)
5(3.519806713e-21 -1.140466702e-21 -5.065133923e-21 -3.095002743e-22 3.669342939e-21)
5(-7.123798827e-21 -8.619541095e-21 -7.510636573e-21 1.345675335e-21 7.700289573e-21)
5(-1.996727198e-20 -1.740555353e-20 -9.001701347e-21 6.025316452e-21 1.548222878e-20)
5(-3.365105363e-20 -2.58927655e-20 -7.444551996e-21 1.592036571e-20 2.905320923e-20)
5(-4.42956116e-20 -3.044308578e-20 2.722449611e-22 3.337909683e-20 5.025256922e-20)
5(-4.903652937e-20 -2.807522123e-20 1.710406823e-20 5.976306062e-20 7.895920269e-20)
5(-4.150587723e-20 -1.36340712e-20 4.47744349e-20 9.324948323e-20 1.119689442e-19)
5(-1.668084817e-20 1.610083943e-20 8.133847792e-20 1.259634849e-19 1.38776558e-19)
5(2.614385749e-20 5.82296723e-20 1.186467676e-19 1.468212376e-19 1.469673271e-19)
5(7.782379621e-20 1.023657483e-19 1.448332588e-19 1.471657998e-19 1.314020131e-19)
5(1.265367036e-19 1.362893599e-19 1.485205612e-19 1.248242644e-19 9.799137655e-20)
5(1.522291398e-19 1.458470527e-19 1.273971163e-19 8.823388366e-20 6.016082467e-20)
5(1.45427618e-19 1.281030284e-19 9.065476663e-20 5.039488896e-20 2.922468062e-20)
5(1.130048908e-19 9.161375882e-20 5.192317562e-20 2.279485844e-20 1.108400577e-20)
5(6.999328502e-20 5.235988124e-20 2.331348281e-20 7.823188067e-21 3.15211704e-21)
5(3.343661026e-20 2.309246219e-20 7.882040104e-21 1.976445283e-21 6.2453984e-22)
5(1.195879819e-20 7.624754323e-21 1.887046692e-21 3.475392588e-22 8.812987126e-23)
5(2.81074151e-21 1.683534218e-21 2.976872988e-22 3.920896824e-23 7.806068605e-24)
5(4.028773726e-22 2.301360287e-22 2.880618196e-23 2.756263003e-24 4.632643059e-25)
5(2.902255107e-23 1.612300603e-23 1.525316559e-24 1.036737098e-25 1.586741633e-26)
5(1.14830246e-24 6.191751187e-25 3.97536165e-26 2.271642907e-27 1.945160438e-29)
5(1.699019047e-25 9.389479258e-27 -4.015385696e-26 2.620013655e-28 -7.621834247e-26)
5(3.524254597e-23 -3.287566489e-26 -9.321890604e-24 5.751060471e-26 -1.79013455e-23)
5(1.029529227e-20 -6.9619865e-24 -2.872711246e-21 1.342492111e-23 -4.933845636e-21)
5(4.223753261e-18 1.607488477e-21 -1.363860428e-18 5.441766195e-22 -1.650520129e-18)
5(1.911873551e-38 1.265743792e-38 -1.840163489e-38 -6.858888183e-38 -9.511161841e-38)
)


60
(
5(4.347827306e-16 1.543826103e-16 4.066371112e-17 1.386177564e-16 6.274809332e-17)
5(3.455473665e-16 2.141216292e-16 1.112277164e-16 1.197972737e-16 8.60621802e-17)
5(2.953364182e-16 2.382333744e-16 1.531936627e-16 1.210956357e-16 1.00688319e-16)
5(3.006742736e-16 2.51658115e-16 1.711508399e-16 1.327795176e-16 1.09998402e-16)
5(3.628079698e-16 2.784354312e-16 1.80527981e-16 1.481687982e-16 1.137215712e-16)
5(4.340198792e-16 3.105940582e-16 1.872281089e-16 1.57427974e-16 1.119760811e-16)
5(4.800496493e-16 3.299948737e-16 1.838654881e-16 1.540131906e-16 1.049511617e-16)
5(4.83074245e-16 3.288849617e-16 1.728828779e-16 1.383260126e-16 9.132753861e-17)
5(4.732476053e-16 3.161704841e-16 1.500939538e-16 1.117303183e-16 6.943913898e-17)
5(4.218285605e-16 2.706779437e-16 1.104875144e-16 7.819174809e-17 4.42842609e-17)
5(3.118037274e-16 1.947673329e-16 6.906733718e-17 4.521673375e-17 2.26793454e-17)
5(2.020107476e-16 1.238386658e-16 3.753777608e-17 2.218867469e-17 1.049676013e-17)
5(1.177614058e-16 7.203847019e-17 2.011034135e-17 1.071454965e-17 5.041594376e-18)
5(6.955846796e-17 4.25935716e-17 1.140755057e-17 5.607160816e-18 2.618718123e-18)
5(4.208676004e-17 2.589664858e-17 6.857919054e-18 3.15236671e-18 1.472938077e-18)
5(2.767744148e-17 1.696165734e-17 4.288656636e-18 1.856752205e-18 8.585724418e-19)
5(1.906601826e-17 1.159834319e-17 2.766215499e-18 1.13473856e-18 5.174053729e-19)
5(1.31982714e-17 7.9960531e-18 1.832197231e-18 7.12927283e-19 3.196007435e-19)
5(9.668659472e-18 5.799613863e-18 1.237751434e-18 4.578199317e-19 2.020128272e-19)
5(7.15346632e-18 4.257799489e-18 8.546214969e-19 2.996764772e-19 1.302559907e-19)
5(5.417358389e-18 3.196607683e-18 5.981717143e-19 1.977754837e-19 8.459998881e-20)
5(4.153103196e-18 2.426956982e-18 4.208764471e-19 1.323358237e-19 5.552875923e-20)
5(3.247946203e-18 1.879706233e-18 3.003098169e-19 8.895533107e-20 3.632222626e-20)
5(2.515608815e-18 1.445782276e-18 2.160678383e-19 5.999248283e-20 2.391418106e-20)
5(1.977884945e-18 1.128086596e-18 1.561949293e-19 4.040966383e-20 1.587361871e-20)
5(1.592165509e-18 8.992134507e-19 1.127851721e-19 2.715275864e-20 1.049408408e-20)
5(1.270166728e-18 7.120273356e-19 8.205628023e-20 1.819637171e-20 6.899964672e-21)
5(1.039599755e-18 5.772746153e-19 5.960065569e-20 1.22201291e-20 4.608877971e-21)
5(8.200046546e-19 4.527311682e-19 4.325942802e-20 8.124095778e-21 3.070167189e-21)
5(6.47125345e-19 3.554062365e-19 3.141912534e-20 5.325743286e-21 2.072694639e-21)
5(5.145520819e-19 2.807739133e-19 2.243674121e-20 3.282707091e-21 1.28785744e-21)
5(4.006948985e-19 2.173322165e-19 1.545109966e-20 1.627385447e-21 6.366022873e-22)
5(3.025599732e-19 1.628176888e-19 9.377721952e-21 -8.047310024e-23 -7.558083908e-23)
5(2.289553815e-19 1.210968139e-19 3.4716344e-21 -1.884096348e-21 -6.478265836e-22)
5(1.586773723e-19 8.103795222e-20 -2.800153096e-21 -4.046608144e-21 -1.282427505e-21)
5(1.031187732e-19 4.779737428e-20 -1.000160907e-20 -5.389265343e-21 2.674178402e-22)
5(5.481564441e-20 1.750938865e-20 -1.749814723e-20 -5.117836306e-21 4.155163661e-21)
5(9.704465213e-21 -1.123248825e-20 -2.363549251e-20 -5.813095765e-22 1.37033196e-20)
5(-2.721711448e-20 -3.4850429e-20 -2.522940643e-20 1.25705901e-20 3.33551199e-20)
5(-5.750932755e-20 -5.152341997e-20 -1.731810296e-20 3.795983747e-20 6.569033071e-20)
5(-7.464096358e-20 -5.422658459e-20 5.180847853e-21 7.743190686e-20 1.117384541e-19)
5(-6.993024538e-20 -3.643465805e-20 4.451282182e-20 1.250704608e-19 1.593996965e-19)
5(-3.804946381e-20 4.498345101e-21 9.657476114e-20 1.702934709e-19 1.956112574e-19)
5(1.917309999e-20 6.309286409e-20 1.491689574e-19 1.969452798e-19 2.032877194e-19)
5(9.163192186e-20 1.261535839e-19 1.843709515e-19 1.941115964e-19 1.802556992e-19)
5(1.56681801e-19 1.728059913e-19 1.88278632e-19 1.616723033e-19 1.351590023e-19)
5(1.91220133e-19 1.863627175e-19 1.597402223e-19 1.111612584e-19 8.331130266e-20)
5(1.862402212e-19 1.634162345e-19 1.115458527e-19 6.243895689e-20 4.110289162e-20)
5(1.453023004e-19 1.161374575e-19 6.255719626e-20 2.7430163e-20 1.555321807e-20)
5(9.077294933e-20 6.632833675e-20 2.737583823e-20 9.00144722e-21 4.307148318e-21)
5(4.431751291e-20 2.952334304e-20 8.865321426e-21 2.166728417e-21 8.700921189e-22)
5(1.567389263e-20 9.59183324e-21 1.962195471e-21 3.559756565e-22 1.125496178e-22)
5(3.530681091e-21 2.041035434e-21 2.844140024e-22 3.602235397e-23 9.317193961e-24)
5(4.91404605e-22 2.709107011e-22 2.355669637e-23 1.955274946e-24 4.531122498e-25)
5(3.668922461e-23 1.951748122e-23 9.482519448e-25 4.999010028e-26 1.656435441e-26)
5(-3.503514657e-26 5.182125667e-25 1.371016493e-25 -5.90209929e-27 8.184450001e-25)
5(-2.039722409e-22 1.037957282e-24 2.821863183e-23 -1.209862096e-24 1.568086596e-22)
5(-5.726718626e-20 2.571884221e-22 9.807141226e-21 -3.009249133e-22 4.023556842e-20)
5(-2.722362723e-17 9.170399953e-20 5.974086462e-18 -1.089336156e-19 1.647871382e-17)
5(-2.701153934e-15 -1.110247544e-18 1.378926574e-15 -4.110353985e-21 2.110056011e-17)
)


60
(
5(9.362777124e-16 3.87724476e-16 1.170346688e-16 2.797681249e-16 1.518714455e-16)
5(9.337140528e-16 6.029809027e-16 2.943701073e-16 2.744803004e-16 2.021281462e-16)
5(9.495102233e-16 7.281842576e-16 4.121807352e-16 2.97771496e-16 2.388120508e-16)
5(1.041661512e-15 8.136452271e-16 4.758001622e-16 3.361943222e-16 2.657367755e-16)
5(1.256337269e-15 9.2863273e-16 5.158283311e-16 3.765652863e-16 2.809732862e-16)
5(1.515591274e-15 1.059099341e-15 5.394855711e-16 4.006320627e-16 2.820650749e-16)
5(1.707219066e-15 1.156869441e-15 5.420842841e-16 3.952861064e-16 2.693200185e-16)
5(1.757439341e-15 1.174376664e-15 5.161224054e-16 3.603337794e-16 2.375799165e-16)
5(1.697052098e-15 1.116137388e-15 4.523769319e-16 2.972867408e-16 1.865274289e-16)
5(1.521066613e-15 9.766948109e-16 3.510444547e-16 2.121586941e-16 1.219967842e-16)
5(1.172948329e-15 7.281095607e-16 2.2230841e-16 1.254557516e-16 6.57682201e-17)
5(7.549859631e-16 4.606290939e-16 1.227620347e-16 6.192013752e-17 2.996804762e-17)
5(4.482896136e-16 2.704337772e-16 6.465887495e-17 2.948730196e-17 1.388798006e-17)
5(2.757261733e-16 1.647264026e-16 3.59968396e-17 1.516724974e-17 7.079518371e-18)
5(1.693292094e-16 1.011164187e-16 2.147156058e-17 8.464157075e-18 3.909847583e-18)
5(1.111930713e-16 6.610946915e-17 1.342305361e-17 4.999530163e-18 2.268158791e-18)
5(7.746801677e-17 4.575419815e-17 8.734865799e-18 3.052765451e-18 1.375001464e-18)
5(5.52664897e-17 3.24296224e-17 5.833699068e-18 1.919474062e-18 8.544193611e-19)
5(4.079704078e-17 2.375661189e-17 3.999571762e-18 1.242439324e-18 5.416895127e-19)
5(3.092991159e-17 1.788010898e-17 2.811853008e-18 8.180029686e-19 3.50119409e-19)
5(2.38809352e-17 1.371151449e-17 2.01653868e-18 5.478606702e-19 2.301741281e-19)
5(1.867683873e-17 1.065320289e-17 1.465934032e-18 3.718532686e-19 1.525240809e-19)
5(1.501822467e-17 8.506443799e-18 1.087530558e-18 2.558710978e-19 1.020760381e-19)
5(1.230887829e-17 6.920571533e-18 8.161784343e-19 1.77325848e-19 6.887452931e-20)
5(9.850657394e-18 5.519327212e-18 6.208360963e-19 1.233068965e-19 4.63927937e-20)
5(8.231064908e-18 4.586648244e-18 4.814619517e-19 8.642695584e-20 3.128044317e-20)
5(6.650628325e-18 3.691840855e-18 3.688568803e-19 6.121655743e-20 2.127150288e-20)
5(5.528922348e-18 3.056342877e-18 2.885777712e-19 4.360234145e-20 1.452434187e-20)
5(4.546830961e-18 2.508262496e-18 2.288010015e-19 3.107573314e-20 9.922361194e-21)
5(3.83581288e-18 2.10592408e-18 1.800429294e-19 2.225232871e-20 6.765765707e-21)
5(3.1272075e-18 1.711481385e-18 1.399655043e-19 1.594709974e-20 4.441160812e-21)
5(2.481450719e-18 1.357262997e-18 1.092827198e-19 1.085899105e-20 2.358667877e-21)
5(1.964167266e-18 1.071989063e-18 8.281467097e-20 6.444207303e-21 5.776620205e-22)
5(1.532366308e-18 8.344015811e-19 6.07449744e-20 1.850034765e-21 -1.765143606e-21)
5(1.193329993e-18 6.451101747e-19 3.962144448e-20 -3.183617216e-21 -4.495116476e-21)
5(8.920991029e-19 4.758840277e-19 1.885148497e-20 -8.655700352e-21 -7.095930007e-21)
5(6.194022883e-19 3.224537737e-19 -8.805928182e-22 -1.393270338e-20 -8.759080931e-21)
5(4.034478324e-19 1.97498717e-19 -2.06007098e-20 -1.702237111e-20 -6.706123009e-21)
5(2.255753273e-19 9.221628083e-20 -3.764840511e-20 -1.30732162e-20 4.806462484e-21)
5(8.989856988e-20 1.211581667e-20 -4.601485905e-20 3.405440892e-21 3.169660289e-20)
5(-6.631755734e-21 -4.144888556e-20 -3.937038327e-20 3.799080681e-20 7.830588204e-20)
5(-6.625320329e-20 -6.524146317e-20 -1.069947753e-20 9.001727998e-20 1.380326259e-19)
5(-8.063025311e-20 -5.129017902e-20 4.252916685e-20 1.529874306e-19 2.003703256e-19)
5(-4.882422104e-20 -9.973302859e-22 1.123930086e-19 2.093644508e-19 2.42248848e-19)
5(2.152098291e-20 7.678940943e-20 1.812135599e-19 2.389757478e-19 2.487252521e-19)
5(1.118016279e-19 1.586151619e-19 2.261259344e-19 2.316227008e-19 2.168538753e-19)
5(1.979834342e-19 2.211519618e-19 2.300476169e-19 1.883057518e-19 1.604197951e-19)
5(2.469993639e-19 2.408670957e-19 1.946317935e-19 1.264758499e-19 9.727991425e-20)
5(2.442228458e-19 2.12653321e-19 1.351406034e-19 6.888799456e-20 4.700371962e-20)
5(1.967046999e-19 1.539819871e-19 7.545787803e-20 2.947277136e-20 1.770824477e-20)
5(1.272124998e-19 8.993577788e-20 3.273437865e-20 9.416414121e-21 4.797060623e-21)
5(6.50800042e-20 4.159089705e-20 1.034518531e-20 2.1033211e-21 8.823830747e-22)
5(2.498096005e-20 1.475269848e-20 2.363059438e-21 3.127917743e-22 1.056739669e-22)
5(6.434332079e-21 3.587000538e-21 3.479926674e-22 2.648037105e-23 6.963030016e-24)
5(9.143512549e-22 4.894709889e-22 2.651498892e-23 1.167946567e-24 2.354042222e-25)
5(9.658568625e-23 5.06532677e-23 1.137511246e-24 1.698457848e-26 9.945180619e-25)
5(-2.298109937e-22 2.246490815e-24 4.766785853e-23 -5.423796317e-25 1.48881548e-22)
5(-5.702987387e-20 6.194396771e-23 1.531944424e-20 -9.229186311e-23 2.890885298e-20)
5(-2.087898309e-17 -6.017854579e-21 6.937880579e-18 -2.294444048e-21 7.881892391e-18)
5(1.723831885e-28 8.757989309e-29 1.352383051e-32 -4.006431529e-37 -3.993832921e-37)
)


60
(
5(1.873440859e-15 8.603560982e-16 2.645282476e-16 5.010417033e-16 3.014267211e-16)
5(2.269849595e-15 1.475642017e-15 6.501888632e-16 5.374867742e-16 3.982656494e-16)
5(2.596441594e-15 1.895805137e-15 9.296535153e-16 6.109870291e-16 4.764683311e-16)
5(3.017310184e-15 2.209552791e-15 1.089572014e-15 7.016099491e-16 5.368176795e-16)
5(3.740014041e-15 2.617099882e-15 1.202453772e-15 7.901234642e-16 5.741693151e-16)
5(4.583685381e-15 3.088375362e-15 1.295838514e-15 8.427212891e-16 5.838026658e-16)
5(5.092792994e-15 3.363467589e-15 1.32448113e-15 8.432219983e-16 5.655414697e-16)
5(5.37985501e-15 3.495996003e-15 1.278449624e-15 7.798285614e-16 5.080415285e-16)
5(5.261328711e-15 3.370060012e-15 1.142371792e-15 6.576808338e-16 4.088863028e-16)
5(4.807819978e-15 3.003737743e-15 8.969854509e-16 4.823786517e-16 2.821829303e-16)
5(3.721114171e-15 2.278068801e-15 5.996154598e-16 2.931781656e-16 1.563031423e-16)
5(2.548573963e-15 1.522394695e-15 3.380637405e-16 1.480534012e-16 7.254374261e-17)
5(1.50783093e-15 8.913893189e-16 1.784799303e-16 7.006430156e-17 3.297124687e-17)
5(9.132056519e-16 5.359000382e-16 9.909979164e-17 3.543598087e-17 1.638003784e-17)
5(5.702910157e-16 3.337295964e-16 5.920555337e-17 1.96778665e-17 8.990989237e-18)
5(3.820525675e-16 2.224432001e-16 3.743080521e-17 1.162018888e-17 5.208309945e-18)
5(2.684181647e-16 1.55282717e-16 2.457874622e-17 7.162564211e-18 3.159369495e-18)
5(1.99374624e-16 1.144278856e-16 1.680203914e-17 4.564942696e-18 1.961585831e-18)
5(1.472187585e-16 8.416468497e-17 1.18053842e-17 2.987448304e-18 1.257662539e-18)
5(1.124008768e-16 6.3980411e-17 8.539989572e-18 2.005116281e-18 8.179593086e-19)
5(8.844714449e-17 5.009576037e-17 6.324090367e-18 1.375129005e-18 5.452939642e-19)
5(7.008634305e-17 3.955443103e-17 4.777484345e-18 9.608768857e-19 3.702827213e-19)
5(5.806446482e-17 3.258598424e-17 3.694939323e-18 6.85608728e-19 2.526560933e-19)
5(4.753742444e-17 2.661312506e-17 2.915167415e-18 4.959649649e-19 1.738514305e-19)
5(3.914166037e-17 2.186942641e-17 2.326825037e-18 3.63926891e-19 1.210808218e-19)
5(3.30452668e-17 1.839826221e-17 1.875442842e-18 2.72250457e-19 8.476043001e-20)
5(2.835123073e-17 1.572921296e-17 1.534439266e-18 2.061341266e-19 5.970906336e-20)
5(2.386340893e-17 1.322611951e-17 1.267675502e-18 1.570847526e-19 4.259592947e-20)
5(1.96026144e-17 1.08733419e-17 1.045807917e-18 1.208539491e-19 3.07658098e-20)
5(1.664737537e-17 9.206997658e-18 8.559917128e-19 9.458717756e-20 2.21733703e-20)
5(1.388778545e-17 7.679865394e-18 7.111449455e-19 7.449255218e-20 1.594651264e-20)
5(1.155482489e-17 6.390459551e-18 5.901180451e-19 5.761300761e-20 1.097394554e-20)
5(9.402204148e-18 5.19318168e-18 4.718559677e-19 4.35392905e-20 6.509165383e-21)
5(7.388173693e-18 4.085093823e-18 3.739609895e-19 3.051768442e-20 1.172090343e-21)
5(5.895133018e-18 3.252185916e-18 2.878362642e-19 1.812935446e-20 -4.574150308e-21)
5(4.436722067e-18 2.447908788e-18 2.124667946e-19 4.933573641e-21 -1.146088431e-20)
5(3.36760964e-18 1.848223402e-18 1.437297007e-19 -9.12934592e-21 -1.882251238e-20)
5(2.367108202e-18 1.286489023e-18 7.832978193e-20 -2.243351678e-20 -2.517691548e-20)
5(1.614825217e-18 8.571968688e-19 2.06294875e-20 -3.174472906e-20 -2.555157383e-20)
5(1.002997818e-18 5.075722366e-19 -2.476109997e-20 -3.00957207e-20 -1.145459313e-20)
5(5.454384014e-19 2.455841849e-19 -5.300082435e-20 -7.818873885e-21 2.879133912e-20)
5(2.290062796e-19 6.986736275e-20 -5.373635137e-20 3.580407459e-20 8.651132519e-20)
5(4.334611716e-20 -2.030812449e-20 -2.03927406e-20 1.040784644e-19 1.643210045e-19)
5(-4.22731298e-20 -3.796063898e-20 4.671151125e-20 1.820476899e-19 2.379765682e-19)
5(-3.576637999e-20 1.220724669e-20 1.366424459e-19 2.486598243e-19 2.858532487e-19)
5(3.622860044e-20 1.04636984e-19 2.247361895e-19 2.829538554e-19 2.910201041e-19)
5(1.374862764e-19 2.050429768e-19 2.81658151e-19 2.711322031e-19 2.525014844e-19)
5(2.465982708e-19 2.853127453e-19 2.874553544e-19 2.16379757e-19 1.817590296e-19)
5(3.123124592e-19 3.104785326e-19 2.439451611e-19 1.441760015e-19 1.079566136e-19)
5(3.175962345e-19 2.789194178e-19 1.715366249e-19 7.751081891e-20 5.031767609e-20)