/*--------------------------------*- C++ -*----------------------------------*\
| =========                 |                                                 |
| \\      /  F ield         | OpenFOAM: The Open Source CFD Toolbox           |
|  \\    /   O peration     | Version:  2.3.1                                 |
|   \\  /    A nd           | Web:      www.OpenFOAM.org                      |
|    \\/     M anipulation  |                                                 |
\*---------------------------------------------------------------------------*/
FoamFile
{
    version     2.0;
    format      ascii;
    class       dictionary;
    location    "constant";
    object      DPSI7;
}
// * * * * * * * * * * * * * * * * * * * * * * * * * * * * * * * * * * * * * //

DPSI7_table
60
(

60
(
5(1.508677834e-09 3.411602833e-09 3.264983165e-09 2.788476349e-09 6.31069833e-09)
5(-5.353705737e-09 8.13117023e-10 2.486295252e-09 2.43518478e-09 7.094584071e-09)
5(-1.759982958e-08 -1.571754507e-09 2.527628016e-10 1.899871491e-09 3.34718797e-10)
5(-2.002311436e-08 -6.94950321e-10 -9.173731102e-10 -5.916532459e-10 -3.306765822e-09)
5(-1.176054011e-08 -2.321491245e-10 1.371167885e-09 -2.146866971e-09 1.20115339e-09)
5(3.187016701e-08 -4.590941183e-10 8.457792771e-10 -2.490912274e-10 -2.047893437e-09)
5(3.769597733e-08 -1.101327457e-09 -3.007082356e-09 -1.110231661e-09 -3.565887797e-10)
5(-5.566768485e-08 -1.980390208e-09 -3.666878278e-09 -2.869141947e-09 -6.690164539e-11)
5(-8.414864484e-08 -5.386533731e-09 -4.313147752e-09 -2.807091412e-09 -4.55176324e-09)
5(-3.596177232e-08 -7.704659568e-09 -4.443519921e-09 -3.696058781e-09 -3.924408508e-09)
5(3.781583343e-08 -7.134290409e-10 -2.084977725e-09 -4.061900595e-09 -3.959978841e-09)
5(9.828208348e-08 3.766910608e-10 -2.358009334e-09 -5.469868241e-09 -5.100127406e-09)
5(4.627615169e-08 -5.770855009e-09 -5.410331842e-09 -6.174332106e-09 -6.038952541e-09)
5(-5.005398815e-09 -6.32324486e-09 -7.008218571e-09 -7.736882079e-09 -7.359137158e-09)
5(-1.366534193e-08 -1.736275884e-08 -1.224798276e-08 -1.38736205e-08 -1.126913201e-08)
5(-1.685826586e-08 -1.846304882e-08 -1.696647792e-08 -1.447784484e-08 -1.450978729e-08)
5(-4.10817685e-09 -8.089739341e-09 -1.083526964e-08 -1.459312351e-08 -1.747658645e-08)
5(-1.063426465e-09 -8.785849398e-09 -1.185623304e-08 -1.938690403e-08 -2.492467543e-08)
5(-9.92923024e-09 -1.337110452e-08 -2.217463824e-08 -2.731573274e-08 -2.885823317e-08)
5(-1.695097939e-08 -1.98663872e-08 -2.556924305e-08 -3.277881788e-08 -2.810717364e-08)
5(-1.967565208e-08 -2.508878846e-08 -3.16856071e-08 -2.865353958e-08 -3.023004128e-08)
5(-2.589663955e-08 -3.258685806e-08 -3.90970858e-08 -4.169635567e-08 -4.659030759e-08)
5(-2.99586285e-08 -4.265477432e-08 -4.431256322e-08 -5.810272227e-08 -6.035604526e-08)
5(-3.611764402e-08 -5.280250349e-08 -5.568944525e-08 -6.655804508e-08 -6.87638983e-08)
5(-4.408944213e-08 -6.310284512e-08 -7.147873046e-08 -8.441692665e-08 -8.131790493e-08)
5(-5.024766753e-08 -6.542597273e-08 -7.648673152e-08 -9.666061428e-08 -9.137511499e-08)
5(-5.769954823e-08 -6.536243526e-08 -8.732744558e-08 -1.060007898e-07 -1.041168012e-07)
5(-7.225870722e-08 -8.386927268e-08 -1.016647602e-07 -1.133962983e-07 -1.183942157e-07)
5(-8.611119396e-08 -1.080683643e-07 -1.092478375e-07 -1.149343797e-07 -1.273666264e-07)
5(-9.881752476e-08 -1.244628111e-07 -1.349837143e-07 -1.41291994e-07 -1.40935786e-07)
5(-1.134758511e-07 -1.326751256e-07 -1.440377174e-07 -1.472331674e-07 -1.174944134e-07)
5(-1.236609398e-07 -1.479186369e-07 -1.571230141e-07 -1.505178125e-07 -1.645996096e-07)
5(-1.42607801e-07 -1.747422789e-07 -1.94861424e-07 -1.747287809e-07 -1.612856873e-07)
5(-1.656148591e-07 -1.865788261e-07 -2.013955993e-07 -1.851636237e-07 -1.112833498e-07)
5(-1.834875509e-07 -2.164574849e-07 -2.449198041e-07 -2.099247958e-07 -1.664853164e-07)
5(-2.021535306e-07 -2.101053738e-07 -1.996275694e-07 -1.87686241e-07 -2.16511301e-07)
5(-2.218424603e-07 -2.293377469e-07 -1.702835518e-07 -2.068871989e-07 -4.438446391e-08)
5(-2.499089047e-07 -2.704274334e-07 -2.725416587e-07 -2.280371517e-07 -1.909967122e-07)
5(-3.001235701e-07 -2.76162105e-07 -3.289849498e-07 -2.375393285e-07 7.84272304e-07)
5(-3.152831196e-07 -2.66905305e-07 -2.548045053e-07 -2.109746625e-07 9.691634053e-07)
5(-2.917364623e-07 -2.616875595e-07 -1.903174408e-07 2.551401033e-07 -1.588404628e-07)
5(-3.074223736e-07 -2.509619236e-07 -2.044195973e-07 1.174496297e-06 -1.741033903e-07)
5(-3.495344802e-07 -2.975651258e-07 -4.631179526e-07 7.259749459e-07 -3.163448663e-07)
5(-3.734749601e-07 -3.149247786e-07 -4.324807176e-07 -2.715113945e-07 -3.185261132e-07)
5(-3.169830321e-07 -3.049096394e-07 -3.057124117e-08 -3.242879742e-07 -3.067931313e-07)
5(-2.665993216e-07 -2.428770098e-07 1.016876194e-06 -3.949038724e-07 -4.186488465e-07)
5(-2.337463698e-07 1.32841939e-07 1.215237833e-06 -4.484141868e-07 -5.025665497e-07)
5(-2.541045853e-07 -1.361980985e-08 2.969155333e-08 -5.127187743e-07 -5.861138315e-07)
5(-2.702559185e-07 9.750312967e-07 -4.611233441e-07 -5.971783917e-07 -6.724424859e-07)
5(-9.559563164e-08 9.539533878e-07 -5.84653722e-07 -6.892198572e-07 -7.702772964e-07)
5(9.463921522e-07 -5.398524683e-07 -6.734936845e-07 -7.90189243e-07 -8.805197457e-07)
5(1.100095797e-06 -6.467855519e-07 -7.684538918e-07 -8.958491516e-07 -9.97667889e-07)
5(-8.440074641e-08 -7.327100465e-07 -8.757609721e-07 -1.011889542e-06 -1.134146113e-06)
5(-6.106685358e-07 -8.259709143e-07 -9.923378163e-07 -1.143261921e-06 -1.281695922e-06)
5(-8.412943694e-07 -9.33561438e-07 -1.118171688e-06 -1.279857804e-06 -1.433474546e-06)
5(-1.116675645e-06 -1.057929647e-06 -1.259053087e-06 -1.424495443e-06 -1.594330669e-06)
5(-1.270084477e-06 -1.279845792e-06 -1.424050728e-06 -1.590600169e-06 -1.730648401e-06)
5(-1.251364783e-06 -1.538867041e-06 -1.714953026e-06 -1.417021586e-06 -1.915870824e-06)
5(-1.277091448e-06 -1.839212506e-06 -2.275467903e-06 -2.781248052e-06 -2.890376939e-06)
5(-1.325183928e-06 -2.049222037e-06 -2.654569132e-06 -4.47357563e-06 -3.771740144e-06)
)


60
(
5(4.380503043e-10 -5.612747101e-10 1.909564217e-09 1.192548729e-09 5.658270467e-09)
5(1.082747165e-10 -8.938461926e-10 1.082867804e-09 3.573755389e-10 3.76851071e-09)
5(-6.38511558e-10 -1.579722953e-09 -7.705264633e-10 -1.518974357e-09 -1.826479192e-10)
5(-1.496277421e-09 -2.399440267e-09 -2.652308356e-09 -3.465445196e-09 -3.826666783e-09)
5(-2.42030019e-09 -3.355194795e-09 -4.325674407e-09 -5.315878634e-09 -7.021347229e-09)
5(-3.222188971e-09 -4.376584028e-09 -5.493754352e-09 -6.859037351e-09 -8.855768178e-09)
5(-3.903769874e-09 -5.483091396e-09 -6.490302209e-09 -8.290843088e-09 -9.695986209e-09)
5(-4.723642328e-09 -6.776659324e-09 -7.798182953e-09 -1.001219557e-08 -1.098505704e-08)
5(-5.907523291e-09 -8.383714244e-09 -9.646194627e-09 -1.225987136e-08 -1.341663908e-08)
5(-7.403903818e-09 -1.033090867e-08 -1.210986199e-08 -1.502667088e-08 -1.665183129e-08)
5(-9.19153977e-09 -1.261204433e-08 -1.499657985e-08 -1.812616528e-08 -2.007893912e-08)
5(-1.126767618e-08 -1.531614292e-08 -1.814935336e-08 -2.156167914e-08 -2.346128723e-08)
5(-1.364479369e-08 -1.844572117e-08 -2.160925643e-08 -2.54720498e-08 -2.697084375e-08)
5(-1.648362165e-08 -2.211750876e-08 -2.561929208e-08 -2.990725093e-08 -3.11417811e-08)
5(-1.992357111e-08 -2.650005831e-08 -3.046505784e-08 -3.510197598e-08 -3.631960058e-08)
5(-2.410514378e-08 -3.166384879e-08 -3.631529304e-08 -4.149827061e-08 -4.274915365e-08)
5(-2.903558995e-08 -3.78815361e-08 -4.322761767e-08 -4.911895847e-08 -5.039479344e-08)
5(-3.496301867e-08 -4.521625691e-08 -5.142678277e-08 -5.817956407e-08 -5.963068098e-08)
5(-4.199437893e-08 -5.38772973e-08 -6.106573129e-08 -6.9014032e-08 -7.104272659e-08)
5(-5.036759701e-08 -6.424020603e-08 -7.255968886e-08 -8.168313213e-08 -8.434924776e-08)
5(-6.028253429e-08 -7.63235916e-08 -8.606417086e-08 -9.661551831e-08 -9.97397083e-08)
5(-7.16378527e-08 -9.028181891e-08 -1.016473454e-07 -1.137550277e-07 -1.180706701e-07)
5(-8.533021635e-08 -1.065888031e-07 -1.199055957e-07 -1.330192976e-07 -1.385654495e-07)
5(-1.014046258e-07 -1.250856732e-07 -1.403920856e-07 -1.551196094e-07 -1.614200289e-07)
5(-1.194623698e-07 -1.459849832e-07 -1.637590192e-07 -1.801275925e-07 -1.869741666e-07)
5(-1.40206344e-07 -1.693871585e-07 -1.897716324e-07 -2.073764312e-07 -2.140200897e-07)
5(-1.633847448e-07 -1.958567112e-07 -2.176007362e-07 -2.361289197e-07 -2.418168662e-07)
5(-1.896371566e-07 -2.252824308e-07 -2.484205469e-07 -2.66258527e-07 -2.721831848e-07)
5(-2.190168693e-07 -2.562949661e-07 -2.814967319e-07 -2.983070033e-07 -3.030757105e-07)
5(-2.513671943e-07 -2.898808732e-07 -3.164508761e-07 -3.317659952e-07 -3.338191411e-07)
5(-2.868019309e-07 -3.26453857e-07 -3.525060497e-07 -3.658598005e-07 -3.64750497e-07)
5(-3.247375116e-07 -3.647327896e-07 -3.903358636e-07 -4.000434221e-07 -3.943676586e-07)
5(-3.65643031e-07 -4.047294705e-07 -4.293909355e-07 -4.340093068e-07 -4.219831609e-07)
5(-4.094833925e-07 -4.473331444e-07 -4.690117288e-07 -4.670974775e-07 -4.479303337e-07)
5(-4.570832805e-07 -4.908198645e-07 -5.089847813e-07 -4.988836556e-07 -4.721549727e-07)
5(-5.058497494e-07 -5.342663618e-07 -5.478477465e-07 -5.277482415e-07 -4.949429371e-07)
5(-5.56436823e-07 -5.790579928e-07 -5.855039428e-07 -5.553063962e-07 -5.170278957e-07)
5(-6.095646053e-07 -6.208131465e-07 -6.199240041e-07 -5.814127563e-07 -5.285331773e-07)
5(-6.603708089e-07 -6.628894372e-07 -6.502614656e-07 -5.997402302e-07 -5.195530433e-07)
5(-7.098530101e-07 -7.003040332e-07 -6.729155485e-07 -6.094360267e-07 -4.872143739e-07)
5(-7.534615351e-07 -7.348510438e-07 -6.956478607e-07 -6.064795195e-07 -4.445929033e-07)
5(-7.966255759e-07 -7.61986997e-07 -7.152521408e-07 -5.818529711e-07 -4.068554201e-07)
5(-8.343259117e-07 -7.679287888e-07 -7.234430742e-07 -5.324250701e-07 -3.822255074e-07)
5(-8.534062845e-07 -7.753567463e-07 -7.143613819e-07 -4.707770399e-07 -3.645303011e-07)
5(-8.569009707e-07 -7.776711439e-07 -6.749026103e-07 -4.165958258e-07 -3.430247203e-07)
5(-8.432625853e-07 -7.616314796e-07 -6.009032722e-07 -3.776409121e-07 -3.232071448e-07)
5(-8.159420183e-07 -7.215198418e-07 -5.050284003e-07 -3.510466663e-07 -3.124165209e-07)
5(-7.744881063e-07 -6.467503564e-07 -4.149367819e-07 -3.306776393e-07 -3.213811909e-07)
5(-7.044291684e-07 -5.310190573e-07 -3.440148144e-07 -3.193687729e-07 -3.538660842e-07)
5(-6.070284397e-07 -3.879618251e-07 -2.944257044e-07 -3.2468477e-07 -4.053365048e-07)
5(-4.746934899e-07 -2.643465181e-07 -2.637292186e-07 -3.551106179e-07 -4.809474366e-07)
5(-3.087430514e-07 -1.846975012e-07 -2.5840035e-07 -4.084145077e-07 -5.714965723e-07)
5(-1.303705997e-07 -1.364093261e-07 -2.781219383e-07 -4.813429502e-07 -6.872237556e-07)
5(4.267082797e-08 -1.203510832e-07 -3.185256426e-07 -5.853262674e-07 -8.310348227e-07)
5(1.740047975e-07 -1.242172467e-07 -3.801893259e-07 -7.141486339e-07 -9.933881653e-07)
5(2.610752973e-07 -1.338152993e-07 -4.644699731e-07 -8.588713196e-07 -1.180775303e-06)
5(3.051316077e-07 -1.689371528e-07 -5.662358945e-07 -1.022749921e-06 -1.389712455e-06)
5(3.092616047e-07 -2.138518997e-07 -6.710764257e-07 -1.208981086e-06 -1.624062028e-06)
5(4.060899135e-07 -2.081755944e-07 -5.682759225e-07 -1.441862712e-06 -1.946399951e-06)
5(5.070987971e-07 -1.825528412e-07 -4.112877499e-07 -1.576526951e-06 -2.150044179e-06)
)


60
(
5(-3.221856364e-11 -1.226183221e-09 1.265959488e-09 4.0545255e-10 5.091497737e-09)
5(-3.97857045e-10 -1.658598876e-09 2.596504897e-10 -7.277680183e-10 2.779572125e-09)
5(-1.237270838e-09 -2.526052599e-09 -1.998930336e-09 -3.222498957e-09 -2.240551813e-09)
5(-2.275695168e-09 -3.621981348e-09 -4.363158212e-09 -5.892809293e-09 -7.044301181e-09)
5(-3.443923544e-09 -4.960626682e-09 -6.584019196e-09 -8.495878778e-09 -1.123370898e-08)
5(-4.5477079e-09 -6.420895511e-09 -8.387407872e-09 -1.073776252e-08 -1.379630217e-08)
5(-5.60461668e-09 -8.02266682e-09 -9.998618994e-09 -1.283670282e-08 -1.5210025e-08)
5(-6.863765286e-09 -9.903327676e-09 -1.195131838e-08 -1.526218763e-08 -1.706437682e-08)
5(-8.519751153e-09 -1.212441647e-08 -1.452829794e-08 -1.82048537e-08 -2.002019362e-08)
5(-1.055274364e-08 -1.473721948e-08 -1.77357389e-08 -2.159458911e-08 -2.360164692e-08)
5(-1.296519044e-08 -1.772235076e-08 -2.131168673e-08 -2.524116377e-08 -2.712368412e-08)
5(-1.573329715e-08 -2.111684304e-08 -2.512852567e-08 -2.911437113e-08 -3.059964799e-08)
5(-1.882638175e-08 -2.503363226e-08 -2.931292389e-08 -3.339171558e-08 -3.425856115e-08)
5(-2.252195262e-08 -2.954414893e-08 -3.412116441e-08 -3.830298516e-08 -3.869564548e-08)
5(-2.691780072e-08 -3.483543937e-08 -3.97582803e-08 -4.416574239e-08 -4.425412467e-08)
5(-3.20670865e-08 -4.099398413e-08 -4.646271252e-08 -5.129059628e-08 -5.126815174e-08)
5(-3.808964662e-08 -4.829050646e-08 -5.437091773e-08 -5.983004015e-08 -5.983663995e-08)
5(-4.525417125e-08 -5.695941752e-08 -6.381369638e-08 -7.009102453e-08 -7.042798784e-08)
5(-5.379252458e-08 -6.70925021e-08 -7.504800123e-08 -8.248132206e-08 -8.352066146e-08)
5(-6.364460679e-08 -7.907020159e-08 -8.834290395e-08 -9.722231899e-08 -9.925156932e-08)
5(-7.571351855e-08 -9.324771045e-08 -1.040657172e-07 -1.144745408e-07 -1.178511128e-07)
5(-8.954825112e-08 -1.098062972e-07 -1.224903448e-07 -1.346792246e-07 -1.390757483e-07)
5(-1.05568656e-07 -1.288150697e-07 -1.438769032e-07 -1.578007367e-07 -1.63344344e-07)
5(-1.243237497e-07 -1.505217542e-07 -1.682228218e-07 -1.838716333e-07 -1.908146662e-07)
5(-1.458883631e-07 -1.753286484e-07 -1.956626212e-07 -2.134497998e-07 -2.207209245e-07)
5(-1.706783503e-07 -2.031545134e-07 -2.26049462e-07 -2.45413919e-07 -2.536578493e-07)
5(-1.979455711e-07 -2.342916434e-07 -2.594411826e-07 -2.798363032e-07 -2.881604655e-07)
5(-2.291636113e-07 -2.683875385e-07 -2.957914414e-07 -3.165275789e-07 -3.24767506e-07)
5(-2.638212469e-07 -3.051662287e-07 -3.353330631e-07 -3.554411115e-07 -3.633677736e-07)
5(-3.013545877e-07 -3.456857291e-07 -3.772022751e-07 -3.962476873e-07 -4.015527222e-07)
5(-3.424525009e-07 -3.888192515e-07 -4.204674764e-07 -4.380209567e-07 -4.408638136e-07)
5(-3.873068569e-07 -4.336612072e-07 -4.664239693e-07 -4.814320328e-07 -4.793747466e-07)
5(-4.356793967e-07 -4.820782802e-07 -5.144934826e-07 -5.24545768e-07 -5.17482628e-07)
5(-4.863600393e-07 -5.327607959e-07 -5.625839269e-07 -5.67121909e-07 -5.541819337e-07)
5(-5.383916191e-07 -5.843942246e-07 -6.119918652e-07 -6.099933681e-07 -5.898505703e-07)
5(-5.974305826e-07 -6.371080427e-07 -6.619342619e-07 -6.518611246e-07 -6.253017794e-07)
5(-6.567571763e-07 -6.910755131e-07 -7.099645692e-07 -6.919166827e-07 -6.577726708e-07)
5(-7.157425461e-07 -7.462352543e-07 -7.55688774e-07 -7.289624695e-07 -6.811367028e-07)
5(-7.764224415e-07 -7.980409568e-07 -7.993465132e-07 -7.610087198e-07 -6.891242153e-07)
5(-8.311765541e-07 -8.465336974e-07 -8.413074074e-07 -7.862726689e-07 -6.797621734e-07)
5(-8.907664052e-07 -8.942533446e-07 -8.767986167e-07 -8.002610566e-07 -6.605766599e-07)
5(-9.433103664e-07 -9.34252982e-07 -9.061396222e-07 -7.954085037e-07 -6.404897447e-07)
5(-9.848707757e-07 -9.628382569e-07 -9.288843857e-07 -7.706339297e-07 -6.220528414e-07)
5(-1.019455243e-06 -9.798992803e-07 -9.334550228e-07 -7.337972849e-07 -6.061476481e-07)
5(-1.040226226e-06 -9.910417526e-07 -9.135480598e-07 -6.926177619e-07 -5.845586352e-07)
5(-1.044153177e-06 -9.913220446e-07 -8.641767644e-07 -6.552666e-07 -5.549608128e-07)
5(-1.028518276e-06 -9.632714817e-07 -7.892506475e-07 -6.196871344e-07 -5.265563676e-07)
5(-9.949412762e-07 -8.981856045e-07 -7.071121892e-07 -5.79077709e-07 -5.069942213e-07)
5(-9.42275213e-07 -8.028741012e-07 -6.301237876e-07 -5.393380786e-07 -5.021757996e-07)
5(-8.632154215e-07 -6.839527556e-07 -5.591733412e-07 -5.081467087e-07 -5.178007104e-07)
5(-7.504957727e-07 -5.582124644e-07 -4.95080107e-07 -4.912356757e-07 -5.476285265e-07)
5(-6.029707604e-07 -4.514712902e-07 -4.410064141e-07 -4.927490122e-07 -5.939675023e-07)
5(-4.300162889e-07 -3.647843396e-07 -4.026487725e-07 -5.172713946e-07 -6.649193374e-07)
5(-2.58154054e-07 -2.880931813e-07 -3.853957215e-07 -5.675367542e-07 -7.666327566e-07)
5(-9.778628843e-08 -2.25939307e-07 -3.900872918e-07 -6.410181631e-07 -8.959420695e-07)
5(3.851803154e-08 -1.852393797e-07 -4.160737924e-07 -7.396144557e-07 -1.048140944e-06)
5(1.396343595e-07 -1.59971262e-07 -4.620558055e-07 -8.650491725e-07 -1.228582213e-06)
5(2.210720982e-07 -1.461072269e-07 -5.247663321e-07 -1.009234231e-06 -1.43448557e-06)
5(5.178643554e-07 1.14959377e-08 -3.562641696e-07 -1.169089042e-06 -1.732992877e-06)
5(7.76524242e-07 1.650276452e-07 -1.512295102e-07 -1.252029575e-06 -1.924220327e-06)
)


60
(
5(-4.182342705e-10 -1.861950197e-09 6.414987329e-10 -3.654275116e-10 4.29632664e-09)
5(-8.470955652e-10 -2.403848815e-09 -5.69531521e-10 -1.822840424e-09 1.527981236e-09)
5(-1.798061442e-09 -3.442324358e-09 -3.260359387e-09 -4.933084428e-09 -4.404766952e-09)
5(-3.01075983e-09 -4.780074216e-09 -6.092095899e-09 -8.214900682e-09 -1.005419915e-08)
5(-4.425119846e-09 -6.465864e-09 -8.776393857e-09 -1.14152179e-08 -1.495065602e-08)
5(-5.810263787e-09 -8.331739402e-09 -1.108397942e-08 -1.422771216e-08 -1.79947006e-08)
5(-7.181668856e-09 -1.035159365e-08 -1.321356953e-08 -1.680422205e-08 -1.968424271e-08)
5(-8.78433051e-09 -1.265212599e-08 -1.56454659e-08 -1.961854007e-08 -2.174028216e-08)
5(-1.083632729e-08 -1.533905618e-08 -1.868555569e-08 -2.288598664e-08 -2.475209097e-08)
5(-1.333501499e-08 -1.839910415e-08 -2.22780902e-08 -2.646627877e-08 -2.821569549e-08)
5(-1.615877224e-08 -2.18191933e-08 -2.619421338e-08 -3.019518462e-08 -3.156663551e-08)
5(-1.933834282e-08 -2.564132928e-08 -3.034998473e-08 -3.415079679e-08 -3.48657318e-08)
5(-2.29461342e-08 -2.992597949e-08 -3.480360521e-08 -3.848476628e-08 -3.831742385e-08)
5(-2.714827829e-08 -3.480441614e-08 -3.983395409e-08 -4.341482343e-08 -4.269066388e-08)
5(-3.202965507e-08 -4.044524486e-08 -4.575067791e-08 -4.936092958e-08 -4.839509623e-08)
5(-3.76661968e-08 -4.707231987e-08 -5.275200966e-08 -5.671264291e-08 -5.560288985e-08)
5(-4.429379944e-08 -5.485249819e-08 -6.107243454e-08 -6.561233943e-08 -6.482308866e-08)
5(-5.213136653e-08 -6.400124917e-08 -7.105519224e-08 -7.651035441e-08 -7.617072135e-08)
5(-6.120212049e-08 -7.479928053e-08 -8.297985572e-08 -8.969238232e-08 -9.022007998e-08)
5(-7.202874726e-08 -8.762603945e-08 -9.729558633e-08 -1.054819235e-07 -1.073053365e-07)
5(-8.50658618e-08 -1.027976285e-07 -1.141834843e-07 -1.241569332e-07 -1.274438215e-07)
5(-9.997650868e-08 -1.203881982e-07 -1.339844907e-07 -1.460021825e-07 -1.50614884e-07)
5(-1.170063672e-07 -1.408129073e-07 -1.569866959e-07 -1.712370931e-07 -1.772747573e-07)
5(-1.375047684e-07 -1.644649399e-07 -1.834245542e-07 -1.997320758e-07 -2.079765849e-07)
5(-1.608820207e-07 -1.913953728e-07 -2.134161367e-07 -2.3167e-07 -2.411074617e-07)
5(-1.871171794e-07 -2.214219391e-07 -2.467434781e-07 -2.670065763e-07 -2.767906566e-07)
5(-2.169520988e-07 -2.549050381e-07 -2.833054091e-07 -3.051984214e-07 -3.161880888e-07)
5(-2.507033124e-07 -2.921522085e-07 -3.231853477e-07 -3.45874225e-07 -3.565354479e-07)
5(-2.881146821e-07 -3.325748596e-07 -3.664415698e-07 -3.894105016e-07 -3.998547066e-07)
5(-3.285336586e-07 -3.761353715e-07 -4.123534568e-07 -4.350913584e-07 -4.44845886e-07)
5(-3.731555685e-07 -4.230024928e-07 -4.604446638e-07 -4.823729277e-07 -4.900474602e-07)
5(-4.215920417e-07 -4.727532141e-07 -5.117677344e-07 -5.315894075e-07 -5.361484658e-07)
5(-4.725546918e-07 -5.255645553e-07 -5.65212067e-07 -5.812743352e-07 -5.812587182e-07)
5(-5.275410688e-07 -5.809145573e-07 -6.194966962e-07 -6.316139678e-07 -6.261482955e-07)
5(-5.854668921e-07 -6.383085262e-07 -6.749934783e-07 -6.831548536e-07 -6.704521191e-07)
5(-6.453225862e-07 -6.96587499e-07 -7.311758731e-07 -7.335588396e-07 -7.150523549e-07)
5(-7.092709147e-07 -7.563302251e-07 -7.879698374e-07 -7.82359537e-07 -7.567326856e-07)
5(-7.733112367e-07 -8.170663346e-07 -8.442121714e-07 -8.294591332e-07 -7.92304775e-07)
5(-8.363911142e-07 -8.763323768e-07 -8.988003767e-07 -8.72805714e-07 -8.138763082e-07)
5(-9.014116204e-07 -9.359478207e-07 -9.490491689e-07 -9.105296726e-07 -8.218174035e-07)
5(-9.615691351e-07 -9.921467473e-07 -9.945359048e-07 -9.386675933e-07 -8.221996999e-07)
5(-1.01801403e-06 -1.040276544e-06 -1.03634726e-06 -9.512535201e-07 -8.154362687e-07)
5(-1.069360715e-06 -1.08015242e-06 -1.070704073e-06 -9.454633309e-07 -8.098989675e-07)
5(-1.1115169e-06 -1.111972694e-06 -1.089997433e-06 -9.268409375e-07 -8.037408735e-07)
5(-1.141236959e-06 -1.133544765e-06 -1.084641845e-06 -9.020374373e-07 -7.887757737e-07)
5(-1.153841825e-06 -1.139927576e-06 -1.054124063e-06 -8.740037365e-07 -7.603914488e-07)
5(-1.153128472e-06 -1.129117611e-06 -9.998526892e-07 -8.4323971e-07 -7.255622618e-07)
5(-1.132976403e-06 -1.090080538e-06 -9.349713715e-07 -8.040035442e-07 -6.95303599e-07)
5(-1.101619557e-06 -1.013821414e-06 -8.696178768e-07 -7.553491561e-07 -6.708687851e-07)
5(-1.047335615e-06 -9.122039469e-07 -7.947538925e-07 -7.028134655e-07 -6.575008888e-07)
5(-9.564106077e-07 -8.051921923e-07 -7.14801701e-07 -6.590018503e-07 -6.605009527e-07)
5(-8.449550596e-07 -7.008894989e-07 -6.369357586e-07 -6.267793477e-07 -6.763760524e-07)
5(-7.058228429e-07 -5.961463127e-07 -5.650964613e-07 -6.094194109e-07 -7.103521472e-07)
5(-5.479125131e-07 -4.907177667e-07 -5.073342458e-07 -6.179513663e-07 -7.751438098e-07)
5(-3.82389453e-07 -3.932635132e-07 -4.683218978e-07 -6.505220284e-07 -8.712460752e-07)
5(-2.221682295e-07 -3.069072216e-07 -4.507097969e-07 -7.101196358e-07 -9.899419521e-07)
5(-7.03605016e-08 -2.355202044e-07 -4.544723428e-07 -7.929202084e-07 -1.134328222e-06)
5(8.841991332e-08 -1.724176229e-07 -4.764421877e-07 -8.968505083e-07 -1.315461316e-06)
5(5.196544195e-07 1.793479558e-07 -3.006143441e-07 -9.535509078e-07 -1.574290878e-06)
5(8.70792449e-07 4.980458132e-07 -1.077537736e-07 -9.490429905e-07 -1.731063663e-06)
)


60
(
5(-8.102325479e-10 -2.531927888e-09 -3.659391459e-11 -1.178147116e-09 3.214996877e-09)
5(-1.307768198e-09 -3.170139802e-09 -1.44158308e-09 -2.941406066e-09 1.146425447e-10)
5(-2.358949014e-09 -4.342360219e-09 -4.515746045e-09 -6.604761311e-09 -6.462882868e-09)
5(-3.7071098e-09 -5.890152768e-09 -7.786940542e-09 -1.039911518e-08 -1.279710306e-08)
5(-5.36377211e-09 -7.909654194e-09 -1.089724809e-08 -1.405746855e-08 -1.817803177e-08)
5(-7.029078088e-09 -1.012625341e-08 -1.360171372e-08 -1.725767155e-08 -2.143912223e-08)
5(-8.671488494e-09 -1.248518395e-08 -1.611867875e-08 -2.017441888e-08 -2.325967626e-08)
5(-1.059281785e-08 -1.512975062e-08 -1.887679234e-08 -2.321760735e-08 -2.533927178e-08)
5(-1.295658367e-08 -1.81058769e-08 -2.218783603e-08 -2.656382838e-08 -2.819914162e-08)
5(-1.577954524e-08 -2.148029877e-08 -2.602566897e-08 -3.015627225e-08 -3.143708569e-08)
5(-1.894484523e-08 -2.517520693e-08 -3.010065496e-08 -3.38490081e-08 -3.451225244e-08)
5(-2.242059932e-08 -2.918757524e-08 -3.43059628e-08 -3.764940365e-08 -3.745079607e-08)
5(-2.629762065e-08 -3.367150829e-08 -3.875041046e-08 -4.178805633e-08 -4.073560646e-08)
5(-3.075076393e-08 -3.869632799e-08 -4.375087244e-08 -4.661983235e-08 -4.493388956e-08)
5(-3.588574876e-08 -4.442721399e-08 -4.961325619e-08 -5.250891746e-08 -5.049968671e-08)
5(-4.183219304e-08 -5.109401258e-08 -5.666350479e-08 -5.975229663e-08 -5.785353937e-08)
5(-4.864997828e-08 -5.89880613e-08 -6.513359681e-08 -6.862779967e-08 -6.719783955e-08)
5(-5.665416401e-08 -6.832845623e-08 -7.520098552e-08 -7.979331362e-08 -7.89591503e-08)
5(-6.615214279e-08 -7.931181674e-08 -8.741692011e-08 -9.341713248e-08 -9.364459193e-08)
5(-7.72460004e-08 -9.232791604e-08 -1.022013831e-07 -1.096955103e-07 -1.114824349e-07)
5(-9.054560514e-08 -1.078040864e-07 -1.196569105e-07 -1.290801439e-07 -1.325439429e-07)
5(-1.057638489e-07 -1.259741888e-07 -1.400401807e-07 -1.516973028e-07 -1.570322979e-07)
5(-1.236995442e-07 -1.472043617e-07 -1.639210298e-07 -1.778080344e-07 -1.856383764e-07)
5(-1.450034326e-07 -1.71722521e-07 -1.916010159e-07 -2.077740174e-07 -2.172181487e-07)
5(-1.687170907e-07 -1.992922929e-07 -2.229125348e-07 -2.415132125e-07 -2.521676424e-07)
5(-1.961727435e-07 -2.303663098e-07 -2.576724774e-07 -2.786656267e-07 -2.91359726e-07)
5(-2.275102903e-07 -2.652677555e-07 -2.958559306e-07 -3.190363659e-07 -3.328250298e-07)
5(-2.626740268e-07 -3.037129911e-07 -3.377388953e-07 -3.626339359e-07 -3.76700713e-07)
5(-3.003328335e-07 -3.460193632e-07 -3.832565217e-07 -4.089908292e-07 -4.231357181e-07)
5(-3.424399406e-07 -3.922119559e-07 -4.318797584e-07 -4.5780423e-07 -4.715969816e-07)
5(-3.899045089e-07 -4.411609561e-07 -4.831605933e-07 -5.092541177e-07 -5.218054308e-07)
5(-4.390315646e-07 -4.93191314e-07 -5.375190832e-07 -5.626233783e-07 -5.730104414e-07)
5(-4.916608881e-07 -5.484513514e-07 -5.94855796e-07 -6.170853743e-07 -6.243559026e-07)
5(-5.482728393e-07 -6.065900276e-07 -6.532080661e-07 -6.726490834e-07 -6.754121308e-07)
5(-6.084189281e-07 -6.6750295e-07 -7.131766334e-07 -7.290617394e-07 -7.266601394e-07)
5(-6.718032252e-07 -7.291885148e-07 -7.75149e-07 -7.854786415e-07 -7.785220187e-07)
5(-7.355962289e-07 -7.925411293e-07 -8.372427289e-07 -8.423045345e-07 -8.293871087e-07)
5(-8.015770071e-07 -8.587385603e-07 -8.991153171e-07 -8.979517306e-07 -8.743810875e-07)
5(-8.689638067e-07 -9.236035768e-07 -9.591685278e-07 -9.503117448e-07 -9.089895033e-07)
5(-9.34570814e-07 -9.863751787e-07 -1.017339471e-06 -9.986780529e-07 -9.318097568e-07)
5(-9.977343422e-07 -1.046294203e-06 -1.073084221e-06 -1.038404719e-06 -9.434256195e-07)
5(-1.056084316e-06 -1.100961678e-06 -1.123514411e-06 -1.064940603e-06 -9.541941895e-07)
5(-1.107122925e-06 -1.150562476e-06 -1.167396985e-06 -1.076012719e-06 -9.650012188e-07)
5(-1.150584721e-06 -1.190757173e-06 -1.199735576e-06 -1.074751041e-06 -9.675222741e-07)
5(-1.188351392e-06 -1.22099636e-06 -1.210921028e-06 -1.066990501e-06 -9.600339965e-07)
5(-1.209267069e-06 -1.241114231e-06 -1.19702078e-06 -1.052740092e-06 -9.41997197e-07)
5(-1.216322489e-06 -1.241829328e-06 -1.163282787e-06 -1.030947074e-06 -9.156086652e-07)
5(-1.213173712e-06 -1.216844565e-06 -1.117052601e-06 -1.001497263e-06 -8.83971139e-07)
5(-1.193335719e-06 -1.163423431e-06 -1.063547021e-06 -9.563629253e-07 -8.530343022e-07)
5(-1.158086941e-06 -1.090103605e-06 -1.001072075e-06 -8.998571702e-07 -8.241315418e-07)
5(-1.100262864e-06 -1.009310159e-06 -9.267726358e-07 -8.433379785e-07 -7.998586936e-07)
5(-1.01919168e-06 -9.227006406e-07 -8.443769687e-07 -7.907483947e-07 -7.869046691e-07)
5(-9.153784045e-07 -8.28625423e-07 -7.608664105e-07 -7.48729167e-07 -7.94346901e-07)
5(-7.961171249e-07 -7.260695213e-07 -6.792904437e-07 -7.21263826e-07 -8.258713077e-07)
5(-6.569046819e-07 -6.156820116e-07 -6.051981677e-07 -7.136133471e-07 -8.833256203e-07)
5(-5.023155698e-07 -4.994716338e-07 -5.495119294e-07 -7.31433267e-07 -9.684110767e-07)
5(-3.363850003e-07 -3.855271803e-07 -5.106670013e-07 -7.787551431e-07 -1.082448119e-06)
5(-1.203734409e-07 -2.538190281e-07 -4.84738091e-07 -8.550071845e-07 -1.233364585e-06)
5(4.569827808e-07 1.851095761e-07 -1.478902816e-07 -8.397060231e-07 -1.457882502e-06)
5(9.079215346e-07 5.472984037e-07 1.808423708e-07 -7.761918652e-07 -1.591713767e-06)
)


60
(
5(-1.228232821e-09 -3.210452012e-09 -7.682607849e-10 -2.000138608e-09 2.045192471e-09)
5(-1.761209581e-09 -3.935344319e-09 -2.37213321e-09 -4.035332001e-09 -1.318387412e-09)
5(-2.911811232e-09 -5.243322046e-09 -5.806468622e-09 -8.184893844e-09 -8.536722244e-09)
5(-4.443140993e-09 -6.990967467e-09 -9.421735125e-09 -1.243317338e-08 -1.535747706e-08)
5(-6.307326519e-09 -9.274712265e-09 -1.287018372e-08 -1.64727669e-08 -2.087660047e-08)
5(-8.22655596e-09 -1.179045212e-08 -1.590383701e-08 -1.994967443e-08 -2.428158535e-08)
5(-1.010847073e-08 -1.445784905e-08 -1.871481514e-08 -2.303407947e-08 -2.611695451e-08)
5(-1.227937887e-08 -1.739332056e-08 -2.172267827e-08 -2.61845195e-08 -2.809526204e-08)
5(-1.492196328e-08 -2.063039166e-08 -2.522335785e-08 -2.95552045e-08 -3.082349397e-08)
5(-1.798439804e-08 -2.416735722e-08 -2.913450128e-08 -3.306318526e-08 -3.376224434e-08)
5(-2.136068855e-08 -2.798352043e-08 -3.319871401e-08 -3.657872408e-08 -3.650605697e-08)
5(-2.505033186e-08 -3.210013781e-08 -3.734623301e-08 -4.016245105e-08 -3.913455786e-08)
5(-2.918472746e-08 -3.658876928e-08 -4.16996396e-08 -4.408215027e-08 -4.216875026e-08)
5(-3.37572164e-08 -4.162096292e-08 -4.660230027e-08 -4.869325783e-08 -4.617983549e-08)
5(-3.889948134e-08 -4.732663481e-08 -5.236037386e-08 -5.435369361e-08 -5.167690619e-08)
5(-4.488091529e-08 -5.393971201e-08 -5.924831403e-08 -6.138921214e-08 -5.892219726e-08)
5(-5.187768046e-08 -6.170531661e-08 -6.751526218e-08 -7.026701411e-08 -6.823942762e-08)
5(-5.999750323e-08 -7.091059122e-08 -7.758543171e-08 -8.136139022e-08 -8.036338169e-08)
5(-6.939040056e-08 -8.18920197e-08 -8.982521663e-08 -9.493862386e-08 -9.529470213e-08)
5(-8.070098588e-08 -9.495312739e-08 -1.045439099e-07 -1.114023966e-07 -1.134259829e-07)
5(-9.380559458e-08 -1.104230201e-07 -1.221455466e-07 -1.310098575e-07 -1.349706896e-07)
5(-1.092527945e-07 -1.286357712e-07 -1.429611221e-07 -1.54039581e-07 -1.60169529e-07)
5(-1.275878955e-07 -1.499193189e-07 -1.672812548e-07 -1.808531883e-07 -1.894340079e-07)
5(-1.487364846e-07 -1.744772238e-07 -1.952721028e-07 -2.115500091e-07 -2.227050919e-07)
5(-1.729485816e-07 -2.02591978e-07 -2.270099113e-07 -2.459898847e-07 -2.588366918e-07)
5(-2.007501451e-07 -2.342624779e-07 -2.624299385e-07 -2.841599563e-07 -2.98474741e-07)
5(-2.32274318e-07 -2.69693705e-07 -3.018209749e-07 -3.258188124e-07 -3.420067839e-07)
5(-2.678393352e-07 -3.090033634e-07 -3.450371125e-07 -3.708955195e-07 -3.885544507e-07)
5(-3.068547976e-07 -3.521383189e-07 -3.916723709e-07 -4.193563686e-07 -4.376887102e-07)
5(-3.499164668e-07 -3.98797255e-07 -4.417737648e-07 -4.706147768e-07 -4.89092024e-07)
5(-3.968571843e-07 -4.488808925e-07 -4.953866385e-07 -5.242997912e-07 -5.425468558e-07)
5(-4.469446427e-07 -5.030269283e-07 -5.518046891e-07 -5.803975816e-07 -5.97182078e-07)
5(-5.012360425e-07 -5.598253488e-07 -6.104661771e-07 -6.385525455e-07 -6.533010325e-07)
5(-5.588254437e-07 -6.189199334e-07 -6.713283451e-07 -6.980557578e-07 -7.098688017e-07)