/*--------------------------------*- C++ -*----------------------------------*\
| =========                 |                                                 |
| \\      /  F ield         | OpenFOAM: The Open Source CFD Toolbox           |
|  \\    /   O peration     | Version:  2.3.1                                 |
|   \\  /    A nd           | Web:      www.OpenFOAM.org                      |
|    \\/     M anipulation  |                                                 |
\*---------------------------------------------------------------------------*/
FoamFile
{
    version     2.0;
    format      ascii;
    class       dictionary;
    location    "constant";
    object      DPSI26;
}
// * * * * * * * * * * * * * * * * * * * * * * * * * * * * * * * * * * * * * //

DPSI26_table
60
(

60
(
5(-1.535798796e-06 -2.73610835e-06 -1.675609094e-06 -2.324965179e-06 -1.792722452e-06)
5(-2.935169285e-06 -6.097240216e-06 -3.256817124e-06 -3.918909034e-06 -3.362890475e-06)
5(-7.525382841e-06 -5.358072695e-06 -4.489413747e-06 -5.632461098e-06 -8.525876985e-06)
5(-1.108210461e-05 -5.418321392e-06 -4.301702427e-06 -7.607550598e-06 -3.291208292e-06)
5(-1.007313187e-05 -6.377748001e-06 -5.285907384e-06 -6.900588974e-06 -6.109017062e-06)
5(-7.142001997e-06 -7.451802724e-06 -8.752391604e-06 -7.738160773e-06 -8.602363399e-06)
5(-6.64284368e-06 -8.361010453e-06 -9.124027345e-06 -9.440526834e-06 -7.540992373e-06)
5(-8.872203095e-06 -8.913674768e-06 -8.422500123e-06 -9.542434348e-06 -1.104480421e-05)
5(-8.237609789e-06 -9.230112364e-06 -9.316411761e-06 -9.868990439e-06 -1.027292869e-05)
5(-8.987896328e-06 -9.517735746e-06 -9.015591728e-06 -1.068507793e-05 -1.04988588e-05)
5(-9.289931912e-06 -1.00540554e-05 -9.620108585e-06 -1.118786568e-05 -1.10816112e-05)
5(-9.806913446e-06 -1.055973554e-05 -1.076844674e-05 -1.175022864e-05 -1.214730685e-05)
5(-1.069889233e-05 -1.098293817e-05 -1.147785703e-05 -1.197240134e-05 -1.247584914e-05)
5(-1.059804546e-05 -1.136499071e-05 -1.187568387e-05 -1.296572554e-05 -1.328702562e-05)
5(-1.152387823e-05 -1.202779667e-05 -1.258359982e-05 -1.321088302e-05 -1.384882105e-05)
5(-1.180297012e-05 -1.24088064e-05 -1.291368522e-05 -1.365707146e-05 -1.43060553e-05)
5(-1.223732083e-05 -1.290799726e-05 -1.340135006e-05 -1.412518327e-05 -1.457848234e-05)
5(-1.270072801e-05 -1.337935337e-05 -1.387056659e-05 -1.441057674e-05 -1.496620914e-05)
5(-1.321344681e-05 -1.378387353e-05 -1.43196473e-05 -1.491900937e-05 -1.541273371e-05)
5(-1.344074988e-05 -1.393826201e-05 -1.456695209e-05 -1.499198365e-05 -1.591165831e-05)
5(-1.394042603e-05 -1.456280106e-05 -1.523019004e-05 -1.54979349e-05 -1.633858946e-05)
5(-1.432953902e-05 -1.500939609e-05 -1.553439195e-05 -1.663412766e-05 -1.719139805e-05)
5(-1.451322959e-05 -1.529740358e-05 -1.598591581e-05 -1.653608202e-05 -1.712475227e-05)
5(-1.503165384e-05 -1.541302209e-05 -1.633382965e-05 -1.686304273e-05 -1.752629161e-05)
5(-1.529120983e-05 -1.573363434e-05 -1.654417238e-05 -1.694473018e-05 -1.763448411e-05)
5(-1.564410933e-05 -1.610328111e-05 -1.65794132e-05 -1.691216057e-05 -1.792033266e-05)
5(-1.591407241e-05 -1.650372628e-05 -1.713365334e-05 -1.7037628e-05 -1.810931973e-05)
5(-1.63087191e-05 -1.676998936e-05 -1.718849696e-05 -1.718430653e-05 -1.831983665e-05)
5(-1.633436843e-05 -1.687979158e-05 -1.757159215e-05 -1.748804259e-05 -1.843816892e-05)
5(-1.654641461e-05 -1.687669952e-05 -1.782566689e-05 -1.796472007e-05 -1.871037796e-05)
5(-1.65732497e-05 -1.687504558e-05 -1.772868855e-05 -1.77967484e-05 -1.875176277e-05)
5(-1.670507557e-05 -1.706212968e-05 -1.806422918e-05 -1.835330117e-05 -1.982482132e-05)
5(-1.685888816e-05 -1.703131177e-05 -1.799930657e-05 -1.839133307e-05 -1.895567749e-05)
5(-1.683918363e-05 -1.688282869e-05 -1.773221179e-05 -1.855175675e-05 -2.008518936e-05)
5(-1.675606132e-05 -1.690674122e-05 -1.782994805e-05 -1.856125223e-05 -2.007031818e-05)
5(-1.669517301e-05 -1.647944052e-05 -1.704962724e-05 -1.841787369e-05 -2.006777492e-05)
5(-1.654607389e-05 -1.682609438e-05 -1.807700089e-05 -1.888406048e-05 -2.00004572e-05)
5(-1.639317316e-05 -1.632652666e-05 -1.792843616e-05 -1.8523063e-05 -2.262128326e-05)
5(-1.604464012e-05 -1.614654683e-05 -1.742801582e-05 -1.872307509e-05 -2.013900035e-05)
5(-1.539299362e-05 -1.57504958e-05 -1.665083322e-05 -1.830658945e-05 -2.880134896e-05)
5(-1.504775986e-05 -1.572868337e-05 -1.708766786e-05 -1.856408235e-05 -2.777546871e-05)
5(-1.479287392e-05 -1.544136937e-05 -1.71064453e-05 -2.142818842e-05 -2.689485485e-05)
5(-1.43301018e-05 -1.546776216e-05 -1.738011027e-05 -2.804530203e-05 -2.561063423e-05)
5(-1.369633218e-05 -1.461526957e-05 -1.490699914e-05 -2.701874897e-05 -2.394487103e-05)
5(-1.302030858e-05 -1.441719934e-05 -1.551775797e-05 -2.574741164e-05 -2.303414788e-05)
5(-1.274357544e-05 -1.374453923e-05 -1.65443476e-05 -2.432868798e-05 -2.182584766e-05)
5(-1.231849448e-05 -1.412886399e-05 -2.435061671e-05 -2.289573229e-05 -2.048949909e-05)
5(-1.22673499e-05 -1.630785698e-05 -2.621744873e-05 -2.156721436e-05 -1.911508815e-05)
5(-1.149858744e-05 -1.521601552e-05 -2.510483281e-05 -2.018934492e-05 -1.777035191e-05)
5(-1.110253295e-05 -2.471037671e-05 -2.361728004e-05 -1.882365431e-05 -1.652071725e-05)
5(-1.164603059e-05 -2.340106139e-05 -2.206669904e-05 -1.735549929e-05 -1.531171915e-05)
5(-1.904352178e-05 -2.167784232e-05 -2.045836177e-05 -1.591154738e-05 -1.417747773e-05)
5(-2.073032808e-05 -1.985513996e-05 -1.880891664e-05 -1.444803175e-05 -1.306170566e-05)
5(-1.918952447e-05 -1.796600096e-05 -1.700454899e-05 -1.30300613e-05 -1.194804768e-05)
5(-1.69602542e-05 -1.596253111e-05 -1.508522611e-05 -1.146093405e-05 -1.085981515e-05)
5(-1.331101302e-05 -1.365630872e-05 -1.296274995e-05 -9.978159092e-06 -9.781204553e-06)
5(-7.879618191e-06 -1.084812831e-05 -1.052983756e-05 -8.24226887e-06 -8.807429665e-06)
5(-2.110118151e-06 -6.332481781e-06 -7.354670994e-06 -6.172618192e-06 -7.953048979e-06)
5(4.345652346e-06 2.899116937e-07 -1.462115534e-06 -1.023994278e-05 -6.140947528e-06)
5(2.292083925e-05 2.08071952e-05 2.761117713e-05 2.714254596e-05 1.546524611e-05)
)


60
(
5(-1.293625635e-06 -2.116204417e-06 -1.423252347e-06 -1.901380427e-06 -1.534497813e-06)
5(-2.273830623e-06 -4.25506131e-06 -2.534365666e-06 -2.989534466e-06 -2.673512385e-06)
5(-5.24645778e-06 -3.841358842e-06 -3.42752493e-06 -4.130185726e-06 -6.26469592e-06)
5(-7.75228599e-06 -3.928578802e-06 -3.410448497e-06 -5.391311112e-06 -2.988145081e-06)
5(-6.84136529e-06 -4.519375882e-06 -4.002613754e-06 -4.963810839e-06 -4.607376062e-06)
5(-4.96530219e-06 -5.168666944e-06 -6.026642611e-06 -5.479136475e-06 -6.065616026e-06)
5(-4.702648204e-06 -5.711264149e-06 -6.255412267e-06 -6.488449201e-06 -5.460420874e-06)
5(-6.005573665e-06 -6.05850985e-06 -5.878203242e-06 -6.568485232e-06 -7.54083936e-06)
5(-5.693496135e-06 -6.281291877e-06 -6.434453303e-06 -6.79905913e-06 -7.119389927e-06)
5(-6.140572714e-06 -6.476814737e-06 -6.307413839e-06 -7.289901496e-06 -7.297505322e-06)
5(-6.351018521e-06 -6.804248713e-06 -6.686461651e-06 -7.602402634e-06 -7.652072095e-06)
5(-6.659696728e-06 -7.116290158e-06 -7.346852732e-06 -7.945342352e-06 -8.264189434e-06)
5(-7.183254571e-06 -7.382632053e-06 -7.768827099e-06 -8.103228748e-06 -8.477247194e-06)
5(-7.164098936e-06 -7.62737646e-06 -8.020836057e-06 -8.669989362e-06 -8.950356616e-06)
5(-7.701445977e-06 -8.022519276e-06 -8.444085428e-06 -8.834662679e-06 -9.284458198e-06)
5(-7.877165391e-06 -8.257147145e-06 -8.648671507e-06 -9.105190355e-06 -9.557638648e-06)
5(-8.149469257e-06 -8.551260448e-06 -8.9370753e-06 -9.381044648e-06 -9.728788117e-06)
5(-8.42763673e-06 -8.827980825e-06 -9.210520119e-06 -9.559964454e-06 -9.953746058e-06)
5(-8.726757052e-06 -9.07269238e-06 -9.476197053e-06 -9.849184375e-06 -1.021010448e-05)
5(-8.874064699e-06 -9.176593087e-06 -9.627115423e-06 -9.904325953e-06 -1.048345123e-05)
5(-9.156200674e-06 -9.526599898e-06 -9.993927356e-06 -1.018786949e-05 -1.072775829e-05)
5(-9.38905468e-06 -9.777155669e-06 -1.016659164e-05 -1.07883447e-05 -1.11818938e-05)
5(-9.502389908e-06 -9.942421679e-06 -1.041611285e-05 -1.074466316e-05 -1.114360966e-05)
5(-9.781489516e-06 -1.000880872e-05 -1.059974981e-05 -1.092363749e-05 -1.135445737e-05)
5(-9.924588472e-06 -1.017965377e-05 -1.071341811e-05 -1.095863161e-05 -1.140282306e-05)
5(-1.010960874e-05 -1.036765192e-05 -1.071111144e-05 -1.092765752e-05 -1.153517476e-05)
5(-1.024478704e-05 -1.056811368e-05 -1.098219254e-05 -1.097077878e-05 -1.161867724e-05)
5(-1.04349524e-05 -1.068887852e-05 -1.099567015e-05 -1.102876458e-05 -1.170789418e-05)
5(-1.043714322e-05 -1.071480113e-05 -1.116113041e-05 -1.115626353e-05 -1.173430611e-05)
5(-1.051579185e-05 -1.068223946e-05 -1.125911385e-05 -1.136884083e-05 -1.184204355e-05)
5(-1.049894958e-05 -1.06492621e-05 -1.116716571e-05 -1.123953139e-05 -1.182151502e-05)
5(-1.052537088e-05 -1.069754559e-05 -1.129352797e-05 -1.14742731e-05 -1.232923248e-05)
5(-1.055492002e-05 -1.062158911e-05 -1.12011551e-05 -1.144006806e-05 -1.182956763e-05)
5(-1.048368285e-05 -1.048869113e-05 -1.099995841e-05 -1.146185019e-05 -1.235423413e-05)
5(-1.037342981e-05 -1.042702324e-05 -1.097007798e-05 -1.139800776e-05 -1.22829548e-05)
5(-1.02436694e-05 -1.012735289e-05 -1.049419469e-05 -1.124406347e-05 -1.221804634e-05)
5(-1.00840546e-05 -1.021590349e-05 -1.093088361e-05 -1.140766124e-05 -1.210721308e-05)
5(-9.906763034e-06 -9.858752206e-06 -1.075678419e-05 -1.113466766e-05 -1.337229084e-05)
5(-9.614377753e-06 -9.66769005e-06 -1.039562439e-05 -1.11349593e-05 -1.201674174e-05)
5(-9.163820376e-06 -9.339690774e-06 -9.883486716e-06 -1.082174929e-05 -1.639069459e-05)
5(-8.855908551e-06 -9.219575952e-06 -1.000682205e-05 -1.084660665e-05 -1.580689248e-05)
5(-8.601215442e-06 -8.931448924e-06 -9.884687929e-06 -1.220713853e-05 -1.530628141e-05)
5(-8.217869312e-06 -8.808649999e-06 -9.892032326e-06 -1.550183351e-05 -1.461485211e-05)
5(-7.746031027e-06 -8.252479592e-06 -8.496390378e-06 -1.488774161e-05 -1.372200808e-05)
5(-7.250414493e-06 -7.990384909e-06 -8.670496534e-06 -1.417171235e-05 -1.322599931e-05)
5(-6.956646413e-06 -7.495253768e-06 -9.068421512e-06 -1.338770498e-05 -1.257721626e-05)
5(-6.577072514e-06 -7.53842539e-06 -1.292901423e-05 -1.260124581e-05 -1.187400161e-05)
5(-6.380743886e-06 -8.495935617e-06 -1.378954041e-05 -1.187486297e-05 -1.115805024e-05)
5(-5.806372671e-06 -7.793890538e-06 -1.314706202e-05 -1.112928914e-05 -1.044508447e-05)
5(-5.433632567e-06 -1.249033026e-05 -1.233532175e-05 -1.038776359e-05 -9.770089167e-06)
5(-5.527961795e-06 -1.173561423e-05 -1.15058862e-05 -9.600082103e-06 -9.097214289e-06)
5(-9.107797699e-06 -1.079652546e-05 -1.066262679e-05 -8.814490061e-06 -8.429027988e-06)
5(-9.826308126e-06 -9.820955083e-06 -9.796404973e-06 -8.003881416e-06 -7.763103108e-06)
5(-8.957082251e-06 -8.849512991e-06 -8.850955815e-06 -7.197668326e-06 -7.028112562e-06)
5(-7.793652686e-06 -7.801814502e-06 -7.835335386e-06 -6.287904797e-06 -6.302069958e-06)
5(-5.933759234e-06 -6.603573639e-06 -6.698679968e-06 -5.393306301e-06 -5.537985795e-06)
5(-3.178349598e-06 -5.137216392e-06 -5.355117907e-06 -4.348351522e-06 -4.805905664e-06)
5(-1.82919927e-07 -2.734702893e-06 -3.594547621e-06 -3.087402399e-06 -4.091519789e-06)
5(3.520130582e-06 9.85124134e-07 -2.68281064e-07 -4.784983385e-06 -2.851455824e-06)
5(1.463043849e-05 1.331791459e-05 1.632063067e-05 1.68096211e-05 1.024213846e-05)
)


60
(
5(-9.127105354e-07 -1.205221854e-06 -1.015794016e-06 -1.238287812e-06 -1.111733338e-06)
5(-1.286522098e-06 -1.470781341e-06 -1.425843843e-06 -1.576742519e-06 -1.568719996e-06)
5(-1.57335334e-06 -1.668216288e-06 -1.762233098e-06 -1.848457916e-06 -1.960909881e-06)
5(-1.759839172e-06 -1.824019721e-06 -1.966139078e-06 -2.043010918e-06 -2.200830536e-06)
5(-1.884270384e-06 -1.957343713e-06 -2.078980993e-06 -2.181760016e-06 -2.313747569e-06)
5(-1.965619972e-06 -2.082495343e-06 -2.168888339e-06 -2.317996765e-06 -2.401604455e-06)
5(-2.067967586e-06 -2.200881415e-06 -2.302689224e-06 -2.443476467e-06 -2.531470767e-06)
5(-2.195104897e-06 -2.324515518e-06 -2.440573269e-06 -2.577822597e-06 -2.691225018e-06)
5(-2.324684651e-06 -2.451726477e-06 -2.587530069e-06 -2.72420898e-06 -2.852107889e-06)
5(-2.429918569e-06 -2.565134988e-06 -2.715461969e-06 -2.849047662e-06 -2.999938121e-06)
5(-2.546679869e-06 -2.667052988e-06 -2.833010588e-06 -2.963518629e-06 -3.115066142e-06)
5(-2.635606448e-06 -2.771352541e-06 -2.93270369e-06 -3.072178043e-06 -3.216736645e-06)
5(-2.729621176e-06 -2.866651512e-06 -3.03306406e-06 -3.179720195e-06 -3.326082483e-06)
5(-2.825513255e-06 -2.961088302e-06 -3.133684893e-06 -3.271820443e-06 -3.422387827e-06)
5(-2.919184566e-06 -3.052675398e-06 -3.232633202e-06 -3.365069036e-06 -3.519743232e-06)
5(-3.000294491e-06 -3.133987205e-06 -3.31815342e-06 -3.450113828e-06 -3.60549616e-06)
5(-3.081670528e-06 -3.210308228e-06 -3.393423586e-06 -3.525110967e-06 -3.683224562e-06)
5(-3.159578526e-06 -3.277353579e-06 -3.461612679e-06 -3.593112469e-06 -3.75146699e-06)
5(-3.223860135e-06 -3.346589139e-06 -3.527028161e-06 -3.653242182e-06 -3.809321519e-06)
5(-3.288465544e-06 -3.402596178e-06 -3.581846314e-06 -3.701218544e-06 -3.854925294e-06)
5(-3.343720244e-06 -3.449613682e-06 -3.630746508e-06 -3.750611509e-06 -3.901864774e-06)
5(-3.391566676e-06 -3.492331323e-06 -3.672086649e-06 -3.776939789e-06 -3.93094268e-06)
5(-3.432646806e-06 -3.525992722e-06 -3.702504822e-06 -3.80557559e-06 -3.950441774e-06)
5(-3.463634761e-06 -3.546051102e-06 -3.714084625e-06 -3.830699724e-06 -3.964714662e-06)
5(-3.487744664e-06 -3.558550674e-06 -3.731399642e-06 -3.832515555e-06 -3.972134016e-06)
5(-3.494442928e-06 -3.562434685e-06 -3.717861202e-06 -3.82062199e-06 -3.961935571e-06)
5(-3.492802479e-06 -3.558948583e-06 -3.702999941e-06 -3.798129721e-06 -3.941880366e-06)
5(-3.481108227e-06 -3.532217368e-06 -3.677913828e-06 -3.767824844e-06 -3.920728233e-06)
5(-3.456970079e-06 -3.493262811e-06 -3.634362835e-06 -3.725986509e-06 -3.866574209e-06)
5(-3.414414082e-06 -3.446114079e-06 -3.580921335e-06 -3.671773388e-06 -3.825478451e-06)
5(-3.360068582e-06 -3.384661814e-06 -3.512163422e-06 -3.604130354e-06 -3.751546995e-06)
5(-3.290210132e-06 -3.307606787e-06 -3.430417499e-06 -3.521399804e-06 -3.679202344e-06)
5(-3.204774148e-06 -3.214757493e-06 -3.336573818e-06 -3.427419877e-06 -3.592224716e-06)
5(-3.100336803e-06 -3.107541952e-06 -3.226941534e-06 -3.322418304e-06 -3.498995522e-06)
5(-2.983994891e-06 -2.98316245e-06 -3.098965987e-06 -3.203385788e-06 -3.381925881e-06)
5(-2.841576267e-06 -2.844231274e-06 -2.958905483e-06 -3.067890862e-06 -3.270162778e-06)
5(-2.694706637e-06 -2.692199985e-06 -2.798381905e-06 -2.930617497e-06 -3.134747105e-06)
5(-2.518783631e-06 -2.519276667e-06 -2.631705474e-06 -2.769088068e-06 -2.979266323e-06)
5(-2.330538571e-06 -2.343690825e-06 -2.447788635e-06 -2.585533974e-06 -2.830347755e-06)
5(-2.132765555e-06 -2.140277238e-06 -2.250409186e-06 -2.400111764e-06 -2.680768499e-06)
5(-1.920130553e-06 -1.94115649e-06 -2.055417523e-06 -2.205156743e-06 -2.565202602e-06)
5(-1.701089161e-06 -1.701649007e-06 -1.823473777e-06 -2.007445413e-06 -2.456469188e-06)
5(-1.456732366e-06 -1.466360864e-06 -1.583319815e-06 -1.820682344e-06 -2.355557024e-06)
5(-1.207215173e-06 -1.237423099e-06 -1.332999e-06 -1.64743972e-06 -2.245462087e-06)
5(-9.445353301e-07 -9.700741396e-07 -1.087348115e-06 -1.490752527e-06 -2.132374218e-06)
5(-6.729891202e-07 -6.932846105e-07 -8.388964067e-07 -1.338769655e-06 -2.023190513e-06)
5(-3.722821056e-07 -4.078795168e-07 -6.170592395e-07 -1.189372096e-06 -1.925743513e-06)
5(-5.645406504e-08 -1.233708218e-07 -4.166051453e-07 -1.043089193e-06 -1.830835678e-06)
5(3.11131935e-07 1.663711236e-07 -2.392295611e-07 -9.069881064e-07 -1.734553384e-06)
5(6.688213282e-07 4.35631922e-07 -8.003661973e-08 -7.764566181e-07 -1.622793075e-06)
5(1.061689771e-06 6.696488879e-07 5.397955863e-08 -6.573808907e-07 -1.495779686e-06)
5(1.45082515e-06 8.795871713e-07 1.61802627e-07 -5.398262932e-07 -1.335871541e-06)
5(1.825261621e-06 1.060618907e-06 2.601986771e-07 -4.131455357e-07 -1.160836586e-06)
5(2.145066751e-06 1.20307592e-06 3.462042296e-07 -2.688271222e-07 -9.149011891e-07)
5(2.404385042e-06 1.350048159e-06 4.432959305e-07 -8.482001484e-08 -6.452993149e-07)
5(2.627709045e-06 1.488552193e-06 5.626207312e-07 1.35101196e-07 -3.226527966e-07)
5(2.84840085e-06 1.674592849e-06 7.455263196e-07 3.942026141e-07 3.993469802e-08)
5(3.202940419e-06 2.020596049e-06 1.058597556e-06 7.629861636e-07 4.731413692e-07)
5(4.028382165e-06 2.806408502e-06 1.810888623e-06 1.371551852e-06 1.073222628e-06)
5(6.574523603e-06 8.801057469e-06 5.509963259e-06 4.650187633e-06 6.414928639e-06)
)


60
(
5(-7.152249865e-07 -8.866359614e-07 -7.979665125e-07 -9.407962401e-07 -8.810347244e-07)
5(-9.487203416e-07 -1.055546597e-06 -1.052946535e-06 -1.150129758e-06 -1.166355988e-06)
5(-1.117421636e-06 -1.185979219e-06 -1.251922088e-06 -1.319693528e-06 -1.396114943e-06)
5(-1.237916554e-06 -1.289815807e-06 -1.384679927e-06 -1.447856265e-06 -1.553112105e-06)
5(-1.318597193e-06 -1.381318334e-06 -1.467730448e-06 -1.547332595e-06 -1.641956392e-06)
5(-1.38746338e-06 -1.468297749e-06 -1.542949943e-06 -1.641158343e-06 -1.719568375e-06)
5(-1.462303607e-06 -1.555213992e-06 -1.632192253e-06 -1.732605248e-06 -1.812416564e-06)
5(-1.546492434e-06 -1.638418122e-06 -1.727575138e-06 -1.829294606e-06 -1.919846376e-06)
5(-1.626655233e-06 -1.718417921e-06 -1.820660818e-06 -1.920272564e-06 -2.026098478e-06)
5(-1.702354923e-06 -1.792491663e-06 -1.907377421e-06 -2.005637842e-06 -2.111567098e-06)
5(-1.775637201e-06 -1.86491571e-06 -1.980840667e-06 -2.0805395e-06 -2.190396054e-06)
5(-1.840746993e-06 -1.932611936e-06 -2.04981466e-06 -2.153340662e-06 -2.262958754e-06)
5(-1.900098711e-06 -1.992332455e-06 -2.115025752e-06 -2.218192731e-06 -2.329590103e-06)
5(-1.956734752e-06 -2.051333074e-06 -2.176450321e-06 -2.280306217e-06 -2.393802952e-06)
5(-2.015173468e-06 -2.106128775e-06 -2.23262595e-06 -2.337141079e-06 -2.451127311e-06)
5(-2.072745527e-06 -2.157716135e-06 -2.284105162e-06 -2.388511064e-06 -2.503145658e-06)
5(-2.115569453e-06 -2.204190311e-06 -2.330140036e-06 -2.431060922e-06 -2.54762256e-06)
5(-2.159006179e-06 -2.244775694e-06 -2.373644029e-06 -2.46514881e-06 -2.589690118e-06)
5(-2.197849227e-06 -2.280078214e-06 -2.403565181e-06 -2.502254397e-06 -2.622163724e-06)
5(-2.23020113e-06 -2.30934244e-06 -2.433809833e-06 -2.526723307e-06 -2.646997646e-06)
5(-2.262958569e-06 -2.331491001e-06 -2.456222099e-06 -2.54714623e-06 -2.664088258e-06)
5(-2.281468744e-06 -2.348224954e-06 -2.473933238e-06 -2.56442584e-06 -2.677420958e-06)
5(-2.298070289e-06 -2.357682147e-06 -2.478555602e-06 -2.566899135e-06 -2.684295989e-06)
5(-2.305368656e-06 -2.360990503e-06 -2.479013463e-06 -2.567532216e-06 -2.680782756e-06)
5(-2.310453471e-06 -2.358181754e-06 -2.472275983e-06 -2.560749217e-06 -2.673492822e-06)
5(-2.302095007e-06 -2.342481759e-06 -2.457677352e-06 -2.543667455e-06 -2.659103214e-06)
5(-2.289359159e-06 -2.333053681e-06 -2.437389962e-06 -2.519870619e-06 -2.633428196e-06)
5(-2.271247021e-06 -2.300448747e-06 -2.402225457e-06 -2.482078252e-06 -2.603693393e-06)
5(-2.232644358e-06 -2.265740897e-06 -2.364451941e-06 -2.445163892e-06 -2.558480553e-06)
5(-2.193231728e-06 -2.221092385e-06 -2.31277508e-06 -2.391179187e-06 -2.511666606e-06)
5(-2.138994629e-06 -2.161268463e-06 -2.249564237e-06 -2.331750958e-06 -2.447310877e-06)
5(-2.077543245e-06 -2.09900546e-06 -2.182327385e-06 -2.262195111e-06 -2.371887317e-06)
5(-2.005353857e-06 -2.029729972e-06 -2.098603592e-06 -2.180713466e-06 -2.299672967e-06)
5(-1.922300417e-06 -1.935452963e-06 -2.007079569e-06 -2.088375115e-06 -2.210871168e-06)
5(-1.827471476e-06 -1.840165401e-06 -1.911429294e-06 -1.98742484e-06 -2.110117428e-06)
5(-1.734322619e-06 -1.733086353e-06 -1.79495336e-06 -1.876672954e-06 -1.997577385e-06)
5(-1.619638708e-06 -1.618420913e-06 -1.669485013e-06 -1.752535263e-06 -1.873247129e-06)
5(-1.490198757e-06 -1.492725346e-06 -1.533733488e-06 -1.612938582e-06 -1.727571391e-06)
5(-1.359751212e-06 -1.358621138e-06 -1.387769103e-06 -1.45963571e-06 -1.57795532e-06)
5(-1.220729399e-06 -1.220546273e-06 -1.236075529e-06 -1.29782054e-06 -1.42647506e-06)
5(-1.078337949e-06 -1.065496943e-06 -1.064604539e-06 -1.121976994e-06 -1.262452978e-06)
5(-9.192384529e-07 -8.98692582e-07 -8.842967119e-07 -9.325640913e-07 -1.100451834e-06)
5(-7.50774183e-07 -7.255322023e-07 -6.885201234e-07 -7.409240779e-07 -9.296174848e-07)
5(-5.731936544e-07 -5.379646524e-07 -4.833601804e-07 -5.431786576e-07 -7.509601455e-07)
5(-3.746093609e-07 -3.424166202e-07 -2.65766474e-07 -3.340019776e-07 -5.588319232e-07)
5(-1.589283765e-07 -1.198450761e-07 -3.465779426e-08 -1.185962092e-07 -3.680286318e-07)
5(8.602133355e-08 1.328753494e-07 2.046759458e-07 1.009602855e-07 -1.774129201e-07)
5(3.644985563e-07 4.066875887e-07 4.533593676e-07 3.282777642e-07 6.162243264e-09)
5(6.924594142e-07 7.069166972e-07 7.079750734e-07 5.446706763e-07 1.801364524e-07)
5(1.068388185e-06 1.045640613e-06 9.664546205e-07 7.485029303e-07 3.456324335e-07)
5(1.496882127e-06 1.403495122e-06 1.219251687e-06 9.357101023e-07 4.940539909e-07)
5(1.974168195e-06 1.786552412e-06 1.458314236e-06 1.102259694e-06 6.337859766e-07)
5(2.505865418e-06 2.168804392e-06 1.675104993e-06 1.25010052e-06 7.697223397e-07)
5(3.071857542e-06 2.551134254e-06 1.862836051e-06 1.371754589e-06 8.865661974e-07)
5(3.660030773e-06 2.912041413e-06 2.03414066e-06 1.494074462e-06 1.02934595e-06)
5(4.222819421e-06 3.261361411e-06 2.198204087e-06 1.621443453e-06 1.181527425e-06)
5(4.782037171e-06 3.628260726e-06 2.387629585e-06 1.786570301e-06 1.370373703e-06)
5(5.360536987e-06 4.07646918e-06 2.733079512e-06 2.040094291e-06 1.610266366e-06)
5(6.002167683e-06 4.796832075e-06 3.479378841e-06 2.605646273e-06 2.080635089e-06)
5(6.997168116e-06 8.309043767e-06 6.434338422e-06 4.597659602e-06 7.772730448e-06)
)


60
(
5(-5.895604294e-07 -7.051054994e-07 -6.584279518e-07 -7.604317352e-07 -7.30815729e-07)
5(-7.545019735e-07 -8.299969776e-07 -8.398341425e-07 -9.115227083e-07 -9.350780483e-07)
5(-8.755596776e-07 -9.266479224e-07 -9.796684467e-07 -1.035297245e-06 -1.097910189e-06)
5(-9.612405912e-07 -1.005294273e-06 -1.076971527e-06 -1.131541885e-06 -1.209941591e-06)
5(-1.024758311e-06 -1.07571364e-06 -1.145686907e-06 -1.209321602e-06 -1.285992634e-06)
5(-1.079620027e-06 -1.142537027e-06 -1.206811407e-06 -1.279997806e-06 -1.350970457e-06)
5(-1.138026712e-06 -1.20571496e-06 -1.272794428e-06 -1.352053655e-06 -1.42283146e-06)
5(-1.198501737e-06 -1.268749667e-06 -1.34396705e-06 -1.424493326e-06 -1.501588101e-06)
5(-1.260563396e-06 -1.328670751e-06 -1.410927681e-06 -1.491290821e-06 -1.577522797e-06)
5(-1.316513046e-06 -1.383622968e-06 -1.474018439e-06 -1.552350619e-06 -1.64329996e-06)
5(-1.366373442e-06 -1.43492117e-06 -1.528169146e-06 -1.609178689e-06 -1.701750923e-06)
5(-1.415255305e-06 -1.482896759e-06 -1.57953166e-06 -1.662217928e-06 -1.754144821e-06)
5(-1.460141169e-06 -1.527604099e-06 -1.625806471e-06 -1.708455757e-06 -1.801191631e-06)
5(-1.501968317e-06 -1.569249825e-06 -1.669517077e-06 -1.750973297e-06 -1.850386192e-06)
5(-1.538088334e-06 -1.6084189e-06 -1.707811888e-06 -1.790969342e-06 -1.88700101e-06)
5(-1.574216021e-06 -1.641380628e-06 -1.741047951e-06 -1.826893729e-06 -1.924503717e-06)
5(-1.608544499e-06 -1.672098444e-06 -1.771189909e-06 -1.853564923e-06 -1.952858196e-06)
5(-1.632505731e-06 -1.697888052e-06 -1.797844035e-06 -1.8816682e-06 -1.978519861e-06)
5(-1.660556917e-06 -1.718403114e-06 -1.818214021e-06 -1.899965285e-06 -2.000203282e-06)
5(-1.677249249e-06 -1.735946218e-06 -1.836085067e-06 -1.917094246e-06 -2.013897583e-06)
5(-1.692235766e-06 -1.749624606e-06 -1.844444913e-06 -1.924615673e-06 -2.02444813e-06)
5(-1.707894579e-06 -1.754250817e-06 -1.852080512e-06 -1.931651723e-06 -2.032583912e-06)
5(-1.712444809e-06 -1.757437051e-06 -1.851029095e-06 -1.929511492e-06 -2.032494662e-06)
5(-1.707055714e-06 -1.755013423e-06 -1.850518584e-06 -1.923129182e-06 -2.027755292e-06)
5(-1.703247769e-06 -1.749257577e-06 -1.836910489e-06 -1.91206032e-06 -2.009965311e-06)
5(-1.691899337e-06 -1.733185754e-06 -1.817883133e-06 -1.89604595e-06 -1.996092099e-06)
5(-1.672695756e-06 -1.712037389e-06 -1.794456782e-06 -1.873071827e-06 -1.974954129e-06)
5(-1.649730745e-06 -1.684934755e-06 -1.765913961e-06 -1.842176922e-06 -1.940955695e-06)
5(-1.620641663e-06 -1.652786491e-06 -1.730884547e-06 -1.808835775e-06 -1.909803584e-06)
5(-1.5824955e-06 -1.615325214e-06 -1.686711585e-06 -1.764572448e-06 -1.862203185e-06)
5(-1.536670071e-06 -1.568467323e-06 -1.6365297e-06 -1.714636075e-06 -1.813150074e-06)
5(-1.485183494e-06 -1.515563005e-06 -1.587316423e-06 -1.658000296e-06 -1.750552293e-06)
5(-1.427620272e-06 -1.457954824e-06 -1.51772085e-06 -1.594292912e-06 -1.685819009e-06)
5(-1.365516454e-06 -1.39387455e-06 -1.446248946e-06 -1.520528183e-06 -1.605756612e-06)
5(-1.293971296e-06 -1.322836315e-06 -1.367798878e-06 -1.439752754e-06 -1.525862855e-06)
5(-1.21541922e-06 -1.243193138e-06 -1.282204522e-06 -1.347060755e-06 -1.423348831e-06)
5(-1.132396711e-06 -1.158757434e-06 -1.194275038e-06 -1.245331853e-06 -1.316207269e-06)
5(-1.044020503e-06 -1.068751027e-06 -1.089539317e-06 -1.137430054e-06 -1.199767527e-06)
5(-9.50728414e-07 -9.737317109e-07 -9.800376234e-07 -1.01896124e-06 -1.060598777e-06)
5(-8.514614055e-07 -8.733537789e-07 -8.632595695e-07 -8.846568097e-07 -9.214539284e-07)
5(-7.472586375e-07 -7.660920185e-07 -7.376019791e-07 -7.389339398e-07 -7.680480723e-07)
5(-6.342293345e-07 -6.523737447e-07 -6.040867997e-07 -5.87283506e-07 -5.995157595e-07)
5(-5.114710367e-07 -5.297212204e-07 -4.625587768e-07 -4.206484194e-07 -4.231853852e-07)
5(-3.786680843e-07 -3.933103655e-07 -3.043556674e-07 -2.408711044e-07 -2.251489818e-07)
5(-2.332898766e-07 -2.433153915e-07 -1.277211865e-07 -4.644467652e-08 -1.86218116e-08)
5(-6.495369675e-08 -7.220236369e-08 6.139456804e-08 1.659066459e-07 2.024339027e-07)
5(1.208808758e-07 1.317874834e-07 2.780633451e-07 3.966106581e-07 4.362876714e-07)
5(3.548906318e-07 3.757546248e-07 5.283828784e-07 6.419941082e-07 6.637311204e-07)
5(6.086803748e-07 6.661957616e-07 8.008953302e-07 9.012599377e-07 8.997120665e-07)
5(9.248916642e-07 1.010060359e-06 1.113548241e-06 1.167727999e-06 1.120051663e-06)
5(1.300453713e-06 1.414720109e-06 1.4615808e-06 1.433176534e-06 1.332663054e-06)
5(1.734463177e-06 1.870671641e-06 1.831829801e-06 1.689548013e-06 1.513965968e-06)
5(2.254140036e-06 2.408856382e-06 2.217058242e-06 1.931741893e-06 1.675708615e-06)
5(2.864018838e-06 2.989278454e-06 2.61175856e-06 2.147934636e-06 1.814052849e-06)
5(3.551192556e-06 3.590590329e-06 2.99405951e-06 2.344186671e-06 1.940896509e-06)
5(4.301142081e-06 4.231292548e-06 3.375863197e-06 2.535907453e-06 2.066786135e-06)
5(5.094050455e-06 4.873860253e-06 3.792578418e-06 2.777431173e-06 2.212683746e-06)
5(5.883912586e-06 5.534224662e-06 4.320819751e-06 3.120002748e-06 2.454723806e-06)
5(6.600143872e-06 6.25367381e-06 5.226851776e-06 3.894253985e-06 2.978516895e-06)
5(7.22984607e-06 6.524056389e-06 6.354900769e-06 6.552583083e-06 6.083541316e-06)
)


60
(
5(-5.0187207e-07 -5.860949357e-07 -5.596790607e-07 -6.369236927e-07 -6.224998957e-07)
5(-6.276255415e-07 -6.835072643e-07 -6.980868079e-07 -7.546275101e-07 -7.796942671e-07)
5(-7.202344734e-07 -7.590670091e-07 -8.049098253e-07 -8.507760479e-07 -9.046794643e-07)
5(-7.863006942e-07 -8.228011807e-07 -8.814638504e-07 -9.2790957e-07 -9.937537927e-07)
5(-8.371736303e-07 -8.795191594e-07 -9.375564592e-07 -9.90747698e-07 -1.05580141e-06)
5(-8.817057712e-07 -9.313201357e-07 -9.879843695e-07 -1.048733904e-06 -1.109840773e-06)
5(-9.292034042e-07 -9.822929373e-07 -1.040114126e-06 -1.105697094e-06 -1.169682668e-06)
5(-9.763626985e-07 -1.031362938e-06 -1.096017593e-06 -1.161815577e-06 -1.229273083e-06)
5(-1.024079995e-06 -1.076977869e-06 -1.147457624e-06 -1.214483884e-06 -1.28894749e-06)
5(-1.066048371e-06 -1.121613799e-06 -1.196162542e-06 -1.26249448e-06 -1.339803932e-06)
5(-1.104998788e-06 -1.159156607e-06 -1.236735974e-06 -1.305671513e-06 -1.385324603e-06)
5(-1.14067235e-06 -1.197106262e-06 -1.27612253e-06 -1.344432203e-06 -1.425100292e-06)
5(-1.174117692e-06 -1.230590323e-06 -1.308881358e-06 -1.380534891e-06 -1.462621381e-06)
5(-1.208145399e-06 -1.261040491e-06 -1.342692058e-06 -1.41260308e-06 -1.495711563e-06)
5(-1.233531371e-06 -1.287749165e-06 -1.369518667e-06 -1.441394713e-06 -1.52660916e-06)
5(-1.257625849e-06 -1.311566711e-06 -1.397029689e-06 -1.466560013e-06 -1.553386617e-06)
5(-1.279863742e-06 -1.332330797e-06 -1.415142601e-06 -1.486785648e-06 -1.574171574e-06)
5(-1.299719612e-06 -1.349521519e-06 -1.43075793e-06 -1.508182098e-06 -1.591377646e-06)
5(-1.312789605e-06 -1.362460764e-06 -1.445237685e-06 -1.516457216e-06 -1.605027389e-06)
5(-1.32572907e-06 -1.372561925e-06 -1.453643897e-06 -1.526952612e-06 -1.614658676e-06)
5(-1.332571767e-06 -1.380075309e-06 -1.459098835e-06 -1.53139415e-06 -1.620658507e-06)
5(-1.334888529e-06 -1.379475835e-06 -1.459438303e-06 -1.531768243e-06 -1.623236312e-06)
5(-1.337568449e-06 -1.378658805e-06 -1.457432363e-06 -1.530519324e-06 -1.620417939e-06)
5(-1.331307015e-06 -1.373195307e-06 -1.449288567e-06 -1.523228412e-06 -1.614332084e-06)
5(-1.32171207e-06 -1.362501945e-06 -1.435739686e-06 -1.512186362e-06 -1.600898526e-06)
5(-1.309822385e-06 -1.352618023e-06 -1.421394851e-06 -1.495388868e-06 -1.588374115e-06)
5(-1.287242438e-06 -1.328306275e-06 -1.400426421e-06 -1.475315328e-06 -1.564678439e-06)
5(-1.265067299e-06 -1.303653341e-06 -1.373859515e-06 -1.45210116e-06 -1.538562772e-06)
5(-1.239621181e-06 -1.276927869e-06 -1.343374071e-06 -1.42157067e-06 -1.510690562e-06)
5(-1.205366468e-06 -1.245237649e-06 -1.308426169e-06 -1.385734946e-06 -1.473583864e-06)
5(-1.165444268e-06 -1.20470221e-06 -1.268620107e-06 -1.34700913e-06 -1.430353529e-06)
5(-1.122856691e-06 -1.161433228e-06 -1.225154029e-06 -1.304641076e-06 -1.389817332e-06)
5(-1.075879762e-06 -1.114307837e-06 -1.177105795e-06 -1.252719804e-06 -1.32869142e-06)
5(-1.020918807e-06 -1.065164579e-06 -1.120389661e-06 -1.196258076e-06 -1.267421844e-06)
5(-9.640446701e-07 -1.010077377e-06 -1.059818935e-06 -1.134055357e-06 -1.19787673e-06)