/*--------------------------------*- C++ -*----------------------------------*\
| =========                 |                                                 |
| \\      /  F ield         | OpenFOAM: The Open Source CFD Toolbox           |
|  \\    /   O peration     | Version:  2.3.1                                 |
|   \\  /    A nd           | Web:      www.OpenFOAM.org                      |
|    \\/     M anipulation  |                                                 |
\*---------------------------------------------------------------------------*/
FoamFile
{
    version     2.0;
    format      ascii;
    class       dictionary;
    location    "constant";
    object      DPSI21;
}
// * * * * * * * * * * * * * * * * * * * * * * * * * * * * * * * * * * * * * //

DPSI21_table
60
(

60
(
5(4.602881686e-07 5.16982682e-07 5.943227263e-07 6.842243805e-07 7.140000732e-07)
5(5.801084428e-07 6.186784507e-07 6.907444615e-07 7.752634862e-07 8.032468541e-07)
5(6.147795963e-07 7.58621471e-07 7.889767181e-07 8.646872296e-07 7.92353828e-07)
5(6.328906012e-07 8.613732088e-07 9.049277122e-07 9.500821265e-07 1.040746808e-06)
5(7.744479794e-07 9.476425622e-07 9.990081243e-07 1.076523593e-06 1.118981147e-06)
5(9.21640212e-07 1.033635091e-06 1.062007025e-06 1.175334667e-06 1.205138944e-06)
5(1.016335796e-06 1.119398922e-06 1.161428578e-06 1.263720451e-06 1.331124561e-06)
5(1.085601807e-06 1.206599499e-06 1.266759557e-06 1.365928742e-06 1.405142185e-06)
5(1.172996937e-06 1.293244099e-06 1.354311622e-06 1.462537255e-06 1.519208369e-06)
5(1.250945705e-06 1.378046543e-06 1.447788073e-06 1.554413654e-06 1.620499176e-06)
5(1.330308174e-06 1.460210511e-06 1.534650011e-06 1.646528226e-06 1.717691766e-06)
5(1.409670206e-06 1.542444002e-06 1.618984706e-06 1.736817235e-06 1.811198434e-06)
5(1.486553835e-06 1.622744694e-06 1.704168355e-06 1.826678941e-06 1.906301334e-06)
5(1.563800068e-06 1.701677615e-06 1.789364875e-06 1.913953129e-06 1.997021407e-06)
5(1.637351669e-06 1.778696368e-06 1.870963055e-06 2.000221835e-06 2.088526105e-06)
5(1.711433172e-06 1.854923324e-06 1.952835904e-06 2.08380486e-06 2.176261995e-06)
5(1.784388282e-06 1.930524388e-06 2.033719596e-06 2.167459425e-06 2.26416795e-06)
5(1.856716592e-06 2.00573067e-06 2.114349263e-06 2.250127804e-06 2.351304764e-06)
5(1.928303969e-06 2.08001725e-06 2.193171723e-06 2.332459442e-06 2.436071219e-06)
5(1.998950222e-06 2.153522145e-06 2.270875836e-06 2.413089813e-06 2.521229732e-06)
5(2.069372529e-06 2.226443842e-06 2.348100077e-06 2.494007916e-06 2.604897366e-06)
5(2.139324027e-06 2.298377291e-06 2.42394444e-06 2.570785242e-06 2.68609471e-06)
5(2.207739181e-06 2.369772678e-06 2.498952376e-06 2.646589339e-06 2.766192922e-06)
5(2.276124553e-06 2.440553077e-06 2.57320253e-06 2.721002261e-06 2.846197199e-06)
5(2.343516741e-06 2.510451275e-06 2.646790287e-06 2.795812917e-06 2.924585326e-06)
5(2.410607234e-06 2.579486173e-06 2.719481187e-06 2.870286959e-06 3.002355061e-06)
5(2.477072418e-06 2.64832257e-06 2.792646043e-06 2.944610646e-06 3.079045637e-06)
5(2.543219133e-06 2.716941103e-06 2.863846147e-06 3.017624634e-06 3.155836289e-06)
5(2.60819091e-06 2.784078882e-06 2.935043642e-06 3.090285614e-06 3.23139979e-06)
5(2.673233667e-06 2.850322015e-06 3.004821356e-06 3.162824479e-06 3.306777251e-06)
5(2.737330124e-06 2.916009709e-06 3.073374484e-06 3.233204538e-06 3.379994033e-06)
5(2.801406925e-06 2.982203651e-06 3.142257441e-06 3.306434919e-06 3.456297098e-06)
5(2.865206377e-06 3.047243721e-06 3.209599619e-06 3.375733437e-06 3.52353213e-06)
5(2.927971065e-06 3.111313771e-06 3.276133671e-06 3.44519266e-06 3.598592589e-06)
5(2.990149085e-06 3.176281768e-06 3.343550137e-06 3.513016727e-06 3.669021399e-06)
5(3.05240508e-06 3.237757445e-06 3.406333085e-06 3.579379053e-06 3.738772327e-06)
5(3.113775125e-06 3.304034449e-06 3.479200975e-06 3.649243102e-06 3.804914356e-06)
5(3.175193942e-06 3.364627322e-06 3.545215043e-06 3.713891392e-06 3.891961659e-06)
5(3.235236959e-06 3.426752323e-06 3.606384021e-06 3.781772926e-06 3.943117787e-06)
5(3.293295084e-06 3.487197437e-06 3.666578232e-06 3.844468554e-06 4.088244835e-06)
5(3.35251498e-06 3.549473599e-06 3.73360767e-06 3.911781485e-06 4.151693658e-06)
5(3.411637558e-06 3.608517937e-06 3.794992102e-06 4.001435396e-06 4.215057222e-06)
5(3.469440626e-06 3.669073383e-06 3.861027816e-06 4.123225689e-06 4.272860808e-06)
5(3.525594971e-06 3.722635923e-06 3.904454216e-06 4.180711215e-06 4.328116156e-06)
5(3.580507929e-06 3.781065811e-06 3.968611739e-06 4.234242348e-06 4.38567524e-06)
5(3.637062669e-06 3.835686431e-06 4.038089594e-06 4.286755086e-06 4.434996822e-06)
5(3.69121167e-06 3.895439766e-06 4.164424467e-06 4.33643381e-06 4.483559097e-06)
5(3.747345398e-06 3.968702636e-06 4.23841689e-06 4.383635067e-06 4.530205772e-06)
5(3.796625895e-06 4.016105251e-06 4.28671229e-06 4.425539503e-06 4.575177124e-06)
5(3.846602999e-06 4.151477548e-06 4.328697442e-06 4.463547488e-06 4.617652133e-06)
5(3.903936621e-06 4.1928919e-06 4.367319489e-06 4.501155592e-06 4.655492472e-06)
5(4.013722452e-06 4.228484377e-06 4.402507489e-06 4.540972545e-06 4.693211291e-06)
5(4.07405744e-06 4.260459189e-06 4.434537698e-06 4.575403632e-06 4.72662429e-06)
5(4.107489984e-06 4.288847112e-06 4.462754403e-06 4.601899517e-06 4.757121744e-06)
5(4.131096107e-06 4.314784145e-06 4.487670791e-06 4.628433198e-06 4.783657537e-06)
5(4.143702501e-06 4.332908946e-06 4.506163886e-06 4.651193175e-06 4.807191881e-06)
5(4.138515638e-06 4.342666779e-06 4.522072974e-06 4.666848956e-06 4.8265811e-06)
5(4.126419776e-06 4.340079395e-06 4.529545796e-06 4.677050315e-06 4.84316939e-06)
5(4.105288822e-06 4.315458742e-06 4.502481697e-06 4.727561323e-06 4.845614363e-06)
5(3.986808161e-06 4.181618897e-06 4.289491244e-06 4.450110801e-06 4.689339194e-06)
)


60
(
5(4.657747563e-07 5.330631245e-07 6.020873608e-07 6.994651192e-07 7.237367702e-07)
5(6.025507917e-07 6.860738173e-07 7.222206186e-07 8.156145426e-07 8.416879899e-07)
5(7.08623026e-07 8.043141348e-07 8.359528077e-07 9.283512028e-07 9.535059354e-07)
5(7.878483256e-07 9.001526895e-07 9.415829438e-07 1.036999999e-06 1.066127226e-06)
5(8.837128058e-07 9.908953316e-07 1.04163119e-06 1.137340614e-06 1.179788752e-06)
5(9.743341131e-07 1.081576768e-06 1.141160458e-06 1.2367466e-06 1.29102287e-06)
5(1.056598576e-06 1.169016478e-06 1.233479277e-06 1.335531647e-06 1.389799405e-06)
5(1.140264077e-06 1.25409306e-06 1.321314707e-06 1.428207347e-06 1.496045682e-06)
5(1.216699609e-06 1.336810092e-06 1.409852193e-06 1.519102979e-06 1.589157932e-06)
5(1.295143006e-06 1.41784189e-06 1.493892806e-06 1.609834097e-06 1.683155346e-06)
5(1.371505129e-06 1.498260184e-06 1.579129744e-06 1.698129272e-06 1.776512117e-06)
5(1.44846339e-06 1.577788623e-06 1.664876955e-06 1.785260606e-06 1.869737517e-06)
5(1.525079153e-06 1.655521759e-06 1.748200476e-06 1.869666605e-06 1.95914131e-06)
5(1.597515901e-06 1.731804019e-06 1.829585714e-06 1.955726356e-06 2.047967959e-06)
5(1.67136855e-06 1.807966304e-06 1.909857189e-06 2.037204943e-06 2.135081894e-06)
5(1.74273103e-06 1.881938301e-06 1.988227627e-06 2.118071376e-06 2.219388368e-06)
5(1.813749066e-06 1.955771915e-06 2.066268955e-06 2.1983292e-06 2.302543776e-06)
5(1.884102928e-06 2.02873498e-06 2.143618684e-06 2.277075118e-06 2.385323153e-06)
5(1.953979091e-06 2.100561438e-06 2.219585169e-06 2.355906502e-06 2.467104672e-06)
5(2.022134977e-06 2.171074669e-06 2.294047708e-06 2.432221555e-06 2.548316976e-06)
5(2.090568683e-06 2.242557762e-06 2.369034778e-06 2.509599218e-06 2.628234976e-06)
5(2.158160744e-06 2.312515855e-06 2.441978272e-06 2.586394071e-06 2.707608591e-06)
5(2.224341599e-06 2.381370151e-06 2.514518618e-06 2.658750699e-06 2.783253453e-06)
5(2.291082879e-06 2.449160902e-06 2.586042479e-06 2.73127175e-06 2.859890927e-06)
5(2.356373174e-06 2.516841602e-06 2.656656704e-06 2.802837662e-06 2.934288826e-06)
5(2.421484891e-06 2.583825874e-06 2.725883075e-06 2.873631016e-06 3.00859952e-06)
5(2.485820419e-06 2.65077902e-06 2.796537677e-06 2.944485602e-06 3.08177644e-06)
5(2.550059975e-06 2.7167877e-06 2.864314297e-06 3.014506433e-06 3.154610191e-06)
5(2.61276496e-06 2.78156093e-06 2.932672027e-06 3.084401005e-06 3.226109694e-06)
5(2.675614196e-06 2.845368263e-06 2.999931152e-06 3.154017573e-06 3.297800366e-06)
5(2.737489433e-06 2.908652135e-06 3.06534067e-06 3.220654355e-06 3.367439172e-06)
5(2.799459428e-06 2.972374272e-06 3.131653168e-06 3.290060526e-06 3.44036058e-06)
5(2.861071308e-06 3.03491517e-06 3.19591205e-06 3.356084959e-06 3.504062628e-06)
5(2.92175832e-06 3.096197288e-06 3.259140961e-06 3.422004308e-06 3.575931907e-06)
5(2.981817519e-06 3.158320996e-06 3.323318429e-06 3.486663295e-06 3.642610712e-06)
5(3.041176134e-06 3.217691749e-06 3.38295404e-06 3.550148806e-06 3.708743175e-06)
5(3.100556752e-06 3.280542023e-06 3.451332279e-06 3.615966164e-06 3.772406853e-06)
5(3.159327314e-06 3.338640642e-06 3.513356375e-06 3.677269359e-06 3.851246545e-06)
5(3.216981815e-06 3.39811616e-06 3.572086495e-06 3.740616499e-06 3.901752056e-06)
5(3.272815446e-06 3.455885733e-06 3.629905605e-06 3.799946322e-06 4.019846141e-06)
5(3.329369065e-06 3.514667536e-06 3.692905808e-06 3.862679543e-06 4.078290699e-06)
5(3.385814179e-06 3.571152174e-06 3.751587819e-06 3.940350956e-06 4.137789677e-06)
5(3.440445058e-06 3.628247196e-06 3.812327124e-06 4.040529915e-06 4.193030937e-06)
5(3.49361297e-06 3.68008762e-06 3.856452512e-06 4.094950674e-06 4.244396514e-06)
5(3.545564748e-06 3.734408688e-06 3.915321944e-06 4.146911585e-06 4.299099408e-06)
5(3.598299699e-06 3.78574041e-06 3.976456823e-06 4.19697829e-06 4.350911667e-06)
5(3.648793342e-06 3.840041672e-06 4.07681821e-06 4.245583923e-06 4.400861741e-06)
5(3.699476949e-06 3.902922124e-06 4.142591146e-06 4.292407933e-06 4.448532338e-06)
5(3.744912042e-06 3.946937164e-06 4.188922829e-06 4.336384619e-06 4.493902267e-06)
5(3.790456271e-06 4.049634671e-06 4.230534641e-06 4.378954904e-06 4.537491486e-06)
5(3.839979021e-06 4.090413246e-06 4.270432973e-06 4.419661317e-06 4.581334531e-06)
5(3.92398169e-06 4.127373233e-06 4.309164594e-06 4.4580231e-06 4.619887056e-06)
5(3.975144e-06 4.161962166e-06 4.343470595e-06 4.494232088e-06 4.655606494e-06)
5(4.00914603e-06 4.194169171e-06 4.375662152e-06 4.527325928e-06 4.688881452e-06)
5(4.037372422e-06 4.222638182e-06 4.404381951e-06 4.556141594e-06 4.71886144e-06)
5(4.05764762e-06 4.24738026e-06 4.428905749e-06 4.580752569e-06 4.745143338e-06)
5(4.066737573e-06 4.266539622e-06 4.448465838e-06 4.600375406e-06 4.76629777e-06)
5(4.070906613e-06 4.274622056e-06 4.459887819e-06 4.616963394e-06 4.783989753e-06)
5(4.065963409e-06 4.266645779e-06 4.453420295e-06 4.653407269e-06 4.786933298e-06)
5(3.983553933e-06 4.172364267e-06 4.305961022e-06 4.458976342e-06 4.666646364e-06)
)


60
(
5(4.668155736e-07 5.33724814e-07 6.034682266e-07 7.009844495e-07 7.252526801e-07)
5(6.076042324e-07 6.872724416e-07 7.291291728e-07 8.207414208e-07 8.506261718e-07)
5(7.17007026e-07 8.05619497e-07 8.451300447e-07 9.332698093e-07 9.691720226e-07)
5(8.063850103e-07 9.00578615e-07 9.510486264e-07 1.038507576e-06 1.081259557e-06)
5(8.915700489e-07 9.890268681e-07 1.048042261e-06 1.138066325e-06 1.188108018e-06)
5(9.755402648e-07 1.076970946e-06 1.139522339e-06 1.234319574e-06 1.291026741e-06)
5(1.056408287e-06 1.161500681e-06 1.229680252e-06 1.327847085e-06 1.39025928e-06)
5(1.135312639e-06 1.244431177e-06 1.317662634e-06 1.419036798e-06 1.486565022e-06)
5(1.213110305e-06 1.325705826e-06 1.40356517e-06 1.508281012e-06 1.580651298e-06)
5(1.289429455e-06 1.405333232e-06 1.487693531e-06 1.595716585e-06 1.673026644e-06)
5(1.364460725e-06 1.483622184e-06 1.570520585e-06 1.681511914e-06 1.763288703e-06)
5(1.438316846e-06 1.560525792e-06 1.65185061e-06 1.765908334e-06 1.851695355e-06)
5(1.511106316e-06 1.636304554e-06 1.731850161e-06 1.848538786e-06 1.938511712e-06)
5(1.582981293e-06 1.71090104e-06 1.810654674e-06 1.929730618e-06 2.023764273e-06)
5(1.653789536e-06 1.784679153e-06 1.888295036e-06 2.009737665e-06 2.10731051e-06)
5(1.723652418e-06 1.857048276e-06 1.964729832e-06 2.088520494e-06 2.189558749e-06)
5(1.792760353e-06 1.928721242e-06 2.040085506e-06 2.166057321e-06 2.270631521e-06)
5(1.861007715e-06 1.999423903e-06 2.114446334e-06 2.242229767e-06 2.350449775e-06)
5(1.928429994e-06 2.06924933e-06 2.187746539e-06 2.31780325e-06 2.429200229e-06)
5(1.995168793e-06 2.138246871e-06 2.260283196e-06 2.392284124e-06 2.506548372e-06)
5(2.060966508e-06 2.206773822e-06 2.331776936e-06 2.465675052e-06 2.582897212e-06)
5(2.126156133e-06 2.274372134e-06 2.402528856e-06 2.538426879e-06 2.658447283e-06)
5(2.190983435e-06 2.34120636e-06 2.472444044e-06 2.61021333e-06 2.733051115e-06)
5(2.255154995e-06 2.406994698e-06 2.541646084e-06 2.681182189e-06 2.806721194e-06)
5(2.318549446e-06 2.472426836e-06 2.609912259e-06 2.751019185e-06 2.879269244e-06)
5(2.381416649e-06 2.537129526e-06 2.677308646e-06 2.819960531e-06 2.950659678e-06)
5(2.443706933e-06 2.601258748e-06 2.744167797e-06 2.888351385e-06 3.02115319e-06)
5(2.505361202e-06 2.664693186e-06 2.810042382e-06 2.956066086e-06 3.090867412e-06)
5(2.566530771e-06 2.727471044e-06 2.875089547e-06 3.022901003e-06 3.159424213e-06)
5(2.62703187e-06 2.789737144e-06 2.939662495e-06 3.088688879e-06 3.227416422e-06)
5(2.687025312e-06 2.851476486e-06 3.003401283e-06 3.153762138e-06 3.29426042e-06)
5(2.746452272e-06 2.912518957e-06 3.066634521e-06 3.21793191e-06 3.360368252e-06)
5(2.805324712e-06 2.972834592e-06 3.128759763e-06 3.281768607e-06 3.425884456e-06)
5(2.863575598e-06 3.03270691e-06 3.190314862e-06 3.344227833e-06 3.490690115e-06)
5(2.921376983e-06 3.091588919e-06 3.25100375e-06 3.406286195e-06 3.554587808e-06)
5(2.978488979e-06 3.150257332e-06 3.310954557e-06 3.467742097e-06 3.617768559e-06)
5(3.035261298e-06 3.207858453e-06 3.370564964e-06 3.528069111e-06 3.679778508e-06)
5(3.09121304e-06 3.264947018e-06 3.428942761e-06 3.587761126e-06 3.740876734e-06)
5(3.146532268e-06 3.321533443e-06 3.487106265e-06 3.646451665e-06 3.801232623e-06)
5(3.201161802e-06 3.376887618e-06 3.544598908e-06 3.704369821e-06 3.861058021e-06)
5(3.255028522e-06 3.431889913e-06 3.601326807e-06 3.761728845e-06 3.920964248e-06)
5(3.30823254e-06 3.48564013e-06 3.65686633e-06 3.818479547e-06 3.981634107e-06)
5(3.360103264e-06 3.538529711e-06 3.710958442e-06 3.874483133e-06 4.041287939e-06)
5(3.410833917e-06 3.590613557e-06 3.763540967e-06 3.930303538e-06 4.098420276e-06)
5(3.46065174e-06 3.641133532e-06 3.815110814e-06 3.986599181e-06 4.155799752e-06)
5(3.509339809e-06 3.690496094e-06 3.865468277e-06 4.041387732e-06 4.213636546e-06)
5(3.556336602e-06 3.737728499e-06 3.917049569e-06 4.094544622e-06 4.269110836e-06)
5(3.601505704e-06 3.784088261e-06 3.968293829e-06 4.146952089e-06 4.322805629e-06)
5(3.645074816e-06 3.829432526e-06 4.018701198e-06 4.199345084e-06 4.374653901e-06)
5(3.687243261e-06 3.87475806e-06 4.068620191e-06 4.250948312e-06 4.424093443e-06)
5(3.727490212e-06 3.920397994e-06 4.116228295e-06 4.298914119e-06 4.473161132e-06)
5(3.76746855e-06 3.965617191e-06 4.163283297e-06 4.343476284e-06 4.519009442e-06)
5(3.807148527e-06 4.009036969e-06 4.207503776e-06 4.38545101e-06 4.562606128e-06)
5(3.847194274e-06 4.050691112e-06 4.248580378e-06 4.426785277e-06 4.601633245e-06)
5(3.887502353e-06 4.088912002e-06 4.28809174e-06 4.464302562e-06 4.637500026e-06)
5(3.925852918e-06 4.126280974e-06 4.32446113e-06 4.49767028e-06 4.670667829e-06)
5(3.962378227e-06 4.161594472e-06 4.355256793e-06 4.527655654e-06 4.6939992e-06)
5(3.994895128e-06 4.190200212e-06 4.380393286e-06 4.550644846e-06 4.710644482e-06)
5(4.01730677e-06 4.211266149e-06 4.401150979e-06 4.561355177e-06 4.719971199e-06)
5(3.999467458e-06 4.165034488e-06 4.35836341e-06 4.522220476e-06 4.662771058e-06)
)


60
(
5(4.662423712e-07 5.313657238e-07 6.025508735e-07 6.988222472e-07 7.239077655e-07)
5(6.089487785e-07 6.855323386e-07 7.31203665e-07 8.204425777e-07 8.532488889e-07)
5(7.190360164e-07 8.038258496e-07 8.481445064e-07 9.334006129e-07 9.736182975e-07)
5(8.082018232e-07 8.983459359e-07 9.537511915e-07 1.038248738e-06 1.085539991e-06)
5(8.925847809e-07 9.862095762e-07 1.04967713e-06 1.136946142e-06 1.190874375e-06)
5(9.757316134e-07 1.073502657e-06 1.140130591e-06 1.23232784e-06 1.292385534e-06)
5(1.055881444e-06 1.157562732e-06 1.229389838e-06 1.325085018e-06 1.390613174e-06)
5(1.13417588e-06 1.239879412e-06 1.316803744e-06 1.415612094e-06 1.486157487e-06)
5(1.211282903e-06 1.320452343e-06 1.401959634e-06 1.50414883e-06 1.579421876e-06)
5(1.286966449e-06 1.399569764e-06 1.485375749e-06 1.590829767e-06 1.670618339e-06)
5(1.361368952e-06 1.477206387e-06 1.567350994e-06 1.675883156e-06 1.760011924e-06)
5(1.434532212e-06 1.553618921e-06 1.647993508e-06 1.759300072e-06 1.847546351e-06)
5(1.506629824e-06 1.628769425e-06 1.727128594e-06 1.841314039e-06 1.933462974e-06)
5(1.577749016e-06 1.702868288e-06 1.805168477e-06 1.921929461e-06 2.017800049e-06)
5(1.647964553e-06 1.775811574e-06 1.881883778e-06 2.001438924e-06 2.100689237e-06)
5(1.717287702e-06 1.847749702e-06 1.957679084e-06 2.079358263e-06 2.182172106e-06)
5(1.785654679e-06 1.918804406e-06 2.032245334e-06 2.156263854e-06 2.262457973e-06)
5(1.853332867e-06 1.988865598e-06 2.105850527e-06 2.231986748e-06 2.341499964e-06)
5(1.920060612e-06 2.058189204e-06 2.178499527e-06 2.306670052e-06 2.418971371e-06)
5(1.986163709e-06 2.126665903e-06 2.250165334e-06 2.380228665e-06 2.495694143e-06)
5(2.051509024e-06 2.194290168e-06 2.321103748e-06 2.452921919e-06 2.571309362e-06)
5(2.116167556e-06 2.261279468e-06 2.39111837e-06 2.524937114e-06 2.645918952e-06)
5(2.180258974e-06 2.327450983e-06 2.460313968e-06 2.595996915e-06 2.719522884e-06)
5(2.243712252e-06 2.392871696e-06 2.528578206e-06 2.665912648e-06 2.792182498e-06)
5(2.306536279e-06 2.457430653e-06 2.596163343e-06 2.734992789e-06 2.864030323e-06)
5(2.36863175e-06 2.521854971e-06 2.663152957e-06 2.803265767e-06 2.935010932e-06)
5(2.430273634e-06 2.584965618e-06 2.729201611e-06 2.87101141e-06 3.004994748e-06)
5(2.49141948e-06 2.647980198e-06 2.794663335e-06 2.937990255e-06 3.074076362e-06)
5(2.551895864e-06 2.710117375e-06 2.859278181e-06 3.00410579e-06 3.142238431e-06)
5(2.611794809e-06 2.7718118e-06 2.923116945e-06 3.069373848e-06 3.209546094e-06)
5(2.671054564e-06 2.833048199e-06 2.986452116e-06 3.134038298e-06 3.275730141e-06)
5(2.729713643e-06 2.893492634e-06 3.048749237e-06 3.197854224e-06 3.341351675e-06)
5(2.787869933e-06 2.953191712e-06 3.110761852e-06 3.26099313e-06 3.406261244e-06)
5(2.845282915e-06 3.012513453e-06 3.171859372e-06 3.323375743e-06 3.470390042e-06)
5(2.902251343e-06 3.070862849e-06 3.231845715e-06 3.384958081e-06 3.533563115e-06)
5(2.959247738e-06 3.128812832e-06 3.29152759e-06 3.445697616e-06 3.595753158e-06)
5(3.014960998e-06 3.18582541e-06 3.35026228e-06 3.505510099e-06 3.656870085e-06)
5(3.070214179e-06 3.242287982e-06 3.408379465e-06 3.564588605e-06 3.716996395e-06)
5(3.124689468e-06 3.298027266e-06 3.465893433e-06 3.622862726e-06 3.776629029e-06)
5(3.178424762e-06 3.352706659e-06 3.522053444e-06 3.680304695e-06 3.836079821e-06)
5(3.231461796e-06 3.406950387e-06 3.577692068e-06 3.736947412e-06 3.895477435e-06)
5(3.283474018e-06 3.459761183e-06 3.632421649e-06 3.792608893e-06 3.954262621e-06)
5(3.334420557e-06 3.511884021e-06 3.685406367e-06 3.847484801e-06 4.012226066e-06)
5(3.383892047e-06 3.563004932e-06 3.736888824e-06 3.901819236e-06 4.06905555e-06)
5(3.432188324e-06 3.612760674e-06 3.787400948e-06 3.955916637e-06 4.12482892e-06)
5(3.479255298e-06 3.660829195e-06 3.837437814e-06 4.009399736e-06 4.178923716e-06)
5(3.524293616e-06 3.707154978e-06 3.886624778e-06 4.060572165e-06 4.231592102e-06)
5(3.567666874e-06 3.751901065e-06 3.934955231e-06 4.110848286e-06 4.283413255e-06)
5(3.609002744e-06 3.796219209e-06 3.982651709e-06 4.160820816e-06 4.334604983e-06)
5(3.648595784e-06 3.838696694e-06 4.030109922e-06 4.208691048e-06 4.383629582e-06)
5(3.68657194e-06 3.880793253e-06 4.075247872e-06 4.25458386e-06 4.428624103e-06)
5(3.723504015e-06 3.922635264e-06 4.117830202e-06 4.298921217e-06 4.474392949e-06)
5(3.760212859e-06 3.962641401e-06 4.16102367e-06 4.341794185e-06 4.517841629e-06)
5(3.795798786e-06 4.000523515e-06 4.201481922e-06 4.381739653e-06 4.557299564e-06)
5(3.83139576e-06 4.037229965e-06 4.240626835e-06 4.419884152e-06 4.593162767e-06)
5(3.866063786e-06 4.071517433e-06 4.275093406e-06 4.454441762e-06 4.625140783e-06)
5(3.899109385e-06 4.103597599e-06 4.306394664e-06 4.483931688e-06 4.65024226e-06)
5(3.92869527e-06 4.131150714e-06 4.332483895e-06 4.505250478e-06 4.667722599e-06)
5(3.951558518e-06 4.151333834e-06 4.348387717e-06 4.518775773e-06 4.678465608e-06)
5(3.943529325e-06 4.11290932e-06 4.306343718e-06 4.485786466e-06 4.610624389e-06)
)


60
(
5(4.650571796e-07 5.281579373e-07 6.007511141e-07 6.954221594e-07 7.214294264e-07)
5(6.087883848e-07 6.82533428e-07 7.30963006e-07 8.179521373e-07 8.531541816e-07)
5(7.191354585e-07 8.006246462e-07 8.48388932e-07 9.310488144e-07 9.744682624e-07)
5(8.079587922e-07 8.946552736e-07 9.536236219e-07 1.03549372e-06 1.086044429e-06)
5(8.917402535e-07 9.819930709e-07 1.048756021e-06 1.133511585e-06 1.190419837e-06)
5(9.742346229e-07 1.068800366e-06 1.138394584e-06 1.228239292e-06 1.290896514e-06)
5(1.053768892e-06 1.152313227e-06 1.227006056e-06 1.320372523e-06 1.388314838e-06)
5(1.13149829e-06 1.234127284e-06 1.313750388e-06 1.410313339e-06 1.483212036e-06)
5(1.208092267e-06 1.314239763e-06 1.39838766e-06 1.498303508e-06 1.575829069e-06)
5(1.283245437e-06 1.392710716e-06 1.481116939e-06 1.584398011e-06 1.666354314e-06)
5(1.357059055e-06 1.469961741e-06 1.562500493e-06 1.668794248e-06 1.754939807e-06)
5(1.429654759e-06 1.545758466e-06 1.642432632e-06 1.751648497e-06 1.841741434e-06)
5(1.501251662e-06 1.620460668e-06 1.721093517e-06 1.83304237e-06 1.926886661e-06)
5(1.571774394e-06 1.693989428e-06 1.798336967e-06 1.913038528e-06 2.010712815e-06)
5(1.641474884e-06 1.766457522e-06 1.874552191e-06 1.991847976e-06 2.092879179e-06)
5(1.710166118e-06 1.838057866e-06 1.949542943e-06 2.069328495e-06 2.173801757e-06)
5(1.778067458e-06 1.908518763e-06 2.02359393e-06 2.145723146e-06 2.253327893e-06)
5(1.845113015e-06 1.978104933e-06 2.096537085e-06 2.221126065e-06 2.331649452e-06)
5(1.911409939e-06 2.046901838e-06 2.16859095e-06 2.295188409e-06 2.408923254e-06)
5(1.976959467e-06 2.114837389e-06 2.239739016e-06 2.368305047e-06 2.485053e-06)
5(2.041838905e-06 2.181954808e-06 2.310135595e-06 2.440679842e-06 2.560259404e-06)
5(2.106095008e-06 2.248375372e-06 2.37943873e-06 2.511941585e-06 2.634171713e-06)
5(2.169580591e-06 2.314076059e-06 2.448194138e-06 2.582239697e-06 2.707093258e-06)
5(2.232419634e-06 2.379259344e-06 2.515888626e-06 2.651631374e-06 2.779152493e-06)
5(2.294774172e-06 2.44330369e-06 2.582925151e-06 2.720470333e-06 2.850275866e-06)
5(2.356429482e-06 2.506794929e-06 2.649363021e-06 2.788327891e-06 2.920570983e-06)
5(2.417476896e-06 2.570079058e-06 2.714860028e-06 2.855382077e-06 2.989969598e-06)
5(2.47800515e-06 2.6324771e-06 2.779676304e-06 2.921821714e-06 3.05824237e-06)
5(2.537978914e-06 2.694197931e-06 2.843729615e-06 2.987410503e-06 3.126020597e-06)
5(2.59736608e-06 2.75532866e-06 2.907237445e-06 3.052305464e-06 3.19298253e-06)
5(2.656151033e-06 2.815954078e-06 2.969943625e-06 3.116213452e-06 3.259137017e-06)
5(2.714298184e-06 2.87572415e-06 3.031726281e-06 3.179634416e-06 3.324191386e-06)
5(2.771987138e-06 2.935143112e-06 3.093088656e-06 3.241950551e-06 3.388432277e-06)
5(2.829108458e-06 2.99351239e-06 3.153793526e-06 3.304075622e-06 3.451915479e-06)
5(2.885621529e-06 3.051497908e-06 3.213405172e-06 3.365042904e-06 3.514684672e-06)
5(2.941608875e-06 3.108687963e-06 3.272496672e-06 3.4252371e-06 3.576467741e-06)
5(2.996898938e-06 3.165404057e-06 3.33073109e-06 3.484672153e-06 3.637326929e-06)
5(3.051491674e-06 3.221297699e-06 3.388381312e-06 3.543059698e-06 3.697122915e-06)
5(3.105329128e-06 3.276489061e-06 3.445114268e-06 3.600729658e-06 3.756297804e-06)
5(3.158340008e-06 3.330745307e-06 3.500907714e-06 3.657649151e-06 3.815376073e-06)
5(3.210372766e-06 3.3840536e-06 3.555787127e-06 3.713880595e-06 3.874187497e-06)
5(3.261342888e-06 3.436271354e-06 3.609845502e-06 3.769001491e-06 3.932308377e-06)
5(3.311012507e-06 3.48731267e-06 3.662183152e-06 3.823685393e-06 3.989239492e-06)
5(3.359388608e-06 3.537495033e-06 3.713461552e-06 3.878008743e-06 4.044933899e-06)
5(3.406346443e-06 3.586096352e-06 3.763240644e-06 3.93133423e-06 4.099431442e-06)
5(3.45182338e-06 3.633152024e-06 3.812668067e-06 3.983799323e-06 4.152802465e-06)
5(3.495375207e-06 3.678591342e-06 3.860898269e-06 4.035064874e-06 4.204810151e-06)
5(3.537153985e-06 3.721797906e-06 3.908343523e-06 4.083779623e-06 4.255495825e-06)
5(3.576893268e-06 3.763729967e-06 3.954310097e-06 4.131015797e-06 4.304626429e-06)
5(3.614707996e-06 3.804460782e-06 3.997996293e-06 4.176952901e-06 4.351911915e-06)
5(3.651408505e-06 3.845105675e-06 4.040809731e-06 4.221176863e-06 4.397010202e-06)
5(3.686284997e-06 3.882890652e-06 4.080851771e-06 4.26271323e-06 4.439924893e-06)
5(3.720265058e-06 3.920336497e-06 4.119671846e-06 4.304553001e-06 4.481065289e-06)
5(3.753328036e-06 3.955063684e-06 4.15831093e-06 4.342754149e-06 4.519786411e-06)
5(3.785267847e-06 3.988258986e-06 4.193236377e-06 4.378471211e-06 4.554478103e-06)
5(3.816262947e-06 4.019364084e-06 4.226410416e-06 4.411320351e-06 4.582936414e-06)
5(3.845454266e-06 4.047648688e-06 4.256412319e-06 4.43856135e-06 4.609525357e-06)
5(3.87155408e-06 4.07268542e-06 4.278599348e-06 4.458936894e-06 4.629535793e-06)
5(3.893075508e-06 4.091426142e-06 4.291991835e-06 4.471880312e-06 4.636112233e-06)
5(3.884548339e-06 4.077559755e-06 4.256126519e-06 4.424413604e-06 4.577737264e-06)
)


60
(
5(4.637188682e-07 5.24918181e-07 5.986919055e-07 6.917523901e-07 7.186262913e-07)
5(6.080564367e-07 6.793090598e-07 7.298403557e-07 8.148019643e-07 8.519041517e-07)
5(7.184676879e-07 7.971083087e-07 8.474538414e-07 9.278266627e-07 9.737256932e-07)
5(8.069229097e-07 8.906715039e-07 9.522668953e-07 1.031822558e-06 1.084895439e-06)
5(8.901463213e-07 9.775051401e-07 1.046735082e-06 1.129262202e-06 1.1884376e-06)
5(9.720484199e-07 1.063810572e-06 1.135604095e-06 1.223321411e-06 1.288078173e-06)
5(1.051063051e-06 1.146796753e-06 1.223612413e-06 1.314929756e-06 1.38477811e-06)
5(1.128266355e-06 1.228130494e-06 1.309767007e-06 1.404300831e-06 1.479055952e-06)
5(1.204360387e-06 1.30776784e-06 1.393809274e-06 1.491717572e-06 1.571080313e-06)
5(1.278995843e-06 1.385778374e-06 1.475977025e-06 1.5773551e-06 1.661001838e-06)
5(1.352291039e-06 1.462466098e-06 1.556782871e-06 1.661150389e-06 1.748892179e-06)
5(1.424423643e-06 1.537799559e-06 1.636039674e-06 1.743417411e-06 1.835096343e-06)
5(1.495457328e-06 1.612027064e-06 1.714157855e-06 1.824316213e-06 1.91959406e-06)
5(1.565559484e-06 1.685053365e-06 1.790818863e-06 1.903742849e-06 2.002717242e-06)
5(1.634697995e-06 1.757099576e-06 1.866572014e-06 1.982034179e-06 2.084434626e-06)
5(1.702948597e-06 1.828094135e-06 1.940936757e-06 2.058922572e-06 2.16484703e-06)
5(1.770329052e-06 1.898179119e-06 2.014525907e-06 2.134918538e-06 2.243755056e-06)
5(1.83685225e-06 1.967326964e-06 2.086785672e-06 2.209525784e-06 2.321601456e-06)
5(1.902692302e-06 2.035736076e-06 2.158346478e-06 2.283415917e-06 2.398308632e-06)
5(1.967775461e-06 2.10317458e-06 2.228943507e-06 2.356102683e-06 2.473820646e-06)
5(2.032135398e-06 2.169759153e-06 2.298611053e-06 2.428132368e-06 2.548444991e-06)
5(2.095873149e-06 2.235913931e-06 2.367641826e-06 2.498780056e-06 2.622066988e-06)
5(2.158945888e-06 2.301115643e-06 2.435713519e-06 2.568728307e-06 2.694539357e-06)
5(2.221393954e-06 2.36546888e-06 2.503095559e-06 2.637980367e-06 2.766335115e-06)
5(2.283213208e-06 2.429447466e-06 2.569738874e-06 2.70596898e-06 2.837189649e-06)
5(2.344535273e-06 2.492228857e-06 2.63532773e-06 2.77323939e-06 2.906802744e-06)
5(2.40514691e-06 2.55517912e-06 2.700404587e-06 2.839906801e-06 2.975515089e-06)
5(2.465151056e-06 2.617154042e-06 2.764988393e-06 2.905977518e-06 3.043534378e-06)
5(2.524624914e-06 2.678500086e-06 2.828421841e-06 2.971071281e-06 3.110770871e-06)
5(2.583563982e-06 2.739097981e-06 2.89136752e-06 3.035892917e-06 3.177030334e-06)
5(2.641910592e-06 2.799238386e-06 2.953615382e-06 3.099218168e-06 3.242426874e-06)
5(2.699690305e-06 2.858722407e-06 3.015231602e-06 3.162070975e-06 3.306921723e-06)
5(2.756829123e-06 2.91744478e-06 3.075850402e-06 3.224240382e-06 3.370710811e-06)
5(2.813308251e-06 2.975726489e-06 3.135913424e-06 3.28575611e-06 3.433903127e-06)
5(2.869253711e-06 3.033323065e-06 3.195468174e-06 3.346221033e-06 3.496376125e-06)
5(2.924629133e-06 3.089973305e-06 3.253754914e-06 3.405986241e-06 3.557992072e-06)
5(2.979279742e-06 3.14627969e-06 3.311581873e-06 3.465045872e-06 3.618625988e-06)
5(3.03321411e-06 3.201654994e-06 3.368666338e-06 3.523099287e-06 3.678225607e-06)
5(3.08624829e-06 3.256080268e-06 3.42479277e-06 3.580286487e-06 3.737031003e-06)
5(3.13845652e-06 3.309801127e-06 3.480265026e-06 3.636571253e-06 3.795361635e-06)
5(3.189565928e-06 3.362287261e-06 3.534510985e-06 3.692188547e-06 3.853574201e-06)
5(3.23963977e-06 3.413730823e-06 3.587640696e-06 3.746787224e-06 3.911260385e-06)
5(3.288211266e-06 3.463763503e-06 3.639604243e-06 3.801084044e-06 3.967865706e-06)
5(3.335388107e-06 3.512603979e-06 3.689901817e-06 3.854370304e-06 4.023192608e-06)
5(3.381150461e-06 3.560377816e-06 3.739071139e-06 3.907135416e-06 4.077118402e-06)
5(3.425261949e-06 3.606371604e-06 3.787124426e-06 3.958689374e-06 4.129931239e-06)
5(3.467725174e-06 3.649717285e-06 3.834445447e-06 4.009077408e-06 4.180908231e-06)
5(3.508485839e-06 3.691899417e-06 3.88050549e-06 4.05722938e-06 4.230206909e-06)
5(3.547519154e-06 3.732036695e-06 3.925049661e-06 4.10360669e-06 4.277843919e-06)
5(3.584486459e-06 3.771744571e-06 3.967444536e-06 4.147972596e-06 4.323412361e-06)
5(3.619754706e-06 3.810766005e-06 4.007803971e-06 4.190583716e-06 4.367034903e-06)
5(3.653376223e-06 3.847374456e-06 4.045878186e-06 4.230704518e-06 4.40870549e-06)
5(3.686039536e-06 3.882081775e-06 4.080999264e-06 4.268973274e-06 4.447830177e-06)