/*--------------------------------*- C++ -*----------------------------------*\
| =========                 |                                                 |
| \\      /  F ield         | OpenFOAM: The Open Source CFD Toolbox           |
|  \\    /   O peration     | Version:  2.3.1                                 |
|   \\  /    A nd           | Web:      www.OpenFOAM.org                      |
|    \\/     M anipulation  |                                                 |
\*---------------------------------------------------------------------------*/
FoamFile
{
    version     2.0;
    format      ascii;
    class       dictionary;
    location    "constant";
    object      DPSI40;
}
// * * * * * * * * * * * * * * * * * * * * * * * * * * * * * * * * * * * * * //

DPSI40_table
60
(

60
(
5(-7.029600937e-17 -2.588113079e-17 -4.921923151e-17 -2.40571725e-17 -2.070012317e-17)
5(-4.809398848e-17 -3.047459643e-17 -3.050494522e-17 -2.070542471e-17 -1.51235595e-17)
5(-3.672833285e-17 -3.161567386e-17 -2.540964028e-17 -1.99207109e-17 -1.244526442e-17)
5(-3.157094156e-17 -3.137417849e-17 -2.482519838e-17 -1.960528947e-17 -1.373862832e-17)
5(-3.555224825e-17 -3.077828143e-17 -2.646904113e-17 -2.002996992e-17 -1.438689177e-17)
5(-3.802841384e-17 -2.904063433e-17 -2.695143809e-17 -1.966357601e-17 -1.455730905e-17)
5(-3.666605388e-17 -2.585732144e-17 -2.528719234e-17 -1.725103296e-17 -1.31918712e-17)
5(-3.282813643e-17 -2.183825481e-17 -2.079277584e-17 -1.361421801e-17 -1.049411567e-17)
5(-2.675514105e-17 -1.687870454e-17 -1.529176382e-17 -9.365820512e-18 -7.09007284e-18)
5(-1.931503955e-17 -1.092060617e-17 -9.662110914e-18 -5.251584481e-18 -3.834244479e-18)
5(-1.253291444e-17 -5.864924061e-18 -5.055273447e-18 -2.409717236e-18 -1.643848363e-18)
5(-7.099971127e-18 -3.060718102e-18 -2.387103926e-18 -1.070594392e-18 -6.495571815e-19)
5(-4.044321415e-18 -1.607632448e-18 -1.179435088e-18 -5.084791138e-19 -2.909949209e-19)
5(-2.279471433e-18 -8.991862365e-19 -6.191440599e-19 -2.607732603e-19 -1.423471103e-19)
5(-1.353922677e-18 -5.297607019e-19 -3.446849037e-19 -1.413006824e-19 -7.351769226e-20)
5(-8.290465466e-19 -2.31143992e-19 -1.974384747e-19 -7.762521486e-20 -3.928763785e-20)
5(-5.341285906e-19 -1.339691056e-19 -1.167340468e-19 -4.541977997e-20 -2.186462455e-20)
5(-3.56536919e-19 -8.707105953e-20 -7.308752539e-20 -2.756563356e-20 -1.253387122e-20)
5(-2.422713375e-19 -7.005727693e-20 -4.59901148e-20 -1.677286114e-20 -7.228925817e-21)
5(-1.685545085e-19 -5.806655512e-20 -2.944925484e-20 -1.03537771e-20 -4.265715084e-21)
5(-1.181447582e-19 -3.931698974e-20 -1.900853286e-20 -6.470212494e-21 -2.585223261e-21)
5(-8.467540971e-20 -2.677037459e-20 -1.234951927e-20 -4.061889185e-21 -1.594525161e-21)
5(-6.186616388e-20 -1.840156537e-20 -8.093092439e-21 -2.584481193e-21 -1.000830116e-21)
5(-4.352206292e-20 -1.25827533e-20 -5.31466327e-21 -1.693624111e-21 -6.737662731e-22)
5(-3.131009577e-20 -8.683184844e-21 -3.55785339e-21 -1.171977149e-21 -5.058831532e-22)
5(-2.238524815e-20 -6.002695841e-21 -2.446364518e-21 -9.080904897e-22 -4.626601016e-22)
5(-1.596892342e-20 -4.273495217e-21 -1.833014279e-21 -8.520090255e-22 -5.340272465e-22)
5(-1.166353758e-20 -3.246892678e-21 -1.612899109e-21 -1.011455691e-21 -7.491214298e-22)
5(-8.646489808e-21 -2.820903773e-21 -1.78172558e-21 -1.457821868e-21 -1.190743493e-21)
5(-6.787799869e-21 -3.030861327e-21 -2.446747961e-21 -2.363856219e-21 -2.028523812e-21)
5(-6.045564355e-21 -4.027108593e-21 -3.857756674e-21 -4.031968743e-21 -3.525578847e-21)
5(-6.548413614e-21 -6.221611972e-21 -6.527590139e-21 -7.032679028e-21 -6.168522707e-21)
5(-8.655655814e-21 -1.023703466e-20 -1.121000998e-20 -1.212658623e-20 -1.056770525e-20)
5(-1.305878702e-20 -1.718421771e-20 -1.907352109e-20 -2.047522103e-20 -1.751059195e-20)
5(-2.106174223e-20 -2.882462102e-20 -3.193737736e-20 -3.325536249e-20 -2.768487481e-20)
5(-3.448080955e-20 -4.665284094e-20 -5.092124579e-20 -5.146795242e-20 -4.125721452e-20)
5(-5.576969078e-20 -7.406599463e-20 -7.94214636e-20 -7.543676378e-20 -5.749871511e-20)
5(-8.71685986e-20 -1.104568729e-19 -1.150176038e-19 -1.026945276e-19 -7.407895282e-20)
5(-1.300170132e-19 -1.563486195e-19 -1.548433558e-19 -1.292797094e-19 -8.620509082e-20)
5(-1.824841309e-19 -2.067879689e-19 -1.924173696e-19 -1.478163895e-19 -8.819103246e-20)
5(-2.418316976e-19 -2.534170635e-19 -2.194937986e-19 -1.516454221e-19 -7.850142881e-20)
5(-2.966580452e-19 -2.831547988e-19 -2.244870712e-19 -1.362225964e-19 -5.920223254e-20)
5(-3.31941086e-19 -2.848331961e-19 -2.030315227e-19 -1.047073301e-19 -3.7347335e-20)
5(-3.339215013e-19 -2.513819909e-19 -1.588761627e-19 -6.749285814e-20 -1.917832797e-20)
5(-2.96816079e-19 -1.942386728e-19 -1.060792609e-19 -3.535981495e-20 -7.798295513e-21)
5(-2.298544822e-19 -1.274580313e-19 -5.824181237e-20 -1.465669939e-20 -2.395638581e-21)
5(-1.509617012e-19 -6.943843463e-20 -2.501975209e-20 -4.688658546e-21 -5.395236607e-22)
5(-8.07858782e-20 -3.023651541e-20 -8.197303997e-21 -1.116165233e-21 -8.742785727e-23)
5(-3.508493968e-20 -1.009785739e-20 -1.953427659e-21 -1.897343827e-22 -1.021863865e-23)
5(-1.124186586e-20 -2.402996329e-21 -3.314010184e-22 -2.201362192e-23 -9.201110073e-25)
5(-2.623656776e-21 -3.893814568e-22 -3.646427179e-23 -1.875356938e-24 -6.506086491e-26)
5(-3.766432558e-22 -4.024966901e-23 -2.709809185e-24 -1.174085437e-25 -3.604007189e-27)
5(-3.851349407e-23 -2.575415429e-24 -1.402533643e-25 -5.503691673e-27 -1.523105221e-28)
5(-1.724888027e-24 -8.741962962e-26 -4.287711593e-27 -1.849442783e-28 -5.358844115e-30)
5(-3.742959214e-26 -1.919759263e-27 -8.630643536e-29 -8.927125785e-30 -1.63681117e-31)
5(-2.768710902e-28 1.592127856e-27 -1.568073857e-30 -1.312886993e-27 -8.362170734e-33)
5(-9.712639874e-31 1.466623737e-25 4.837931654e-29 -3.462405114e-25 -5.311835982e-34)
5(-2.214812915e-33 -6.912660764e-24 3.096390845e-28 -7.750534243e-23 -1.919240632e-35)
5(-5.576038539e-36 2.315861118e-22 6.610354175e-25 1.112380124e-22 -1.678835052e-37)
5(-1.215198109e-40 -5.609363433e-40 0 -6.357430142e-39 -2.61250387e-38)
)


60
(
5(-1.336369272e-16 -5.239369383e-17 -8.363258245e-17 -4.10915945e-17 -3.002392701e-17)
5(-1.203350749e-16 -7.162321149e-17 -6.218076488e-17 -3.814682744e-17 -2.3406878e-17)
5(-1.133100614e-16 -8.142252374e-17 -5.710602942e-17 -3.848047068e-17 -2.19239295e-17)
5(-1.154418211e-16 -8.5648678e-17 -5.963975695e-17 -4.008335758e-17 -2.241634117e-17)
5(-1.227201191e-16 -8.758387371e-17 -6.49182354e-17 -4.153561412e-17 -2.417178649e-17)
5(-1.313032603e-16 -8.717021931e-17 -6.858871983e-17 -4.151986359e-17 -2.511370132e-17)
5(-1.312462163e-16 -8.237278803e-17 -6.524941597e-17 -3.809837959e-17 -2.30113785e-17)
5(-1.22543039e-16 -7.237323948e-17 -5.622487178e-17 -3.138196312e-17 -1.88444869e-17)
5(-1.03204837e-16 -5.703695823e-17 -4.28187102e-17 -2.228291549e-17 -1.304558817e-17)
5(-7.981949535e-17 -3.853504952e-17 -2.792728304e-17 -1.291332342e-17 -7.117815686e-18)
5(-5.394355758e-17 -2.172436995e-17 -1.485463725e-17 -6.044310409e-18 -3.119396102e-18)
5(-3.108320584e-17 -1.12658259e-17 -7.042813034e-18 -2.623435748e-18 -1.212282279e-18)
5(-1.72228046e-17 -5.920653007e-18 -3.42517908e-18 -1.229716104e-18 -5.332167824e-19)
5(-1.001577062e-17 -3.320120752e-18 -1.805072011e-18 -6.344886494e-19 -2.63273432e-19)
5(-6.015696467e-18 -1.971374369e-18 -1.010560154e-18 -3.481487039e-19 -1.370264229e-19)
5(-3.8478772e-18 -1.171065776e-18 -5.926603362e-19 -1.98011801e-19 -7.534334778e-20)
5(-2.511252172e-18 -7.441867801e-19 -3.588216207e-19 -1.169484569e-19 -4.284501749e-20)
5(-1.709031682e-18 -4.871622931e-19 -2.250994926e-19 -7.115816274e-20 -2.525125576e-20)
5(-1.194908385e-18 -3.311183855e-19 -1.430368783e-19 -4.415076445e-20 -1.51222296e-20)
5(-8.449705217e-19 -2.298789194e-19 -9.255191383e-20 -2.784007967e-20 -9.245308534e-21)
5(-6.277414462e-19 -1.575806577e-19 -6.057141053e-20 -1.779565178e-20 -5.740196899e-21)
5(-4.468621334e-19 -1.085728964e-19 -3.998499571e-20 -1.144156538e-20 -3.631768075e-21)
5(-3.35435938e-19 -7.524770223e-20 -2.645088584e-20 -7.39122726e-21 -2.349582003e-21)
5(-2.452227516e-19 -5.219672714e-20 -1.754579818e-20 -4.846419242e-21 -1.567904976e-21)
5(-1.864277758e-19 -3.625607058e-20 -1.167002027e-20 -3.255515753e-21 -1.122815172e-21)
5(-1.376843587e-19 -2.516646402e-20 -7.851943309e-21 -2.284314679e-21 -9.062110652e-22)
5(-1.031599345e-19 -1.756083464e-20 -5.399252904e-21 -1.775449115e-21 -8.696467189e-22)
5(-7.965115918e-20 -1.231389473e-20 -3.95199958e-21 -1.625086704e-21 -1.02394214e-21)
5(-5.847185654e-20 -9.003478246e-21 -3.281649767e-21 -1.84116397e-21 -1.423256482e-21)
5(-4.463377227e-20 -7.117328322e-21 -3.305325695e-21 -2.515069309e-21 -2.223975758e-21)
5(-3.406805987e-20 -6.435831878e-21 -4.118051672e-21 -3.865422094e-21 -3.62784048e-21)
5(-2.703878382e-20 -7.136650056e-21 -6.029994071e-21 -6.33586542e-21 -6.135406014e-21)
5(-2.262848596e-20 -9.470218179e-21 -9.571100621e-21 -1.057654735e-20 -1.026582729e-20)
5(-2.141836649e-20 -1.403883905e-20 -1.563440184e-20 -1.75418724e-20 -1.705508319e-20)
5(-2.362371326e-20 -2.205342515e-20 -2.561798574e-20 -2.850527774e-20 -2.719762804e-20)
5(-3.096069058e-20 -3.479429572e-20 -4.079697643e-20 -4.476806859e-20 -4.171047162e-20)
5(-4.36118017e-20 -5.470067828e-20 -6.390585855e-20 -6.734906007e-20 -6.053230709e-20)
5(-6.382774783e-20 -8.24219193e-20 -9.452274071e-20 -9.544521835e-20 -8.225073107e-20)
5(-9.383315262e-20 -1.195444441e-19 -1.316817052e-19 -1.267105667e-19 -1.028719525e-19)
5(-1.325931529e-19 -1.633915862e-19 -1.717052368e-19 -1.553920615e-19 -1.173217e-19)
5(-1.796025086e-19 -2.096713039e-19 -2.082372645e-19 -1.741631049e-19 -1.194114291e-19)
5(-2.291404678e-19 -2.482846783e-19 -2.296763312e-19 -1.756253056e-19 -1.07315802e-19)
5(-2.698527934e-19 -2.686864014e-19 -2.28322701e-19 -1.567674643e-19 -8.409021458e-20)
5(-2.894683683e-19 -2.611013802e-19 -2.012505657e-19 -1.214232646e-19 -5.634136203e-20)
5(-2.805473392e-19 -2.254443584e-19 -1.551001732e-19 -8.015415633e-20 -3.157352553e-20)
5(-2.411045443e-19 -1.69565588e-19 -1.01838976e-19 -4.41259851e-20 -1.427640073e-20)
5(-1.798330463e-19 -1.092787508e-19 -5.519544208e-20 -1.964768867e-20 -5.140663796e-21)
5(-1.138207555e-19 -5.833951979e-20 -2.403225567e-20 -6.884539895e-21 -1.378680065e-21)
5(-5.974947993e-20 -2.496716441e-20 -8.053407823e-21 -1.842164143e-21 -2.757714864e-22)
5(-2.486561619e-20 -8.17219737e-21 -2.005060788e-21 -3.50040707e-22 -3.960900218e-23)
5(-7.907637707e-21 -1.920862373e-21 -3.494851329e-22 -4.765247781e-23 -3.838140115e-24)
5(-1.709203617e-21 -2.99715721e-22 -3.929073368e-23 -4.175179995e-24 -2.943739907e-25)
5(-2.311266398e-22 -2.884413057e-23 -2.756159536e-24 -2.450974339e-25 -1.478133642e-26)
5(-1.610561138e-23 -1.522714099e-24 -1.036385307e-25 -8.413093003e-27 -5.249735535e-28)
5(-6.168507562e-25 -3.949263684e-26 -2.273897284e-27 -2.43196205e-29 -1.477634651e-29)
5(-9.470066965e-27 7.69718495e-26 -2.251034658e-28 3.791137852e-26 -2.934664214e-31)
5(-3.985846956e-29 1.796417584e-23 -4.94636258e-26 8.904488174e-24 -9.557991727e-33)
5(-3.192945971e-32 5.251056221e-21 -1.146548088e-23 2.454303043e-21 -3.671737352e-34)
5(-7.252595324e-35 2.156405368e-18 1.628291534e-23 8.210934372e-19 -2.040913334e-36)
5(-1.258382875e-38 -2.951122686e-39 0 -2.009859451e-38 -6.240978876e-38)
)


60
(
5(-3.160902119e-16 -1.306655306e-16 -1.738314501e-16 -8.655248854e-17 -5.336508268e-17)
5(-3.560459152e-16 -2.001391716e-16 -1.549361632e-16 -8.781407367e-17 -4.546258116e-17)
5(-3.830198057e-16 -2.470417082e-16 -1.57249978e-16 -9.33974317e-17 -4.451960111e-17)
5(-4.115324147e-16 -2.718038321e-16 -1.721924237e-16 -1.009301886e-16 -4.760070477e-17)
5(-4.565562673e-16 -2.870382679e-16 -1.916111945e-16 -1.075377887e-16 -5.230133e-17)
5(-4.992542346e-16 -2.950172807e-16 -2.031519158e-16 -1.091426665e-16 -5.475880448e-17)
5(-5.119361262e-16 -2.84585856e-16 -1.967788684e-16 -1.027026961e-16 -5.155513346e-17)
5(-4.875656644e-16 -2.579022571e-16 -1.738419336e-16 -8.76264819e-17 -4.308717522e-17)
5(-4.381482708e-16 -2.118889015e-16 -1.365643286e-16 -6.468718741e-17 -3.089083628e-17)
5(-3.504879512e-16 -1.473544553e-16 -9.176319314e-17 -3.934773963e-17 -1.784552193e-17)
5(-2.368934434e-16 -8.655422668e-17 -5.091645704e-17 -1.913338012e-17 -8.176108107e-18)
5(-1.427494548e-16 -4.479425459e-17 -2.416018614e-17 -8.234590241e-18 -3.199329687e-18)
5(-8.052346625e-17 -2.329963852e-17 -1.145620739e-17 -3.753374823e-18 -1.347659914e-18)
5(-4.684290757e-17 -1.298167974e-17 -5.954039653e-18 -1.913418122e-18 -6.676801314e-19)
5(-2.820249685e-17 -7.698231864e-18 -3.32520987e-18 -1.052564266e-18 -3.530813569e-19)
5(-1.827052737e-17 -4.759189463e-18 -1.950478736e-18 -6.062858373e-19 -1.991227302e-19)
5(-1.236123006e-17 -3.037522963e-18 -1.186473591e-18 -3.604922523e-19 -1.153107191e-19)
5(-8.453677875e-18 -1.99363516e-18 -7.432249864e-19 -2.211426534e-19 -6.975152166e-20)
5(-6.076830278e-18 -1.335381019e-18 -4.757312466e-19 -1.38625564e-19 -4.296004286e-20)
5(-4.427409898e-18 -9.148363692e-19 -3.104404868e-19 -8.865219408e-20 -2.69507218e-20)
5(-3.299739711e-18 -6.357206817e-19 -2.045443648e-19 -5.738451752e-20 -1.729445762e-20)
5(-2.489389171e-18 -4.44597165e-19 -1.36685328e-19 -3.75845318e-20 -1.123311612e-20)
5(-1.916146495e-18 -3.15267316e-19 -9.18986194e-20 -2.472179287e-20 -7.473043106e-21)
5(-1.467480251e-18 -2.256805237e-19 -6.209012063e-20 -1.642735462e-20 -5.062238456e-21)
5(-1.140083468e-18 -1.624811213e-19 -4.197624118e-20 -1.106444968e-20 -3.517802292e-21)
5(-9.053107e-19 -1.170759401e-19 -2.849519814e-20 -7.602818979e-21 -2.620068197e-21)
5(-7.149309487e-19 -8.519308636e-20 -1.95133704e-20 -5.42258404e-21 -2.165017284e-21)
5(-5.784041206e-19 -6.222608065e-20 -1.367337253e-20 -4.176234829e-21 -2.034861683e-21)
5(-4.535320983e-19 -4.586908841e-20 -9.97245217e-21 -3.637775491e-21 -2.272945405e-21)
5(-3.566823729e-19 -3.447753524e-20 -7.858888403e-21 -3.699532321e-21 -2.880005854e-21)
5(-2.832784045e-19 -2.654568732e-20 -7.036577899e-21 -4.416993583e-21 -4.108418022e-21)
5(-2.220039783e-19 -2.144279919e-20 -7.376790074e-21 -5.973595143e-21 -6.221419429e-21)
5(-1.708804562e-19 -1.852256213e-20 -8.917069108e-21 -8.768923319e-21 -9.795612212e-21)
5(-1.343455869e-19 -1.760885304e-20 -1.207321755e-20 -1.343946553e-20 -1.562019511e-20)
5(-1.022041576e-19 -1.901524566e-20 -1.756238942e-20 -2.114372711e-20 -2.516349249e-20)
5(-8.056380045e-20 -2.312900879e-20 -2.655920473e-20 -3.33986369e-20 -3.927102506e-20)
5(-6.662812963e-20 -3.119848379e-20 -4.084269423e-20 -5.198518087e-20 -5.999872005e-20)
5(-5.952333021e-20 -4.496970232e-20 -6.230535929e-20 -7.858160983e-20 -8.758221217e-20)
5(-6.223032025e-20 -6.659111232e-20 -9.292263415e-20 -1.135857936e-19 -1.201786254e-19)
5(-7.410756065e-20 -9.75892604e-20 -1.32887995e-19 -1.546902934e-19 -1.533750363e-19)
5(-9.729033992e-20 -1.390600534e-19 -1.7929422e-19 -1.956951677e-19 -1.781832481e-19)
5(-1.327091863e-19 -1.865766339e-19 -2.240431166e-19 -2.261868817e-19 -1.869291413e-19)
5(-1.765467118e-19 -2.327294575e-19 -2.559025286e-19 -2.350670982e-19 -1.728584522e-19)
5(-2.209994239e-19 -2.65230569e-19 -2.627689361e-19 -2.154060652e-19 -1.394409296e-19)
5(-2.550085327e-19 -2.706255708e-19 -2.382106232e-19 -1.710522114e-19 -9.576786675e-20)
5(-2.642821205e-19 -2.4347101e-19 -1.866644419e-19 -1.152514655e-19 -5.444713953e-20)
5(-2.411359083e-19 -1.897018113e-19 -1.233457988e-19 -6.456909019e-20 -2.532508092e-20)
5(-1.909749468e-19 -1.248539143e-19 -6.715778943e-20 -2.908471926e-20 -9.190983638e-21)
5(-1.269202115e-19 -6.725937426e-20 -2.8884031e-20 -1.021935243e-20 -2.581527151e-21)
5(-6.9528719e-20 -2.862611958e-20 -9.32139002e-21 -2.661433433e-21 -5.309997866e-22)
5(-3.019766159e-20 -9.115806798e-21 -2.215338534e-21 -5.088506527e-22 -7.709975389e-23)
5(-9.692600085e-21 -1.991826802e-21 -3.602275166e-22 -6.315768512e-23 -7.236148137e-24)
5(-2.043750056e-21 -2.863504809e-22 -3.627947389e-23 -5.122291509e-24 -4.906780431e-25)
5(-2.701853222e-22 -2.360243154e-23 -1.96447003e-24 -2.455203992e-25 -2.023556425e-26)
5(-1.942040566e-23 -9.497057201e-25 -5.024177967e-26 -8.758618858e-27 -5.228247517e-28)
5(-5.097775037e-25 -5.354305423e-25 5.50356897e-27 -4.067428293e-25 -1.048170694e-29)
5(-2.229007112e-27 -1.043871923e-22 1.138941784e-24 -7.787733043e-23 -1.388109997e-31)
5(-1.294088419e-29 -2.929821066e-20 2.841819565e-22 -1.998721538e-20 -3.712159033e-33)
5(-1.097506957e-32 -1.393977342e-17 1.030173053e-19 -8.20173331e-18 -3.398447063e-35)
5(-1.572212393e-34 -1.385494665e-15 -1.279045283e-23 -1.049917112e-17 -1.685183864e-37)
)


60
(
5(-6.472617072e-16 -2.705338547e-16 -3.108690842e-16 -1.574366529e-16 -8.777546786e-17)
5(-8.513420409e-16 -4.473460049e-16 -3.147047195e-16 -1.723651894e-16 -8.191744795e-17)
5(-1.002502146e-15 -5.756831592e-16 -3.435554067e-16 -1.912499222e-16 -8.458194748e-17)
5(-1.128411607e-15 -6.551702484e-16 -3.874413669e-16 -2.114928316e-16 -9.244889837e-17)
5(-1.284447013e-15 -7.091324657e-16 -4.336109262e-16 -2.283052004e-16 -1.023630484e-16)
5(-1.433553153e-15 -7.368696587e-16 -4.60656943e-16 -2.345203844e-16 -1.07938546e-16)
5(-1.517754821e-15 -7.284652675e-16 -4.520029621e-16 -2.245242981e-16 -1.03335821e-16)
5(-1.490023566e-15 -6.746721669e-16 -4.067841337e-16 -1.953090015e-16 -8.82115628e-17)
5(-1.361622759e-15 -5.702204103e-16 -3.294520343e-16 -1.499943411e-16 -6.548449604e-17)
5(-1.134774917e-15 -4.228238449e-16 -2.294793265e-16 -9.606526179e-17 -4.066539912e-17)
5(-8.066122649e-16 -2.564019679e-16 -1.315493492e-16 -4.927549196e-17 -1.92776318e-17)
5(-4.915586524e-16 -1.356377294e-16 -6.31882878e-17 -2.135458875e-17 -7.778171707e-18)
5(-2.815946843e-16 -6.942998457e-17 -2.949191944e-17 -9.443153671e-18 -3.202726776e-18)
5(-1.688831981e-16 -3.800423809e-17 -1.502494669e-17 -4.716333517e-18 -1.553762736e-18)
5(-1.028773451e-16 -2.239691155e-17 -8.347247901e-18 -2.579492859e-18 -8.404459792e-19)
5(-6.676177647e-17 -1.386213712e-17 -4.911983511e-18 -1.486027016e-18 -4.789200342e-19)
5(-4.591460247e-17 -8.939789451e-18 -2.986680769e-18 -8.903366007e-19 -2.796625938e-19)
5(-3.235618899e-17 -5.928227881e-18 -1.873780999e-18 -5.514045143e-19 -1.717214196e-19)
5(-2.358622192e-17 -4.037822773e-18 -1.210796742e-18 -3.480566346e-19 -1.073207122e-19)
5(-1.768395901e-17 -2.823506162e-18 -7.967927704e-19 -2.249156386e-19 -6.920615153e-20)
5(-1.349846051e-17 -2.015504647e-18 -5.333303503e-19 -1.474337224e-19 -4.493196463e-20)
5(-1.047328373e-17 -1.46029982e-18 -3.625056636e-19 -9.816614508e-20 -3.007946527e-20)
5(-8.342345243e-18 -1.080604793e-18 -2.500836175e-19 -6.611189142e-20 -2.037135228e-20)
5(-6.783646771e-18 -8.096385852e-19 -1.738352759e-19 -4.485550518e-20 -1.387592986e-20)
5(-5.401619044e-18 -6.15334333e-19 -1.215613232e-19 -3.068380749e-20 -9.747736952e-21)
5(-4.490663852e-18 -4.773540784e-19 -8.596663318e-20 -2.131140299e-20 -7.14286046e-21)
5(-3.614852561e-18 -3.662132668e-19 -6.170344937e-20 -1.514231703e-20 -5.484673317e-21)
5(-2.992561174e-18 -2.875013762e-19 -4.49451651e-20 -1.122028054e-20 -4.621811048e-21)
5(-2.459949875e-18 -2.291529182e-19 -3.329593285e-20 -8.842816963e-21 -4.3616365e-21)
5(-2.068504599e-18 -1.819804104e-19 -2.555244326e-20 -7.663788625e-21 -4.644169295e-21)
5(-1.685007279e-18 -1.438411353e-19 -2.071486132e-20 -7.4333909e-21 -5.555920421e-21)
5(-1.34066136e-18 -1.15645705e-19 -1.787574223e-20 -8.128924887e-21 -7.311767189e-21)
5(-1.064962228e-18 -9.265231793e-20 -1.661389628e-20 -9.800569478e-21 -1.005897155e-20)
5(-8.371253793e-19 -7.568569495e-20 -1.688427539e-20 -1.284401903e-20 -1.462752683e-20)
5(-6.589921875e-19 -6.197475294e-20 -1.888806463e-20 -1.787724282e-20 -2.207055115e-20)
5(-5.029534916e-19 -5.17946897e-20 -2.320769373e-20 -2.608051119e-20 -3.363954617e-20)
5(-3.672813147e-19 -4.66396362e-20 -3.109213047e-20 -3.93062865e-20 -5.166309988e-20)
5(-2.648919133e-19 -4.59122782e-20 -4.450174112e-20 -6.008887481e-20 -7.831458706e-20)
5(-1.862764541e-19 -5.143461338e-20 -6.628164647e-20 -9.071631846e-20 -1.139347261e-19)
5(-1.361050922e-19 -6.727765331e-20 -9.859592125e-20 -1.322198541e-19 -1.56525681e-19)
5(-1.120570353e-19 -9.584928864e-20 -1.42871149e-19 -1.82369991e-19 -2.000673126e-19)
5(-1.11365563e-19 -1.380126537e-19 -1.962220861e-19 -2.329862459e-19 -2.343996729e-19)
5(-1.357524196e-19 -1.916094106e-19 -2.493844978e-19 -2.71117594e-19 -2.455791304e-19)
5(-1.803821424e-19 -2.466429886e-19 -2.883731993e-19 -2.826916652e-19 -2.284677605e-19)
5(-2.327045259e-19 -2.883342616e-19 -2.970273581e-19 -2.591503559e-19 -1.848906781e-19)
5(-2.779521486e-19 -3.010967181e-19 -2.698041781e-19 -2.054639371e-19 -1.280094462e-19)
5(-2.993389634e-19 -2.754104064e-19 -2.102924244e-19 -1.384723575e-19 -7.348349633e-20)
5(-2.833610642e-19 -2.179143764e-19 -1.371944685e-19 -7.692652976e-20 -3.416879183e-20)
5(-2.313178099e-19 -1.449660798e-19 -7.314565195e-20 -3.418048794e-20 -1.240639318e-20)
5(-1.603344474e-19 -7.888349057e-20 -3.071849857e-20 -1.18402723e-20 -3.350546319e-21)
5(-9.135267945e-20 -3.363743664e-20 -9.696568846e-21 -3.008100157e-21 -6.668334179e-22)
5(-4.178391776e-20 -1.051862527e-20 -2.158292964e-21 -5.377737917e-22 -1.02877094e-22)
5(-1.474328088e-20 -2.379498121e-21 -3.165043425e-22 -6.004303998e-23 -7.69689939e-24)
5(-3.574985394e-21 -3.482911652e-22 -2.679079144e-23 -3.97545038e-24 -5.196905928e-25)
5(-4.869990475e-22 -2.644494866e-23 -1.176859017e-24 -1.329298944e-25 -1.584892487e-26)
5(-5.035508971e-23 -1.689840982e-24 -1.727073105e-26 -5.325959448e-25 -1.528613987e-28)
5(-1.844426597e-24 -1.373585578e-22 5.296574646e-25 -8.287900554e-23 -2.189742814e-30)
5(-1.737601361e-26 -3.441771378e-20 9.279482003e-23 -1.680386423e-20 -3.043895163e-32)
5(-9.950607902e-29 -1.283442647e-17 -1.607816354e-22 -4.728889898e-18 -2.485965886e-34)
5(-8.724379707e-29 7.591201535e-19 8.496750322e-27 7.977434712e-21 -3.402632918e-37)
)


60
(
5(-1.208719169e-15 -4.887133756e-16 -5.003151349e-16 -2.574910317e-16 -1.351567032e-16)
5(-1.805149913e-15 -8.544193639e-16 -5.53321872e-16 -2.964662984e-16 -1.35790874e-16)
5(-2.269887267e-15 -1.139248442e-15 -6.340554465e-16 -3.388510876e-16 -1.460056643e-16)
5(-2.656289519e-15 -1.321096738e-15 -7.286980204e-16 -3.805937581e-16 -1.626848615e-16)
5(-3.12000165e-15 -1.454395782e-15 -8.190255426e-16 -4.143409341e-16 -1.805762103e-16)
5(-3.606001448e-15 -1.552644742e-15 -8.725224578e-16 -4.297306436e-16 -1.913385181e-16)
5(-3.855343467e-15 -1.568554619e-15 -8.700077179e-16 -4.172537796e-16 -1.85288416e-16)
5(-3.916749181e-15 -1.485175596e-15 -7.99709087e-16 -3.721225821e-16 -1.626977393e-16)
5(-3.674254828e-15 -1.293290523e-15 -6.678535656e-16 -2.962016152e-16 -1.258946274e-16)
5(-3.174183401e-15 -9.892465522e-16 -4.82238094e-16 -2.002156919e-16 -8.103804706e-17)
5(-2.340999753e-15 -6.400315537e-16 -2.877009786e-16 -1.083958632e-16 -4.154186276e-17)
5(-1.521940519e-15 -3.494508891e-16 -1.425683415e-16 -4.860606388e-17 -1.759308377e-17)
5(-8.74542873e-16 -1.793917995e-16 -6.597885026e-17 -2.09822774e-17 -7.031250061e-18)
5(-5.199662368e-16 -9.785036629e-17 -3.296135002e-17 -1.020036041e-17 -3.330459124e-18)
5(-3.222045578e-16 -5.782250533e-17 -1.820138016e-17 -5.535017578e-18 -1.783688997e-18)
5(-2.137201772e-16 -3.628253989e-17 -1.072849073e-17 -3.197545089e-18 -1.028136969e-18)
5(-1.485841382e-16 -2.369067788e-17 -6.599763757e-18 -1.927217739e-18 -6.100375113e-19)
5(-1.094096746e-16 -1.612714441e-17 -4.207108665e-18 -1.197394641e-18 -3.790870891e-19)
5(-8.023494292e-17 -1.130084554e-17 -2.753800919e-18 -7.656443822e-19 -2.396750472e-19)
5(-6.091722706e-17 -8.160183729e-18 -1.853543381e-18 -5.009705831e-19 -1.584313537e-19)
5(-4.766804329e-17 -6.038966203e-18 -1.275140278e-18 -3.342131915e-19 -1.047964775e-19)
5(-3.762940251e-17 -4.566383782e-18 -8.939946232e-19 -2.270087918e-19 -7.029474993e-20)
5(-3.103019383e-17 -3.536332512e-18 -6.414255932e-19 -1.558928293e-19 -4.820525975e-20)
5(-2.537946047e-17 -2.795580331e-18 -4.671810009e-19 -1.083005663e-19 -3.368039932e-20)
5(-2.088135834e-17 -2.237106372e-18 -3.457325883e-19 -7.637423572e-20 -2.402579579e-20)
5(-1.759024459e-17 -1.808793503e-18 -2.61274042e-19 -5.447974822e-20 -1.753584386e-20)
5(-1.507453987e-17 -1.48486347e-18 -2.001807592e-19 -3.954301587e-20 -1.328197743e-20)
5(-1.268591336e-17 -1.231638099e-18 -1.547910107e-19 -2.961162143e-20 -1.073121961e-20)
5(-1.04469179e-17 -1.020342018e-18 -1.212921457e-19 -2.295325787e-20 -9.198452449e-21)
5(-8.869837485e-18 -8.38874307e-19 -9.742015184e-20 -1.865074492e-20 -8.682054922e-21)
5(-7.414096351e-18 -7.012551868e-19 -7.977906098e-20 -1.626882724e-20 -9.017786595e-21)
5(-6.185978707e-18 -5.866736374e-19 -6.570959597e-20 -1.521161677e-20 -1.012401912e-20)
5(-5.043416459e-18 -4.751018993e-19 -5.534225504e-20 -1.530539703e-20 -1.210407625e-20)
5(-3.979020046e-18 -3.847229224e-19 -4.771736183e-20 -1.651225139e-20 -1.571180096e-20)
5(-3.187835532e-18 -3.07660259e-19 -4.249163908e-20 -1.897493611e-20 -2.075798845e-20)
5(-2.419964198e-18 -2.441357052e-19 -3.922328206e-20 -2.339198818e-20 -2.94321152e-20)
5(-1.854227057e-18 -1.90882806e-19 -3.829783124e-20 -3.125839263e-20 -4.298220542e-20)
5(-1.328593978e-18 -1.450502808e-19 -4.16843964e-20 -4.466213513e-20 -6.44214644e-20)
5(-9.354583331e-19 -1.112364688e-19 -5.146917486e-20 -6.70685943e-20 -9.695785679e-20)
5(-6.243967125e-19 -9.244498927e-20 -7.143419025e-20 -1.018522529e-19 -1.410103141e-19)
5(-4.004746093e-19 -9.004200041e-20 -1.056991003e-19 -1.50598593e-19 -1.928207993e-19)
5(-2.577789225e-19 -1.090718933e-19 -1.561024305e-19 -2.102065373e-19 -2.475979537e-19)
5(-1.894505723e-19 -1.505226858e-19 -2.189950171e-19 -2.708993378e-19 -2.876881243e-19)
5(-1.767706875e-19 -2.101426334e-19 -2.829073799e-19 -3.164194944e-19 -3.00388678e-19)
5(-2.099838976e-19 -2.769673752e-19 -3.293366528e-19 -3.287018725e-19 -2.772814728e-19)
5(-2.678319753e-19 -3.31621511e-19 -3.414913485e-19 -2.99060042e-19 -2.224093181e-19)
5(-3.224950628e-19 -3.527627705e-19 -3.089720887e-19 -2.343118127e-19 -1.507424589e-19)
5(-3.560048549e-19 -3.285558048e-19 -2.385380711e-19 -1.554476841e-19 -8.581940944e-20)
5(-3.45755382e-19 -2.640524795e-19 -1.548887508e-19 -8.468879557e-20 -3.887418867e-20)
5(-2.919681592e-19 -1.794155815e-19 -8.183216211e-20 -3.652217867e-20 -1.36863065e-20)
5(-2.090855831e-19 -9.999146424e-20 -3.383462057e-20 -1.206749732e-20 -3.613623816e-21)
5(-1.260780693e-19 -4.509045931e-20 -1.043638404e-20 -2.882822121e-21 -6.682773701e-22)
5(-6.081392373e-20 -1.485242805e-20 -2.316860143e-21 -4.518350104e-22 -8.142844535e-23)
5(-2.438975106e-20 -3.567500097e-21 -3.158960702e-22 -4.618243926e-23 -6.780775805e-24)
5(-6.453232667e-21 -5.643126244e-22 -2.367580616e-23 -2.383066388e-24 -2.541118917e-25)
5(-1.630199867e-21 -5.01934424e-23 -6.777464761e-25 2.056682334e-25 -4.168743734e-27)
5(-1.703000735e-22 4.984278409e-23 -1.058271478e-24 6.090955506e-23 -2.512095265e-29)
5(-1.482500694e-23 2.13954121e-20 -2.801323525e-22 1.789839668e-20 -3.075087341e-31)
5(-5.958657923e-25 1.369658669e-17 -1.014023002e-19 8.088436555e-18 -1.531255838e-33)
5(-1.372518093e-24 1.355780059e-15 1.254928401e-23 1.032529896e-17 -2.004626756e-17)
)


60
(
5(-2.131615341e-15 -8.049749047e-16 -7.515497347e-16 -3.903444564e-16 -1.99317514e-16)
5(-3.536466656e-15 -1.487190711e-15 -8.867877588e-16 -4.657396463e-16 -2.11834746e-16)
5(-4.709604694e-15 -2.046201787e-15 -1.050793265e-15 -5.445580121e-16 -2.348540586e-16)
5(-5.772607111e-15 -2.423757909e-15 -1.227812701e-15 -6.188350777e-16 -2.647517124e-16)
5(-6.977576176e-15 -2.722219663e-15 -1.387140264e-15 -6.789371506e-16 -2.96000115e-16)
5(-8.257223621e-15 -2.978781758e-15 -1.492216346e-15 -7.107965964e-16 -3.162232214e-16)
5(-9.008113152e-15 -3.081090503e-15 -1.511585351e-15 -7.009846653e-16 -3.092439037e-16)
5(-9.409087828e-15 -3.012419771e-15 -1.41703693e-15 -6.387055066e-16 -2.79771378e-16)
5(-9.019129818e-15 -2.707459571e-15 -1.214656245e-15 -5.258018033e-16 -2.229910963e-16)
5(-8.077897336e-15 -2.166239899e-15 -9.107787879e-16 -3.71425476e-16 -1.503408916e-16)
5(-6.317995061e-15 -1.472864215e-15 -5.730523985e-16 -2.150240447e-16 -8.167323446e-17)
5(-4.257871321e-15 -8.45276071e-16 -2.967808522e-16 -1.002252192e-16 -3.56326086e-17)
5(-2.472266931e-15 -4.438547254e-16 -1.385159939e-16 -4.313148901e-17 -1.49097938e-17)
5(-1.458692473e-15 -2.405318996e-16 -6.836971832e-17 -2.047457027e-17 -6.663642017e-18)
5(-9.168575942e-16 -1.434421559e-16 -3.774872617e-17 -1.102426279e-17 -3.611320608e-18)
5(-6.180065345e-16 -9.156974917e-17 -2.248460086e-17 -6.388961837e-18 -2.047113318e-18)
5(-4.415345444e-16 -6.171871237e-17 -1.410355017e-17 -3.883991937e-18 -1.234872563e-18)
5(-3.180357297e-16 -4.313372797e-17 -9.202743395e-18 -2.438709208e-18 -7.705213457e-19)
5(-2.408898376e-16 -3.110331605e-17 -6.192647575e-18 -1.582589754e-18 -5.032432791e-19)
5(-1.866834475e-16 -2.324361378e-17 -4.317673092e-18 -1.053395377e-18 -3.279160502e-19)
5(-1.495415371e-16 -1.774469532e-17 -3.081638506e-18 -7.18254083e-19 -2.229855377e-19)
5(-1.197913423e-16 -1.403155946e-17 -2.271828079e-18 -4.997081426e-19 -1.539187407e-19)
5(-9.728273044e-17 -1.126447355e-17 -1.710501293e-18 -3.535788722e-19 -1.065105951e-19)
5(-8.234628512e-17 -9.171464403e-18 -1.315961553e-18 -2.547124787e-19 -7.614384842e-20)
5(-6.993463892e-17 -7.618484555e-18 -1.034938224e-18 -1.857890564e-19 -5.522992566e-20)
5(-5.825031453e-17 -6.412271213e-18 -8.245475288e-19 -1.37687162e-19 -4.062202342e-20)
5(-5.043331041e-17 -5.412231916e-18 -6.69069344e-19 -1.044770867e-19 -3.082466714e-20)
5(-4.261859232e-17 -4.627978914e-18 -5.500839831e-19 -8.105852583e-20 -2.443324842e-20)
5(-3.718460562e-17 -3.931351429e-18 -4.584623765e-19 -6.439789323e-20 -2.009290462e-20)
5(-3.160125295e-17 -3.365522313e-18 -3.851059832e-19 -5.247195689e-20 -1.789004171e-20)
5(-2.783183876e-17 -2.89578779e-18 -3.260750688e-19 -4.443566849e-20 -1.676470585e-20)
5(-2.238162513e-17 -2.442538598e-18 -2.72784069e-19 -3.874483613e-20 -1.682135281e-20)
5(-1.866929744e-17 -2.054107161e-18 -2.280694853e-19 -3.511653551e-20 -1.778142704e-20)
5(-1.55430014e-17 -1.706568029e-18 -1.929548333e-19 -3.276757811e-20 -1.99692356e-20)