/*--------------------------------*- C++ -*----------------------------------*\
| =========                 |                                                 |
| \\      /  F ield         | OpenFOAM: The Open Source CFD Toolbox           |
|  \\    /   O peration     | Version:  2.3.1                                 |
|   \\  /    A nd           | Web:      www.OpenFOAM.org                      |
|    \\/     M anipulation  |                                                 |
\*---------------------------------------------------------------------------*/
FoamFile
{
    version     2.0;
    format      ascii;
    class       dictionary;
    location    "constant";
    object      DPSI14;
}
// * * * * * * * * * * * * * * * * * * * * * * * * * * * * * * * * * * * * * //

DPSI14_table
60
(

60
(
5(1.502345535e-17 1.159843136e-17 2.152698054e-17 1.124039106e-17 2.253898005e-17)
5(-4.151055359e-15 4.335083994e-18 1.593641173e-17 9.050710194e-18 1.648511925e-17)
5(-1.213030321e-14 -2.712483214e-18 4.777456942e-18 5.288615859e-18 3.267092693e-18)
5(-1.10892932e-14 -1.145752409e-18 -1.419897513e-18 -3.493112396e-19 -1.241703166e-18)
5(-1.991711564e-16 -2.918829307e-19 1.856836701e-18 -3.696307432e-18 2.20601916e-19)
5(1.919086945e-14 -6.630989481e-19 1.244011931e-18 -3.773948921e-19 -3.346121744e-18)
5(1.68148958e-14 -2.021949828e-18 -6.463529484e-18 -1.105590835e-18 1.614969129e-19)
5(-2.014190007e-14 -4.582134656e-18 -8.285224902e-18 -3.742691564e-18 1.461897584e-18)
5(-3.687345429e-14 -3.254443788e-17 -1.239097597e-17 -3.839243744e-18 -4.249317754e-18)
5(-2.027612805e-14 -5.615970355e-17 -1.31678132e-17 -6.804978357e-18 -4.339243239e-18)
5(2.699424771e-14 1.416888716e-17 -4.013295226e-18 -7.746466746e-18 -5.545275264e-18)
5(4.573085375e-14 3.094279503e-17 -5.383000765e-18 -1.292186682e-17 -8.038166752e-18)
5(1.381998484e-14 -2.767838306e-17 -1.975972692e-17 -1.486228544e-17 -9.44702895e-18)
5(-2.804185402e-17 -3.291510881e-17 -2.818339054e-17 -2.227332499e-17 -1.241227809e-17)
5(-1.16732143e-15 -1.715256299e-16 -8.817554583e-17 -5.764640971e-17 -2.53378006e-17)
5(-1.112822591e-15 -1.855574257e-16 -1.419083829e-16 -6.327765256e-17 -3.876830955e-17)
5(6.917524881e-16 -5.721864223e-17 -4.928705388e-17 -6.755876001e-17 -5.522556991e-17)
5(1.004519179e-15 -6.692260515e-17 -5.601323771e-17 -1.12733776e-16 -1.181949419e-16)
5(2.789085296e-16 -1.461643875e-16 -2.14407353e-16 -2.110590562e-16 -1.554127599e-16)
5(-2.454419472e-16 -2.851955522e-16 -2.954928072e-16 -3.090057181e-16 -1.469769227e-16)
5(-3.479616711e-16 -4.427664468e-16 -5.075559465e-16 -2.996815165e-16 -1.891080198e-16)
5(-5.807624191e-16 -7.416246036e-16 -7.682278641e-16 -6.439588286e-16 -4.714717988e-16)
5(-8.456366317e-16 -1.314066337e-15 -1.098923005e-15 -1.20098082e-15 -8.249188525e-16)
5(-1.443692717e-15 -2.744011298e-15 -1.949708298e-15 -2.038857717e-15 -1.412849367e-15)
5(-2.310086094e-15 -5.44530549e-15 -3.705165362e-15 -3.898943155e-15 -2.479695594e-15)
5(-3.507850974e-15 -6.583378411e-15 -5.731102718e-15 -6.833757409e-15 -4.331776464e-15)
5(-5.781373836e-15 -6.818142187e-15 -1.004363829e-14 -1.168167719e-14 -7.59769756e-15)
5(-1.081880026e-14 -1.43828341e-14 -1.716435721e-14 -1.913145897e-14 -1.357049602e-14)
5(-1.871028144e-14 -2.956425877e-14 -2.856325366e-14 -2.926627519e-14 -2.186681871e-14)
5(-3.252714755e-14 -5.127363821e-14 -5.245735848e-14 -5.340901273e-14 -3.644897313e-14)
5(-5.526676989e-14 -8.147715247e-14 -8.115918181e-14 -7.65667642e-14 -4.037396626e-14)
5(-8.960604146e-14 -1.333834962e-13 -1.310033023e-13 -1.131282054e-13 -8.332769308e-14)
5(-1.487285997e-13 -2.186580926e-13 -2.223242141e-13 -1.661348868e-13 -8.453995853e-14)
5(-2.399260122e-13 -3.158206105e-13 -3.091213881e-13 -2.199439943e-13 -6.720597822e-14)
5(-3.619731336e-13 -4.835482899e-13 -4.97137874e-13 -2.900107835e-13 -1.122811565e-13)
5(-5.220715551e-13 -5.718192627e-13 -4.44102723e-13 -2.399593753e-13 -1.210022412e-13)
5(-7.096965399e-13 -7.439265058e-13 -3.996337355e-13 -2.390288139e-13 1.122788316e-13)
5(-9.377450999e-13 -9.040241893e-13 -6.43043978e-13 -1.637950633e-13 1.005183647e-14)
5(-1.249913837e-12 -8.918670661e-13 -7.20105331e-13 -1.590133718e-14 1.770409732e-13)
5(-1.327636827e-12 -6.132223052e-13 -1.105981243e-13 1.589425492e-13 3.438632927e-13)
5(-1.014875606e-12 -1.956728976e-13 5.004948854e-13 4.419469637e-13 1.692487408e-15)
5(-6.659641001e-13 3.658866747e-13 7.198534839e-13 7.367519701e-13 2.949128588e-15)
5(-2.618702042e-13 6.784983217e-13 2.137564993e-13 4.739759609e-13 -7.678436838e-15)
5(3.710049676e-13 9.422583719e-13 3.794631784e-13 -3.042652814e-30 -5.3968666e-16)
5(1.326658767e-12 1.175529103e-12 1.218620056e-12 -1.119091905e-29 7.863105086e-15)
5(1.913256042e-12 1.048069159e-12 7.353320983e-13 -1.786328128e-15 5.525949037e-16)
5(1.553076663e-12 9.998640995e-13 2.14587487e-13 1.284513979e-19 -4.507551484e-28)
5(1.385521872e-12 4.88644448e-13 6.012526635e-14 1.826015563e-15 -1.381104371e-27)
5(1.130993892e-12 8.132473836e-14 1.317681209e-14 -9.97159192e-28 -3.932664309e-27)
5(4.75117474e-13 3.601130191e-14 1.4122058e-15 -2.820041436e-27 -1.088859276e-26)
5(1.981258952e-13 7.10043692e-16 -1.491304624e-27 -7.656837724e-27 -2.917403626e-26)
5(7.772884926e-14 -8.111375226e-28 -4.025444466e-27 -2.016175677e-26 -7.588598879e-26)
5(1.514479369e-14 -2.134105521e-27 -1.057627205e-26 -5.108658072e-26 -1.918933883e-25)
5(1.416644875e-16 -5.462695226e-27 -2.687073915e-26 -1.267055576e-25 -4.681234734e-25)
5(-1.150312475e-26 -1.357874382e-26 -6.645462227e-26 -3.014042051e-25 -1.103578189e-24)
5(-4.66387161e-26 -3.329348746e-26 -1.607462765e-25 -6.951244055e-25 -2.454831034e-24)
5(-7.257425269e-26 -1.658657593e-25 -3.850422918e-25 -1.547928962e-24 -5.227171431e-24)
5(-7.071115583e-26 -3.835489363e-25 -1.305050633e-24 -2.097735517e-24 -1.059266911e-23)
5(-7.531826634e-26 -6.492537563e-25 -3.45777748e-24 -1.659192009e-23 -4.589217946e-23)
5(-8.312114306e-26 -8.222855719e-25 -4.886425283e-24 -3.160395597e-23 -7.858657923e-23)
)


60
(
5(1.575539759e-17 -1.67811209e-18 3.049504996e-17 1.384267803e-17 4.011963401e-17)
5(1.047357948e-17 -3.886472937e-18 2.019574821e-17 8.177514319e-18 2.67350553e-17)
5(-4.011539848e-19 -9.063464865e-18 7.460025721e-19 -3.938290633e-18 3.25301592e-18)
5(-1.110077656e-17 -1.645236759e-17 -1.464643316e-17 -1.600525292e-17 -1.332883832e-17)
5(-2.258650002e-17 -2.666506982e-17 -2.965646784e-17 -2.988935415e-17 -3.101937934e-17)
5(-3.335125813e-17 -3.935008021e-17 -4.270795386e-17 -4.428242819e-17 -4.661097608e-17)
5(-4.467344854e-17 -5.589672141e-17 -5.609093657e-17 -6.11119238e-17 -5.966817654e-17)
5(-6.054874744e-17 -7.950593739e-17 -7.590842645e-17 -8.614549674e-17 -7.938532148e-17)
5(-8.442355883e-17 -1.13213046e-16 -1.089752284e-16 -1.238532018e-16 -1.17314316e-16)
5(-1.250178612e-16 -1.60609697e-16 -1.610698085e-16 -1.788133415e-16 -1.723633863e-16)
5(-1.789987805e-16 -2.274747585e-16 -2.341753985e-16 -2.551265871e-16 -2.435776085e-16)
5(-2.495389095e-16 -3.195785885e-16 -3.315366794e-16 -3.58310247e-16 -3.445035968e-16)
5(-3.519208041e-16 -4.446538642e-16 -4.615699795e-16 -4.951601768e-16 -4.719596575e-16)
5(-4.895329804e-16 -6.174863026e-16 -6.377513364e-16 -6.810144374e-16 -6.394985135e-16)
5(-6.720391815e-16 -8.521690049e-16 -8.797921178e-16 -9.383479568e-16 -8.847755707e-16)
5(-9.46281754e-16 -1.173898502e-15 -1.218033046e-15 -1.299622439e-15 -1.238955808e-15)
5(-1.318495826e-15 -1.627249908e-15 -1.694736085e-15 -1.813251026e-15 -1.722687672e-15)
5(-1.812841703e-15 -2.263416381e-15 -2.36886402e-15 -2.549324307e-15 -2.42817976e-15)
5(-2.51404718e-15 -3.153034044e-15 -3.323120564e-15 -3.61933515e-15 -3.47020732e-15)
5(-3.51572921e-15 -4.428576063e-15 -4.716126563e-15 -5.206690976e-15 -5.089658454e-15)
5(-4.952001855e-15 -6.281103636e-15 -6.792570721e-15 -7.607758352e-15 -7.533063203e-15)
5(-6.935287025e-15 -9.04307447e-15 -9.927518745e-15 -1.134564536e-14 -1.137877345e-14)
5(-9.810575908e-15 -1.328617518e-14 -1.486226822e-14 -1.739655386e-14 -1.77009317e-14)
5(-1.442369502e-14 -1.990051981e-14 -2.275831052e-14 -2.733123561e-14 -2.832292209e-14)
5(-2.13628505e-14 -3.055389127e-14 -3.57381413e-14 -4.405664381e-14 -4.652181967e-14)
5(-3.23809241e-14 -4.804688952e-14 -5.763727321e-14 -7.251183997e-14 -7.741945458e-14)
5(-5.048573798e-14 -7.730908659e-14 -9.471312702e-14 -1.206216303e-13 -1.287340629e-13)
5(-8.073843295e-14 -1.264713615e-13 -1.574771438e-13 -2.012993267e-13 -2.156031797e-13)
5(-1.304859274e-13 -2.0812799e-13 -2.623745353e-13 -3.344195092e-13 -3.59049282e-13)
5(-2.144304709e-13 -3.421177632e-13 -4.346637268e-13 -5.48482204e-13 -5.829295921e-13)
5(-3.524171776e-13 -5.579988298e-13 -7.072861855e-13 -8.793273184e-13 -9.227311539e-13)
5(-5.712808067e-13 -8.923114272e-13 -1.126159884e-12 -1.369454954e-12 -1.420833151e-12)
5(-9.125173055e-13 -1.394893556e-12 -1.743578365e-12 -2.061957093e-12 -2.080343339e-12)
5(-1.430168592e-12 -2.124082991e-12 -2.61114539e-12 -2.975672105e-12 -2.908695231e-12)
5(-2.181069073e-12 -3.117194059e-12 -3.751830635e-12 -4.094066548e-12 -3.854823444e-12)
5(-3.22012416e-12 -4.391945126e-12 -5.137894383e-12 -5.323360133e-12 -4.786197796e-12)
5(-4.556377021e-12 -5.915490943e-12 -6.655731965e-12 -6.483044626e-12 -5.501995962e-12)
5(-6.159500637e-12 -7.509704922e-12 -8.052875706e-12 -7.274242062e-12 -5.596765346e-12)
5(-7.890106684e-12 -8.949760307e-12 -8.955162542e-12 -7.272235443e-12 -4.594037913e-12)
5(-9.453147659e-12 -9.766135841e-12 -8.848834965e-12 -6.09278808e-12 -2.313863897e-12)
5(-1.035913497e-11 -9.534269786e-12 -7.426755184e-12 -3.471226769e-12 8.873642088e-13)
5(-1.017161048e-11 -7.764430222e-12 -4.456625733e-12 5.057619648e-13 4.16564325e-12)
5(-8.414533754e-12 -4.10163213e-12 -4.693263782e-14 5.043686962e-12 6.591045647e-12)
5(-4.674416409e-12 8.016236721e-13 5.108331457e-12 8.842681904e-12 7.654838278e-12)
5(6.856644126e-13 6.161957711e-12 9.906633655e-12 1.071478429e-11 7.259589851e-12)
5(6.609751373e-12 1.094324479e-11 1.301972038e-11 1.026067652e-11 5.699076597e-12)
5(1.185032822e-11 1.385625096e-11 1.341206925e-11 8.114591852e-12 3.686209717e-12)
5(1.492007198e-11 1.415321092e-11 1.114378964e-11 5.365231147e-12 1.953483969e-12)
5(1.512348243e-11 1.198202814e-11 7.53307788e-12 2.945069904e-12 8.505832193e-13)
5(1.264190018e-11 8.343042901e-12 4.152836732e-12 1.319437442e-12 3.105286483e-13)
5(8.659435026e-12 4.643552282e-12 1.860895137e-12 4.778888112e-13 9.922396954e-14)
5(4.754910188e-12 2.03241981e-12 6.52184645e-13 1.474472712e-13 2.790373255e-14)
5(1.983785244e-12 6.913283568e-13 1.863897967e-13 3.914528422e-14 7.064982235e-15)
5(6.489235561e-13 1.808654453e-13 4.429546907e-14 9.054071495e-15 1.593881187e-15)
5(1.407488038e-13 3.43193783e-14 8.131903886e-15 1.783154133e-15 3.203476079e-16)
5(2.077625433e-14 5.247657447e-15 1.215029116e-15 2.853806134e-16 5.185347183e-17)
5(1.805418886e-15 4.870641569e-16 1.383969845e-16 3.357442756e-17 6.715019961e-18)
5(1.046597271e-16 3.678433132e-17 7.974473944e-18 2.772940925e-18 4.966235002e-19)
5(2.997976422e-18 1.133126432e-18 -1.626799964e-15 1.921862362e-19 1.699004186e-20)
5(2.556750842e-20 -2.41682847e-19 -3.260803848e-15 -3.1411183e-19 1.768863036e-22)
)


60
(
5(1.302175311e-17 -1.493027686e-17 4.336113916e-17 1.813364899e-17 6.509640171e-17)
5(5.89419268e-18 -1.989147303e-17 2.530107715e-17 5.806705565e-18 4.080435221e-17)
5(-1.207634576e-17 -3.138477775e-17 -1.251828073e-17 -2.229176273e-17 -7.910377633e-18)
5(-3.527540815e-17 -5.073694067e-17 -4.960722527e-17 -5.549480557e-17 -5.102331192e-17)
5(-6.537916115e-17 -8.074922639e-17 -9.177365223e-17 -9.727644326e-17 -1.025195459e-16)
5(-9.950844601e-17 -1.210418772e-16 -1.357792154e-16 -1.449009299e-16 -1.545587777e-16)
5(-1.382369371e-16 -1.746546599e-16 -1.85029705e-16 -2.037398371e-16 -2.056385937e-16)
5(-1.899086794e-16 -2.503835624e-16 -2.557023558e-16 -2.876478734e-16 -2.805385541e-16)
5(-2.732504492e-16 -3.589917143e-16 -3.674526108e-16 -4.104780733e-16 -3.928246651e-16)
5(-4.008452498e-16 -5.136042113e-16 -5.34020109e-16 -5.834602422e-16 -5.589145301e-16)
5(-5.824908167e-16 -7.256820144e-16 -7.625112148e-16 -8.156248045e-16 -7.860802161e-16)
5(-8.134675405e-16 -1.006887466e-15 -1.062774875e-15 -1.116073104e-15 -1.066073517e-15)
5(-1.122528034e-15 -1.386225664e-15 -1.454160443e-15 -1.507074533e-15 -1.412181766e-15)
5(-1.565788239e-15 -1.901262126e-15 -1.975641187e-15 -2.025385112e-15 -1.890607488e-15)
5(-2.196997143e-15 -2.598019995e-15 -2.679646531e-15 -2.723555136e-15 -2.539953663e-15)
5(-2.972362212e-15 -3.526956542e-15 -3.625645775e-15 -3.664818917e-15 -3.413530894e-15)
5(-3.999848199e-15 -4.77244262e-15 -4.894873517e-15 -4.94491152e-15 -4.65579447e-15)
5(-5.479119322e-15 -6.438453422e-15 -6.615447638e-15 -6.726134549e-15 -6.398908459e-15)
5(-7.434951917e-15 -8.682539653e-15 -8.977975675e-15 -9.208257292e-15 -8.81863927e-15)
5(-1.010867394e-14 -1.171987787e-14 -1.224019247e-14 -1.270004179e-14 -1.227204178e-14)
5(-1.361489309e-14 -1.588184885e-14 -1.6792219e-14 -1.770013581e-14 -1.766503648e-14)
5(-1.824884583e-14 -2.170328596e-14 -2.320087115e-14 -2.495601545e-14 -2.54249934e-14)
5(-2.492317129e-14 -2.992217899e-14 -3.253246999e-14 -3.588143225e-14 -3.711509101e-14)
5(-3.416761989e-14 -4.178911093e-14 -4.658537692e-14 -5.287811014e-14 -5.597882379e-14)
5(-4.694003051e-14 -5.949843502e-14 -6.829325536e-14 -8.013716818e-14 -8.669798408e-14)
5(-6.59112523e-14 -8.662179713e-14 -1.025510131e-13 -1.23856854e-13 -1.371837364e-13)
5(-9.513455567e-14 -1.290012553e-13 -1.572579282e-13 -1.955696977e-13 -2.194609387e-13)
5(-1.385583168e-13 -1.969982609e-13 -2.4708776e-13 -3.137037746e-13 -3.572286117e-13)
5(-2.085251544e-13 -3.066378149e-13 -3.949959311e-13 -5.068959589e-13 -5.85892116e-13)
5(-3.195523249e-13 -4.83269012e-13 -6.334163977e-13 -8.168843175e-13 -9.341345052e-13)
5(-4.958813917e-13 -7.65772418e-13 -1.011429448e-12 -1.300304754e-12 -1.477182605e-12)
5(-7.788497445e-13 -1.204621449e-12 -1.598346462e-12 -2.030538585e-12 -2.277525691e-12)
5(-1.219126429e-12 -1.869387018e-12 -2.474528551e-12 -3.075616073e-12 -3.403253558e-12)
5(-1.877284067e-12 -2.843001477e-12 -3.722630302e-12 -4.508252516e-12 -4.868441466e-12)
5(-2.84646632e-12 -4.206830991e-12 -5.415935369e-12 -6.365613138e-12 -6.679326965e-12)
5(-4.238469148e-12 -6.014161816e-12 -7.575038558e-12 -8.576811331e-12 -8.707271785e-12)
5(-5.991169621e-12 -8.269144882e-12 -1.010080694e-11 -1.094178688e-11 -1.059894355e-11)
5(-8.236785974e-12 -1.086659982e-11 -1.272321014e-11 -1.306929489e-11 -1.183023819e-11)
5(-1.082087819e-11 -1.347256518e-11 -1.500452519e-11 -1.436127745e-11 -1.171013735e-11)
5(-1.332955817e-11 -1.559133229e-11 -1.628658254e-11 -1.408402913e-11 -9.479272005e-12)
5(-1.547881444e-11 -1.658549948e-11 -1.571976993e-11 -1.15213245e-11 -5.071426719e-12)
5(-1.638297878e-11 -1.558896281e-11 -1.265092255e-11 -6.273504503e-12 8.361166224e-13)
5(-1.521744117e-11 -1.196330858e-11 -6.880909583e-12 1.231843045e-12 7.230858891e-12)
5(-1.1557835e-11 -5.586404679e-12 1.295919109e-12 9.456487835e-12 1.268007317e-11)
5(-5.190977013e-12 2.849104887e-12 1.05586445e-11 1.634091654e-11 1.595472972e-11)
5(3.377051043e-12 1.17933227e-11 1.881191641e-11 2.020690935e-11 1.624058747e-11)
5(1.24164113e-11 1.951147781e-11 2.368859833e-11 2.022975645e-11 1.380313855e-11)
5(1.982426239e-11 2.401029485e-11 2.383244121e-11 1.68847455e-11 9.860951413e-12)
5(2.391089522e-11 2.399249237e-11 1.979955592e-11 1.19405548e-11 5.859463405e-12)
5(2.352997767e-11 1.995141993e-11 1.363331948e-11 7.061335487e-12 2.89837609e-12)
5(1.927482989e-11 1.369888022e-11 7.774072027e-12 3.406212584e-12 1.178196983e-12)
5(1.298597035e-11 7.573693381e-12 3.57475138e-12 1.356650543e-12 3.9306986e-13)
5(6.897891138e-12 3.278323029e-12 1.28461772e-12 4.264890061e-13 1.144530008e-13)
5(2.759677361e-12 1.080148647e-12 3.566325721e-13 1.085734894e-13 2.780928757e-14)
5(7.763498884e-13 2.577626941e-13 7.173713585e-14 2.119232599e-14 5.605073993e-15)
5(1.503939392e-13 4.273709442e-14 1.097640828e-14 3.479597811e-15 9.810497296e-16)
5(1.666415937e-14 4.695524677e-15 1.118428986e-15 4.245609939e-16 1.196701349e-16)
5(1.067048804e-15 1.921562323e-15 7.739238039e-17 1.119346458e-15 9.021285653e-18)
5(2.054649221e-17 7.818151764e-20 -3.557955352e-15 -3.956832078e-18 3.764823889e-19)
5(2.527581481e-19 -3.368622378e-15 -7.1219861e-15 -2.196327491e-15 3.864537851e-21)
)


60
(
5(8.320102433e-19 -4.398013196e-17 5.212100169e-17 1.75142307e-17 9.270092813e-17)
5(-1.036581016e-17 -5.449881938e-17 2.141044277e-17 -7.498133567e-18 5.048245792e-17)
5(-3.887169638e-17 -7.773411478e-17 -4.780237443e-17 -6.586677251e-17 -3.892004983e-17)
5(-8.394400364e-17 -1.199712317e-16 -1.262775123e-16 -1.400827911e-16 -1.326085913e-16)
5(-1.502483573e-16 -1.894120135e-16 -2.211785647e-16 -2.373680775e-16 -2.520411166e-16)
5(-2.286124272e-16 -2.849994719e-16 -3.286980371e-16 -3.56475601e-16 -3.789171035e-16)
5(-3.201226523e-16 -4.142544363e-16 -4.578093135e-16 -5.054019721e-16 -5.074231581e-16)
5(-4.512601135e-16 -5.968231055e-16 -6.378441041e-16 -7.092141923e-16 -6.886430238e-16)
5(-6.569682687e-16 -8.561295565e-16 -9.093624904e-16 -9.998294656e-16 -9.603135138e-16)
5(-9.538688147e-16 -1.216555308e-15 -1.301586864e-15 -1.401185777e-15 -1.343669709e-15)
5(-1.364366441e-15 -1.704827046e-15 -1.834224071e-15 -1.926464166e-15 -1.828901424e-15)
5(-1.925986686e-15 -2.356664034e-15 -2.529864443e-15 -2.59298364e-15 -2.432913878e-15)
5(-2.641467809e-15 -3.220498315e-15 -3.413089771e-15 -3.443376147e-15 -3.213906409e-15)
5(-3.613360692e-15 -4.359472233e-15 -4.555981658e-15 -4.552498129e-15 -4.170217461e-15)
5(-4.955338454e-15 -5.843905825e-15 -6.065402248e-15 -6.017561003e-15 -5.482444845e-15)
5(-6.777353568e-15 -7.82154308e-15 -8.082209173e-15 -7.964993e-15 -7.304038977e-15)
5(-9.038706769e-15 -1.046135288e-14 -1.077718598e-14 -1.059173912e-14 -9.743545974e-15)
5(-1.221706862e-14 -1.388115845e-14 -1.430282868e-14 -1.415343515e-14 -1.32125382e-14)
5(-1.615862951e-14 -1.839120919e-14 -1.900010955e-14 -1.892687054e-14 -1.786610935e-14)
5(-2.133179869e-14 -2.444135892e-14 -2.527694627e-14 -2.535609433e-14 -2.425394503e-14)
5(-2.915244889e-14 -3.231693511e-14 -3.368528889e-14 -3.423816842e-14 -3.39993522e-14)
5(-3.869232397e-14 -4.282049967e-14 -4.528345927e-14 -4.653410358e-14 -4.68642954e-14)
5(-4.914274259e-14 -5.714894225e-14 -6.13226854e-14 -6.391105037e-14 -6.549676022e-14)
5(-6.530603231e-14 -7.658969152e-14 -8.329954696e-14 -8.935405286e-14 -9.336360288e-14)
5(-8.787574391e-14 -1.03177684e-13 -1.148101194e-13 -1.273012537e-13 -1.364407591e-13)
5(-1.168636571e-13 -1.407384374e-13 -1.619156636e-13 -1.853985263e-13 -2.055491751e-13)
5(-1.572747696e-13 -1.960976902e-13 -2.331108874e-13 -2.762134437e-13 -3.132949196e-13)
5(-2.159698313e-13 -2.798373157e-13 -3.436286958e-13 -4.206020015e-13 -4.863000815e-13)
5(-3.023305805e-13 -4.082934538e-13 -5.18857285e-13 -6.512861702e-13 -7.651138485e-13)
5(-4.311445669e-13 -6.077834233e-13 -7.969942344e-13 -1.018086323e-12 -1.21133671e-12)
5(-6.316090479e-13 -9.200739985e-13 -1.233135842e-12 -1.590799485e-12 -1.897916294e-12)
5(-9.405084055e-13 -1.401644368e-12 -1.906194355e-12 -2.461829212e-12 -2.920882054e-12)
5(-1.409279887e-12 -2.133865174e-12 -2.9168041e-12 -3.731196145e-12 -4.365956482e-12)
5(-2.120539833e-12 -3.216585681e-12 -4.381051717e-12 -5.515856725e-12 -6.376358463e-12)
5(-3.154359908e-12 -4.752595268e-12 -6.406310256e-12 -7.90504856e-12 -8.879458727e-12)
5(-4.619373425e-12 -6.830028429e-12 -9.071745217e-12 -1.087853789e-11 -1.186563331e-11)
5(-6.651922804e-12 -9.519606324e-12 -1.234489536e-11 -1.429439106e-11 -1.512147597e-11)
5(-9.224054372e-12 -1.275619336e-11 -1.602430493e-11 -1.778254683e-11 -1.784378424e-11)
5(-1.223676861e-11 -1.628776004e-11 -1.966494521e-11 -2.066570343e-11 -1.919474322e-11)
5(-1.557111026e-11 -1.968426064e-11 -2.247202564e-11 -2.202237642e-11 -1.812701323e-11)
5(-1.867190857e-11 -2.214574042e-11 -2.346183061e-11 -2.071683454e-11 -1.411909377e-11)
5(-2.08673245e-11 -2.265799944e-11 -2.160756735e-11 -1.580259385e-11 -7.019049975e-12)
5(-2.123342866e-11 -2.025925084e-11 -1.610156018e-11 -7.102254689e-12 2.300326749e-12)
5(-1.888547251e-11 -1.429714156e-11 -6.728608158e-12 4.265445683e-12 1.215410454e-11)
5(-1.319179407e-11 -4.847609911e-12 5.67760158e-12 1.605746982e-11 2.093616149e-11)
5(-4.108155449e-12 6.915922515e-12 1.88128462e-11 2.558678046e-11 2.617205885e-11)
5(6.951395003e-12 1.90220806e-11 2.928814033e-11 3.080978547e-11 2.664563132e-11)
5(1.814320426e-11 2.889097967e-11 3.45547384e-11 3.067027628e-11 2.277747563e-11)
5(2.715441525e-11 3.3831609e-11 3.37295966e-11 2.573327691e-11 1.639915212e-11)
5(3.159166179e-11 3.269595216e-11 2.723633656e-11 1.807954685e-11 9.991908697e-12)
5(3.064066101e-11 2.65256147e-11 1.815597609e-11 1.057693381e-11 5.042039349e-12)
5(2.516773716e-11 1.762590301e-11 1.006261332e-11 5.136343534e-12 2.074595636e-12)
5(1.695421864e-11 9.307023459e-12 4.475355565e-12 1.95340697e-12 6.792840707e-13)
5(8.85000985e-12 3.8640876e-12 1.521102825e-12 5.903477932e-13 1.852474483e-13)
5(3.487989752e-12 1.178925025e-12 3.694963583e-13 1.355009712e-13 3.994770215e-14)
5(9.986643257e-13 2.440471636e-13 6.09596724e-14 2.229282717e-14 6.739591223e-15)
5(1.613800712e-13 3.044752451e-14 6.878126347e-15 2.515187626e-15 9.029665489e-16)
5(1.086607418e-14 -8.15416592e-15 5.121859885e-16 -1.020216615e-14 6.455412581e-17)
5(7.134529988e-16 1.170121161e-16 1.35197239e-17 4.431852609e-17 2.475984454e-18)
5(1.580259696e-17 2.150967419e-14 -2.172063266e-16 2.092769225e-14 4.566844551e-20)
)


60
(
5(-2.694380204e-17 -9.605314875e-17 4.953122998e-17 5.395187306e-18 1.144359997e-16)
5(-4.444389856e-17 -1.160719899e-16 -4.062517384e-19 -4.054235387e-17 4.660096101e-17)
5(-8.881609252e-17 -1.584343399e-16 -1.17763436e-16 -1.489211285e-16 -1.039586102e-16)
5(-1.66317408e-16 -2.38144558e-16 -2.641616659e-16 -2.923094863e-16 -2.817493934e-16)
5(-2.885317793e-16 -3.747335667e-16 -4.481390294e-16 -4.843943244e-16 -5.14747278e-16)
5(-4.41971439e-16 -5.64885539e-16 -6.663262862e-16 -7.246036554e-16 -7.723967958e-16)
5(-6.287887384e-16 -8.226380247e-16 -9.367828546e-16 -1.030008851e-15 -1.039916623e-15)
5(-8.918282011e-16 -1.182393667e-15 -1.304949826e-15 -1.442865587e-15 -1.404798799e-15)
5(-1.288146725e-15 -1.684156195e-15 -1.84357414e-15 -2.011669288e-15 -1.928152144e-15)
5(-1.860918368e-15 -2.38195497e-15 -2.610762291e-15 -2.777622396e-15 -2.662333406e-15)
5(-2.662395816e-15 -3.31620327e-15 -3.631705961e-15 -3.764680243e-15 -3.573998259e-15)
5(-3.699697203e-15 -4.544749755e-15 -4.931561243e-15 -5.009111412e-15 -4.684811584e-15)
5(-5.121167655e-15 -6.14345684e-15 -6.578853937e-15 -6.576796938e-15 -6.037724909e-15)
5(-6.91187235e-15 -8.219138747e-15 -8.690831403e-15 -8.588448672e-15 -7.823202418e-15)
5(-9.220740114e-15 -1.09098746e-14 -1.144179201e-14 -1.122574449e-14 -1.024261367e-14)
5(-1.254835182e-14 -1.442989892e-14 -1.503365855e-14 -1.469665994e-14 -1.343583988e-14)
5(-1.672153354e-14 -1.904741585e-14 -1.9717696e-14 -1.927459359e-14 -1.766026875e-14)
5(-2.205252981e-14 -2.501705863e-14 -2.58836002e-14 -2.533476962e-14 -2.348976284e-14)
5(-2.918511882e-14 -3.281987353e-14 -3.402470506e-14 -3.344671788e-14 -3.159181895e-14)
5(-3.838996302e-14 -4.296412203e-14 -4.474535207e-14 -4.435033396e-14 -4.247310395e-14)
5(-5.019687346e-14 -5.613127143e-14 -5.890471431e-14 -5.883860532e-14 -5.777686674e-14)
5(-6.537930641e-14 -7.34048054e-14 -7.753692865e-14 -7.828218024e-14 -7.767343933e-14)
5(-8.560882672e-14 -9.61222249e-14 -1.021954389e-13 -1.046568731e-13 -1.067491039e-13)
5(-1.119631824e-13 -1.25886556e-13 -1.353688185e-13 -1.409985582e-13 -1.460233132e-13)
5(-1.437950842e-13 -1.648343534e-13 -1.807192556e-13 -1.921643676e-13 -2.032481322e-13)
5(-1.860973793e-13 -2.156048508e-13 -2.432463074e-13 -2.658747989e-13 -2.906211295e-13)
5(-2.445773404e-13 -2.859617682e-13 -3.311710265e-13 -3.745064302e-13 -4.188349087e-13)
5(-3.225127334e-13 -3.863484346e-13 -4.601150978e-13 -5.394835136e-13 -6.21691562e-13)
5(-4.23574729e-13 -5.307071281e-13 -6.553747629e-13 -7.93947803e-13 -9.397963299e-13)
5(-5.695648944e-13 -7.446897085e-13 -9.54552726e-13 -1.188671657e-12 -1.434866417e-12)
5(-7.858177664e-13 -1.065077409e-12 -1.411418762e-12 -1.802558251e-12 -2.21532877e-12)
5(-1.096435773e-12 -1.55206925e-12 -2.11165098e-12 -2.734370448e-12 -3.347325375e-12)
5(-1.560912464e-12 -2.288805717e-12 -3.168774592e-12 -4.106439577e-12 -4.994831385e-12)
5(-2.260519457e-12 -3.370389157e-12 -4.701042306e-12 -6.062511967e-12 -7.3129966e-12)
5(-3.296284537e-12 -4.922509325e-12 -6.860701344e-12 -8.73360304e-12 -1.034007127e-11)
5(-4.758666903e-12 -7.070681771e-12 -9.787092715e-12 -1.218963256e-11 -1.414119096e-11)
5(-6.725440777e-12 -9.91423157e-12 -1.350414735e-11 -1.639041353e-11 -1.854856447e-11)
5(-9.355169904e-12 -1.349189246e-11 -1.790235296e-11 -2.103406089e-11 -2.281252062e-11)
5(-1.263614495e-11 -1.76357817e-11 -2.260397719e-11 -2.549075255e-11 -2.600183908e-11)
5(-1.639431136e-11 -2.196966869e-11 -2.694371961e-11 -2.879981331e-11 -2.701819568e-11)
5(-2.025540473e-11 -2.581093025e-11 -2.988927614e-11 -2.957732622e-11 -2.460266377e-11)
5(-2.362396238e-11 -2.817649882e-11 -3.008384104e-11 -2.640571629e-11 -1.802093153e-11)
5(-2.56099235e-11 -2.78845123e-11 -2.632450812e-11 -1.843006982e-11 -7.609693157e-12)
5(-2.520423588e-11 -2.381023359e-11 -1.760261012e-11 -5.91525661e-12 5.643899603e-12)
5(-2.152246341e-11 -1.545913194e-11 -4.254506291e-12 9.369664237e-12 1.960142775e-11)
5(-1.414675789e-11 -3.154225915e-12 1.211343117e-11 2.443332616e-11 3.122253848e-11)
5(-3.481355645e-12 1.15640412e-11 2.847933296e-11 3.637205927e-11 3.78715095e-11)
5(9.542609254e-12 2.620573076e-11 4.052807543e-11 4.245356193e-11 3.798712714e-11)
5(2.260334739e-11 3.757951057e-11 4.534908406e-11 4.107132128e-11 3.225237173e-11)
5(3.283183172e-11 4.285075234e-11 4.242882868e-11 3.374135049e-11 2.30751118e-11)
5(3.814088431e-11 4.108628674e-11 3.352125408e-11 2.345031505e-11 1.374234719e-11)
5(3.752798771e-11 3.262145743e-11 2.201342824e-11 1.353278292e-11 6.867100519e-12)
5(3.152807078e-11 2.125269419e-11 1.174289544e-11 6.34402678e-12 2.790716405e-12)
5(2.223204183e-11 1.153880107e-11 4.928264151e-12 2.28959114e-12 8.539985572e-13)
5(1.225596477e-11 4.852043454e-12 1.529829504e-12 6.220868916e-13 2.214559622e-13)
5(5.098329984e-12 1.422042063e-12 3.347549742e-13 1.165019237e-13 3.957756024e-14)
5(1.707356875e-12 2.811567928e-13 4.540424689e-14 1.490667222e-14 4.305927853e-15)
5(3.242000371e-13 2.367292049e-14 3.081527639e-15 -3.821393929e-15 3.901777616e-16)
5(2.783993765e-14 2.036055825e-15 -1.657514381e-14 6.949800014e-17 1.44928767e-17)
5(-5.372601974e-16 1.575341026e-14 -3.333786334e-14 1.01288764e-14 2.421909195e-19)
)


60
(
5(-7.717857487e-17 -1.787090615e-16 2.712224261e-17 -2.397894873e-17 1.225111574e-16)
5(-1.010547265e-16 -2.131271921e-16 -5.098414178e-17 -1.010887111e-16 2.072641586e-17)
5(-1.673815717e-16 -2.846531587e-16 -2.381614954e-16 -2.844724255e-16 -2.262104746e-16)
5(-2.974027654e-16 -4.208360037e-16 -4.827022854e-16 -5.345787287e-16 -5.353692415e-16)
5(-5.014718482e-16 -6.55720531e-16 -7.996091544e-16 -8.742211014e-16 -9.282762401e-16)
5(-7.658527004e-16 -9.879289828e-16 -1.188317052e-15 -1.301756543e-15 -1.392300386e-15)
5(-1.094023203e-15 -1.440447823e-15 -1.674692086e-15 -1.843306709e-15 -1.873373646e-15)
5(-1.559589861e-15 -2.070409649e-15 -2.333561937e-15 -2.57036361e-15 -2.506218432e-15)
5(-2.241897723e-15 -2.937271163e-15 -3.278100758e-15 -3.555055368e-15 -3.429672791e-15)
5(-3.23396889e-15 -4.115333615e-15 -4.589810871e-15 -4.858113558e-15 -4.667295276e-15)
5(-4.530528826e-15 -5.676664168e-15 -6.302840292e-15 -6.513284074e-15 -6.181191459e-15)
5(-6.288254447e-15 -7.708321251e-15 -8.468399936e-15 -8.57404875e-15 -8.01764543e-15)
5(-8.578570371e-15 -1.031782257e-14 -1.117559187e-14 -1.115004871e-14 -1.024780814e-14)
5(-1.160175237e-14 -1.369008454e-14 -1.462041715e-14 -1.442071072e-14 -1.319238284e-14)
5(-1.551991277e-14 -1.803490002e-14 -1.905720594e-14 -1.862583397e-14 -1.701617565e-14)
5(-2.049990646e-14 -2.361730198e-14 -2.479048266e-14 -2.412211204e-14 -2.221604875e-14)
5(-2.720187646e-14 -3.085267786e-14 -3.224094008e-14 -3.138952051e-14 -2.903254936e-14)
5(-3.55986331e-14 -4.016646734e-14 -4.195553107e-14 -4.102940774e-14 -3.84754757e-14)
5(-4.668580803e-14 -5.217977118e-14 -5.465607128e-14 -5.373633606e-14 -5.102299049e-14)
5(-6.129970408e-14 -6.779666259e-14 -7.120192229e-14 -7.045155122e-14 -6.756371634e-14)
5(-7.854903394e-14 -8.787052318e-14 -9.270150847e-14 -9.249418479e-14 -9.090713292e-14)
5(-1.021236074e-13 -1.137420214e-13 -1.209395394e-13 -1.214585276e-13 -1.211915495e-13)
5(-1.331346838e-13 -1.47092465e-13 -1.576542549e-13 -1.598396135e-13 -1.618056894e-13)
5(-1.699697252e-13 -1.894907122e-13 -2.051065922e-13 -2.109786981e-13 -2.191079718e-13)
5(-2.172807052e-13 -2.436828404e-13 -2.674514461e-13 -2.791966532e-13 -2.93697153e-13)
5(-2.794533031e-13 -3.139037339e-13 -3.494642504e-13 -3.721772745e-13 -3.987725132e-13)
5(-3.564630121e-13 -4.052978923e-13 -4.591656513e-13 -5.019401608e-13 -5.550740496e-13)
5(-4.522822495e-13 -5.251542622e-13 -6.104243335e-13 -6.877602126e-13 -7.839366833e-13)
5(-5.782049467e-13 -6.878607913e-13 -8.262594033e-13 -9.617838037e-13 -1.124940697e-12)
5(-7.514328422e-13 -9.171380095e-13 -1.14128971e-12 -1.374243052e-12 -1.6590015e-12)
5(-9.814883002e-13 -1.246324913e-12 -1.608507791e-12 -1.995790614e-12 -2.466479409e-12)
5(-1.295835283e-12 -1.726308067e-12 -2.30764748e-12 -2.932745057e-12 -3.658477211e-12)
5(-1.745328261e-12 -2.428951517e-12 -3.342740929e-12 -4.322196577e-12 -5.463621147e-12)
5(-2.413170747e-12 -3.456826782e-12 -4.854445819e-12 -6.321049454e-12 -7.935973645e-12)
5(-3.384278324e-12 -4.943072539e-12 -7.011102117e-12 -9.102777165e-12 -1.124000351e-11)
5(-4.722238765e-12 -7.027728903e-12 -9.981004937e-12 -1.281529458e-11 -1.557511351e-11)
5(-6.608548079e-12 -9.843825141e-12 -1.386499612e-11 -1.746997496e-11 -2.078732825e-11)
5(-9.134248955e-12 -1.345295249e-11 -1.863066042e-11 -2.290790264e-11 -2.643085542e-11)