/*--------------------------------*- C++ -*----------------------------------*\
| =========                 |                                                 |
| \\      /  F ield         | OpenFOAM: The Open Source CFD Toolbox           |
|  \\    /   O peration     | Version:  2.3.1                                 |
|   \\  /    A nd           | Web:      www.OpenFOAM.org                      |
|    \\/     M anipulation  |                                                 |
\*---------------------------------------------------------------------------*/
FoamFile
{
    version     2.0;
    format      ascii;
    class       dictionary;
    location    "constant";
    object      DPSI58;
}
// * * * * * * * * * * * * * * * * * * * * * * * * * * * * * * * * * * * * * //

DPSI58_table
60
(

60
(
5(9.995648142e-08 5.639464036e-09 -1.027507628e-08 1.949417328e-08 -2.903024779e-08)
5(9.962136413e-08 1.104794721e-08 -2.061071923e-08 1.698558338e-08 -1.244340492e-09)
5(-6.001003509e-08 -3.370182187e-08 1.109932601e-08 3.247320555e-08 3.693146257e-08)
5(-6.892276904e-08 -3.945130209e-08 3.00689439e-08 1.324527044e-08 -3.081404945e-08)
5(-7.084026887e-08 -4.219131126e-08 1.453681615e-08 2.303383565e-08 1.097895595e-08)
5(-1.502723141e-09 1.39796363e-08 9.672058413e-09 6.453204186e-09 2.143785994e-08)
5(4.234319718e-08 2.91922874e-08 1.429257905e-08 -6.420800785e-10 -1.557895015e-08)
5(2.880187981e-10 -3.476778736e-09 1.161108371e-08 2.870499218e-08 2.598316143e-08)
5(1.367538901e-08 1.065092591e-08 1.30950228e-08 1.829545349e-08 1.697446376e-08)
5(-5.336663413e-10 -1.24782155e-09 1.7913425e-08 2.456730089e-08 1.094244652e-08)
5(3.44598156e-09 1.203592287e-09 1.764852363e-08 2.438577047e-08 1.189620037e-08)
5(1.159384816e-08 1.074393118e-08 1.835816369e-08 2.21750277e-08 1.664638499e-08)
5(8.638038819e-09 1.136480581e-08 1.73931132e-08 2.014686732e-08 1.880374686e-08)
5(2.05973444e-08 1.769039904e-08 2.209029184e-08 2.305149231e-08 1.565733866e-08)
5(1.431217037e-08 1.455775884e-08 1.890464589e-08 2.20770022e-08 2.030114521e-08)
5(1.768690945e-08 1.537347161e-08 1.936505261e-08 2.362660036e-08 2.070368625e-08)
5(1.896499382e-08 1.592826332e-08 1.939306237e-08 2.296217569e-08 1.918789263e-08)
5(1.981024434e-08 1.627189919e-08 1.862925111e-08 2.328315387e-08 2.122890621e-08)
5(1.839934309e-08 1.610248692e-08 1.991698064e-08 2.386498846e-08 2.094600076e-08)
5(1.803832339e-08 1.729551424e-08 2.077051914e-08 2.616907222e-08 2.662516947e-08)
5(2.0805955e-08 1.882963885e-08 1.99460245e-08 2.474424308e-08 2.573768713e-08)
5(2.240751456e-08 1.876440259e-08 2.44660633e-08 2.788264482e-08 2.116898355e-08)
5(2.580739063e-08 2.205033949e-08 2.304139864e-08 2.580165833e-08 2.305048658e-08)
5(1.951669149e-08 2.108007631e-08 2.577591663e-08 2.67174877e-08 2.390525621e-08)
5(2.22362654e-08 2.181924713e-08 2.493224352e-08 2.71229578e-08 2.514812227e-08)
5(2.431797488e-08 2.030741222e-08 2.293293931e-08 2.967090231e-08 2.910099899e-08)
5(2.831334712e-08 2.363172609e-08 2.171393467e-08 2.764101702e-08 3.015192718e-08)
5(2.683604194e-08 2.211886991e-08 2.21451914e-08 2.917460448e-08 3.083175748e-08)
5(3.051960254e-08 2.64305073e-08 2.437238726e-08 2.7791994e-08 2.854582051e-08)
5(2.929007248e-08 2.807568119e-08 2.787954529e-08 2.760049915e-08 2.57081175e-08)
5(3.145190943e-08 2.90767145e-08 2.807895945e-08 2.845674759e-08 2.684639512e-08)
5(3.431035904e-08 3.156330339e-08 2.962975787e-08 2.890141593e-08 2.672052013e-08)
5(3.346398749e-08 3.113825286e-08 3.004903988e-08 2.64324866e-08 2.097020193e-08)
5(3.387421634e-08 3.10130607e-08 3.112244385e-08 2.876147122e-08 2.280857215e-08)
5(3.687342879e-08 3.265598312e-08 2.984083475e-08 2.545904114e-08 1.904378048e-08)
5(3.402678426e-08 2.992418565e-08 3.005339108e-08 2.584883181e-08 1.680790566e-08)
5(3.970712701e-08 3.399149055e-08 2.638682406e-08 1.876281091e-08 1.243750932e-08)
5(3.604351177e-08 3.245092331e-08 2.453975249e-08 1.681456313e-08 1.2892521e-08)
5(3.658679959e-08 3.005592541e-08 2.110274496e-08 1.302757767e-08 6.862135867e-09)
5(3.643753343e-08 2.772823846e-08 1.732144312e-08 1.112260309e-08 6.092924697e-09)
5(3.340971921e-08 2.468742467e-08 1.245640719e-08 6.28961868e-09 3.201385713e-09)
5(2.663914307e-08 1.93535111e-08 8.590826018e-09 3.515441565e-09 1.604193581e-09)
5(2.16241971e-08 1.463039878e-08 5.245285711e-09 1.547865467e-09 0)
5(1.527578926e-08 9.581601249e-09 3.074809348e-09 9.169537081e-10 -6.108826851e-10)
5(1.021564401e-08 6.120648456e-09 1.36394263e-09 3.565913309e-10 -1.094673796e-10)
5(5.214092423e-09 3.160773965e-09 5.827103971e-10 5.983740456e-11 0)
5(2.401596195e-09 1.360826506e-09 1.255823947e-10 1.678889618e-11 7.395836096e-11)
5(1.358842633e-09 6.916509504e-10 1.021986637e-11 5.882180785e-12 0)
5(2.784125947e-10 1.417989855e-10 1.982108506e-12 1.05312567e-12 0)
5(5.421522324e-11 2.734277026e-11 4.059878568e-14 0 0)
5(9.764027395e-12 4.923396664e-12 0 0 0)
5(1.299214487e-12 6.582252699e-13 0 0 0)
5(5.465721235e-16 2.774029738e-16 0 0 0)
5{0}
5(-6.682877602e-40 -2.624996192e-43 3.432681532e-40 0 0)
5(-2.17366434e-39 -8.523190162e-43 1.115859501e-39 0 0)
5(-6.918354832e-39 -2.863083043e-42 3.547360881e-39 -1.536349693e-38 -3.102262201e-38)
5(-2.173333321e-39 -3.22300494e-39 -9.907400794e-39 -2.018542906e-38 -2.490905372e-38)
5(-1.313578078e-39 -4.350333388e-39 -7.913816132e-40 2.241856652e-39 -1.458173402e-39)
5(-3.103432701e-41 1.622193077e-42 -1.868368426e-39 -7.52628638e-39 -1.132539005e-38)
)


60
(
5(7.219849621e-08 4.313955868e-09 -3.057358396e-09 2.320429917e-08 -1.166398208e-08)
5(3.474162799e-08 1.455070869e-08 1.426689592e-08 2.887016131e-08 2.151142272e-08)
5(1.321515068e-08 1.935573787e-08 2.408915075e-08 3.385192311e-08 4.185108844e-08)
5(7.227922109e-09 2.02668138e-08 2.840495436e-08 3.795405791e-08 4.930254071e-08)
5(1.214666212e-08 1.995750826e-08 2.989540706e-08 4.116876979e-08 4.772400404e-08)
5(2.222586903e-08 2.199091905e-08 3.124272519e-08 4.32735901e-08 4.350806229e-08)
5(2.785486898e-08 2.514111311e-08 3.333499368e-08 4.544642386e-08 4.437854011e-08)
5(2.889733193e-08 2.736942921e-08 3.599959446e-08 4.859150386e-08 4.879912122e-08)
5(2.904042313e-08 2.969210674e-08 3.878621818e-08 5.141213336e-08 5.344185806e-08)
5(3.051971018e-08 3.207662199e-08 4.125887391e-08 5.412315105e-08 5.727684564e-08)
5(3.170559829e-08 3.370335297e-08 4.357172127e-08 5.655252427e-08 5.967582231e-08)
5(3.47874833e-08 3.556784295e-08 4.566284319e-08 5.919857508e-08 6.15031521e-08)
5(3.7103168e-08 3.737868106e-08 4.793606384e-08 6.199341813e-08 6.391428724e-08)
5(3.905675328e-08 3.924941658e-08 4.997937955e-08 6.466693791e-08 6.702480497e-08)
5(4.104835905e-08 4.119088201e-08 5.218797215e-08 6.724364779e-08 6.971332111e-08)
5(4.299522217e-08 4.311674654e-08 5.458549893e-08 7.002666039e-08 7.244570088e-08)
5(4.480009744e-08 4.482394939e-08 5.682818881e-08 7.286202252e-08 7.529468104e-08)
5(4.676847532e-08 4.678298794e-08 5.928380263e-08 7.562955626e-08 7.79177983e-08)
5(4.931542023e-08 4.894168991e-08 6.151406388e-08 7.842068379e-08 8.084935008e-08)
5(5.155208374e-08 5.121058352e-08 6.395521471e-08 8.111367345e-08 8.369879714e-08)
5(5.403637527e-08 5.359308442e-08 6.663021238e-08 8.40815085e-08 8.659953948e-08)
5(5.643251962e-08 5.619430962e-08 6.942936498e-08 8.69077718e-08 8.949488006e-08)
5(5.929190124e-08 5.893439497e-08 7.244458458e-08 8.983284041e-08 9.19606253e-08)
5(6.260443795e-08 6.200828189e-08 7.587261715e-08 9.29856353e-08 9.426141119e-08)
5(6.598801287e-08 6.532126854e-08 7.903181176e-08 9.593434606e-08 9.710451773e-08)
5(6.990437875e-08 6.865696479e-08 8.233824637e-08 9.937455402e-08 1.001350507e-07)
5(7.451841342e-08 7.25558121e-08 8.555772434e-08 1.024800667e-07 1.030938061e-07)
5(7.882233675e-08 7.676154333e-08 8.933845971e-08 1.054921607e-07 1.056709201e-07)
5(8.365253034e-08 8.118062949e-08 9.33184635e-08 1.084378121e-07 1.076103935e-07)
5(8.946510013e-08 8.620505115e-08 9.714598814e-08 1.111706841e-07 1.096482238e-07)
5(9.545937157e-08 9.138713259e-08 1.010567387e-07 1.135292391e-07 1.109049786e-07)
5(1.018612827e-07 9.69590095e-08 1.04778756e-07 1.15350471e-07 1.118343115e-07)
5(1.084462138e-07 1.024526928e-07 1.083768623e-07 1.169332743e-07 1.121942837e-07)
5(1.152979417e-07 1.080776882e-07 1.115369922e-07 1.175608337e-07 1.115124653e-07)
5(1.219133559e-07 1.13360605e-07 1.139442228e-07 1.171476331e-07 1.098140551e-07)
5(1.28488434e-07 1.183180639e-07 1.152778114e-07 1.151825184e-07 1.065505748e-07)
5(1.338115365e-07 1.219628039e-07 1.152170798e-07 1.112588338e-07 1.007961009e-07)
5(1.382602314e-07 1.245516152e-07 1.133211138e-07 1.051824347e-07 9.31759756e-08)
5(1.40600849e-07 1.249243341e-07 1.088987672e-07 9.719660426e-08 8.449079517e-08)
5(1.396932147e-07 1.225585255e-07 1.021548527e-07 8.728613144e-08 7.438942534e-08)
5(1.356354886e-07 1.170680955e-07 9.253899904e-08 7.551627344e-08 6.323644169e-08)
5(1.271367861e-07 1.081061162e-07 8.101416822e-08 6.222454153e-08 5.038153118e-08)
5(1.150475864e-07 9.568903234e-08 6.748981833e-08 4.808848443e-08 3.653424178e-08)
5(9.908822793e-08 8.028261196e-08 5.28129038e-08 3.442087702e-08 2.385009795e-08)
5(8.052746468e-08 6.34866839e-08 3.84467292e-08 2.237966752e-08 1.362680209e-08)
5(6.061181671e-08 4.655840192e-08 2.559351517e-08 1.297231162e-08 6.747059859e-09)
5(4.223167741e-08 3.147375476e-08 1.520685334e-08 6.442790186e-09 2.827247616e-09)
5(2.635924382e-08 1.899244858e-08 7.898706993e-09 2.679674627e-09 9.602330451e-10)
5(1.474632333e-08 1.014808566e-08 3.484457386e-09 9.014263798e-10 2.528077974e-10)
5(6.872300867e-09 4.4847941e-09 1.235360095e-09 2.423273917e-10 4.706831088e-11)
5(2.688954789e-09 1.654615802e-09 3.400567717e-10 4.643284671e-11 6.497329573e-12)
5(7.6256909e-10 4.477630424e-10 6.866175318e-11 6.46262384e-12 6.030577971e-13)
5(1.715739449e-10 9.588950822e-11 9.76430883e-12 6.353307401e-13 3.669970572e-14)
5(2.228844169e-11 1.20493442e-11 8.063277797e-13 3.226640636e-14 1.34835409e-15)
5(1.688929356e-12 8.958525515e-13 4.199194377e-14 8.975539469e-16 4.928214071e-17)
5(5.033385696e-14 2.617245536e-14 6.999748613e-16 1.404221137e-17 2.059302677e-18)
5(6.398442525e-16 3.280800222e-16 4.161214859e-18 2.186391892e-19 5.237474904e-20)
5(2.272935525e-18 1.186793448e-18 3.94048835e-20 4.302889738e-21 6.47628596e-22)
5(2.137416282e-21 2.190435681e-21 -7.024244176e-22 -1.867413742e-21 -4.750872151e-23)
5(9.209828918e-29 4.830139222e-29 1.592725135e-30 -3.424120848e-38 2.47587057e-35)
)


60
(
5(6.140753827e-08 1.292606488e-09 -4.208501915e-09 2.397250034e-08 -3.018475164e-09)
5(3.002316131e-08 1.405359895e-08 1.54485278e-08 3.19387901e-08 2.918640207e-08)
5(1.339648887e-08 1.959527276e-08 2.611419271e-08 3.897712385e-08 4.88092815e-08)
5(9.14817943e-09 2.07406828e-08 3.077667287e-08 4.427845308e-08 5.670832232e-08)
5(1.443306353e-08 2.13680886e-08 3.280945794e-08 4.802417391e-08 5.645729646e-08)
5(2.278700301e-08 2.362488491e-08 3.481392963e-08 5.062492582e-08 5.400191976e-08)
5(2.826990932e-08 2.658815786e-08 3.734397879e-08 5.371907244e-08 5.562564679e-08)
5(2.975253368e-08 2.933604678e-08 4.065320253e-08 5.739926981e-08 6.042832593e-08)
5(3.053067372e-08 3.214714321e-08 4.401601621e-08 6.108430807e-08 6.597688439e-08)
5(3.206478047e-08 3.47392987e-08 4.703367977e-08 6.425167913e-08 7.00079703e-08)
5(3.418204782e-08 3.68302254e-08 4.976434906e-08 6.759372978e-08 7.337229152e-08)
5(3.698515837e-08 3.898417405e-08 5.239235922e-08 7.091401156e-08 7.632283002e-08)
5(3.972417433e-08 4.128713913e-08 5.52087476e-08 7.443128891e-08 7.964276499e-08)
5(4.199792642e-08 4.362245463e-08 5.80709604e-08 7.791054051e-08 8.332969563e-08)
5(4.431189613e-08 4.596420243e-08 6.102713051e-08 8.150374259e-08 8.702733061e-08)
5(4.641507256e-08 4.831536692e-08 6.39991907e-08 8.499967673e-08 9.072846697e-08)
5(4.934644048e-08 5.086078404e-08 6.692503064e-08 8.866557656e-08 9.440591954e-08)
5(5.20485269e-08 5.356113632e-08 6.999350863e-08 9.227791851e-08 9.823163445e-08)
5(5.487626292e-08 5.624665763e-08 7.320650027e-08 9.606971409e-08 1.019683827e-07)
5(5.793308218e-08 5.930577413e-08 7.645319739e-08 9.976474626e-08 1.059617892e-07)
5(6.069271626e-08 6.231616034e-08 8.003037379e-08 1.036150595e-07 1.098075591e-07)
5(6.429353065e-08 6.599880777e-08 8.394796741e-08 1.075342342e-07 1.135995285e-07)
5(6.789529479e-08 6.955576694e-08 8.790422444e-08 1.116661882e-07 1.174838775e-07)
5(7.19653088e-08 7.353595714e-08 9.219150066e-08 1.158506701e-07 1.211850559e-07)
5(7.629984111e-08 7.77216371e-08 9.654597754e-08 1.201453683e-07 1.251173514e-07)
5(8.133078733e-08 8.249423136e-08 1.010569543e-07 1.244838311e-07 1.292925819e-07)
5(8.694360817e-08 8.765748367e-08 1.056633696e-07 1.287255757e-07 1.332824178e-07)
5(9.213788933e-08 9.283590021e-08 1.106784607e-07 1.331931066e-07 1.373558938e-07)
5(9.912714011e-08 9.905045272e-08 1.159128213e-07 1.374328808e-07 1.407965774e-07)
5(1.059937613e-07 1.053523032e-07 1.212178196e-07 1.417031328e-07 1.444569037e-07)
5(1.13408283e-07 1.122411227e-07 1.269303662e-07 1.455944115e-07 1.471653966e-07)
5(1.216873788e-07 1.195848014e-07 1.324441699e-07 1.491803461e-07 1.496980996e-07)
5(1.30495009e-07 1.270514166e-07 1.377828041e-07 1.523670912e-07 1.514921722e-07)
5(1.389677259e-07 1.348078809e-07 1.430853323e-07 1.549186476e-07 1.530209212e-07)
5(1.481326523e-07 1.427022881e-07 1.476174014e-07 1.561204833e-07 1.529645803e-07)
5(1.562587647e-07 1.49597772e-07 1.514104918e-07 1.562094085e-07 1.512063676e-07)
5(1.643889475e-07 1.561348772e-07 1.538338805e-07 1.54160737e-07 1.471948161e-07)
5(1.724420483e-07 1.618612024e-07 1.543475969e-07 1.497069933e-07 1.40637574e-07)
5(1.778500599e-07 1.650006044e-07 1.522924936e-07 1.428720307e-07 1.319366064e-07)
5(1.81076442e-07 1.65927988e-07 1.472786748e-07 1.333905372e-07 1.216427969e-07)
5(1.800684039e-07 1.632591107e-07 1.392018915e-07 1.210178748e-07 1.08763786e-07)
5(1.747775046e-07 1.561328655e-07 1.273882719e-07 1.059461612e-07 9.333825952e-08)
5(1.650527054e-07 1.446375058e-07 1.122846397e-07 8.822550345e-08 7.490672322e-08)
5(1.500001617e-07 1.28681371e-07 9.466797585e-08 6.91146792e-08 5.515057173e-08)
5(1.303280968e-07 1.091914465e-07 7.520545759e-08 5.027757277e-08 3.722472432e-08)
5(1.067121438e-07 8.717200508e-08 5.555815663e-08 3.352926629e-08 2.275786845e-08)
5(8.199254577e-08 6.52517675e-08 3.774720045e-08 1.990544366e-08 1.21837102e-08)
5(5.809922942e-08 4.474718544e-08 2.303143113e-08 1.041015513e-08 5.679851519e-09)
5(3.736548425e-08 2.768925816e-08 1.23468835e-08 4.623459536e-09 2.251110512e-09)
5(2.1306944e-08 1.502196698e-08 5.643326263e-09 1.716917747e-09 6.921733761e-10)
5(1.043906437e-08 6.953284669e-09 2.106163071e-09 5.090835977e-10 1.718921272e-10)
5(4.075491402e-09 2.575189245e-09 6.136097031e-10 1.122935152e-10 2.958402687e-11)
5(1.203046234e-09 7.243513009e-10 1.32349021e-10 1.808403723e-11 3.646679302e-12)
5(2.413244181e-10 1.402440174e-10 1.983726684e-11 1.809422741e-12 2.567343266e-13)
5(3.32657879e-11 1.860110587e-11 1.870490379e-12 1.158743563e-13 1.288837198e-14)
5(2.423263111e-12 1.324258208e-12 1.004945365e-13 3.680627609e-15 3.892262273e-16)
5(9.328890152e-14 4.935820817e-14 2.151940377e-15 7.114762521e-17 7.780909919e-18)
5(8.249370817e-16 4.425676031e-16 2.519905481e-17 7.056181648e-19 1.217700553e-19)
5(2.748563953e-17 1.776294858e-17 -1.295965612e-17 -1.708749035e-17 -1.338393131e-19)
5(8.853604647e-22 4.495235324e-22 5.381210567e-27 -1.071673358e-33 -1.841491095e-33)
)


60
(
5(5.347903885e-08 -2.374748174e-09 -7.254179833e-09 2.325671926e-08 2.43779724e-09)
5(2.586405363e-08 1.198346555e-08 1.42928351e-08 3.273393103e-08 3.349342656e-08)
5(1.145482948e-08 1.790386466e-08 2.567322386e-08 4.085409161e-08 5.2553458e-08)
5(8.243932355e-09 1.909761358e-08 3.049021204e-08 4.681806682e-08 6.053827636e-08)
5(1.321783643e-08 1.994568646e-08 3.280477114e-08 5.089947256e-08 6.105523848e-08)
5(2.093609379e-08 2.241722731e-08 3.510540924e-08 5.376572736e-08 5.954578737e-08)
5(2.59789173e-08 2.541309679e-08 3.809593592e-08 5.729636216e-08 6.161619209e-08)
5(2.775318201e-08 2.831590817e-08 4.166313881e-08 6.140981122e-08 6.678261367e-08)
5(2.871308265e-08 3.118742228e-08 4.522387535e-08 6.549563375e-08 7.267405018e-08)
5(3.030023606e-08 3.389155908e-08 4.856842962e-08 6.923993333e-08 7.736214008e-08)
5(3.286267133e-08 3.639891753e-08 5.16399399e-08 7.297211626e-08 8.119334256e-08)
5(3.553309683e-08 3.877149246e-08 5.473625795e-08 7.67415369e-08 8.466593291e-08)
5(3.828164171e-08 4.121350057e-08 5.781617003e-08 8.070276288e-08 8.860720924e-08)
5(4.094551449e-08 4.38708299e-08 6.102103079e-08 8.476222623e-08 9.300832517e-08)
5(4.365446195e-08 4.659878733e-08 6.434956603e-08 8.880851579e-08 9.723576551e-08)
5(4.622615372e-08 4.929606891e-08 6.78162234e-08 9.299228075e-08 1.015341638e-07)
5(4.886943995e-08 5.2061812e-08 7.127895678e-08 9.718076129e-08 1.05911811e-07)
5(5.219857488e-08 5.526719027e-08 7.494147039e-08 1.013601859e-07 1.100546789e-07)
5(5.509239462e-08 5.833931581e-08 7.865578358e-08 1.057839738e-07 1.147579862e-07)
5(5.86548659e-08 6.196042e-08 8.257356809e-08 1.100997933e-07 1.192617781e-07)
5(6.238377387e-08 6.557241329e-08 8.651885488e-08 1.147374753e-07 1.241648688e-07)
5(6.572439357e-08 6.942844642e-08 9.114148126e-08 1.194403685e-07 1.287250994e-07)
5(6.992796576e-08 7.365779109e-08 9.573275477e-08 1.241922701e-07 1.333159943e-07)
5(7.506749722e-08 7.862891043e-08 1.005811067e-07 1.289835788e-07 1.380109704e-07)
5(8.024970433e-08 8.345197854e-08 1.056244033e-07 1.341090222e-07 1.42644597e-07)
5(8.553085433e-08 8.881016664e-08 1.110425397e-07 1.393273197e-07 1.476904584e-07)
5(9.156366242e-08 9.466382156e-08 1.166087193e-07 1.446270974e-07 1.528350618e-07)
5(9.809483661e-08 1.01003024e-07 1.225075905e-07 1.49924239e-07 1.577796863e-07)
5(1.053201361e-07 1.079040018e-07 1.288197736e-07 1.552686049e-07 1.624119159e-07)
5(1.1319586e-07 1.153679089e-07 1.352888461e-07 1.605484745e-07 1.670778793e-07)
5(1.217029981e-07 1.233639816e-07 1.420740016e-07 1.658097848e-07 1.714999214e-07)
5(1.308511747e-07 1.320518519e-07 1.489862985e-07 1.706469669e-07 1.755658937e-07)
5(1.405695172e-07 1.408390709e-07 1.560728312e-07 1.755808674e-07 1.790885527e-07)
5(1.508850691e-07 1.502336157e-07 1.628960522e-07 1.797297551e-07 1.82192423e-07)
5(1.616516937e-07 1.599083733e-07 1.694959023e-07 1.832144432e-07 1.845192185e-07)
5(1.727726998e-07 1.695708433e-07 1.755570933e-07 1.851957706e-07 1.845202899e-07)
5(1.836258249e-07 1.790367047e-07 1.805889599e-07 1.853424788e-07 1.828014646e-07)
5(1.938109269e-07 1.872037749e-07 1.840182585e-07 1.835033298e-07 1.783672409e-07)
5(2.028485956e-07 1.942239403e-07 1.853623306e-07 1.789506714e-07 1.715435435e-07)
5(2.09873754e-07 1.991851581e-07 1.837688921e-07 1.714045019e-07 1.625188158e-07)
5(2.140507248e-07 2.005813299e-07 1.783085108e-07 1.608291935e-07 1.5087905e-07)
5(2.147970328e-07 1.981671706e-07 1.690274511e-07 1.464696915e-07 1.351225451e-07)
5(2.099362404e-07 1.905530601e-07 1.555417331e-07 1.277658233e-07 1.143133862e-07)
5(1.996617673e-07 1.775274428e-07 1.379232658e-07 1.063491458e-07 9.095230736e-08)
5(1.828970649e-07 1.588240484e-07 1.165700148e-07 8.359708004e-08 6.756124434e-08)
5(1.608015319e-07 1.362042538e-07 9.297349547e-08 6.099715121e-08 4.65124434e-08)
5(1.333869845e-07 1.1065499e-07 6.94892748e-08 4.058261953e-08 2.913818603e-08)
5(1.049399703e-07 8.39033743e-08 4.747023851e-08 2.450886471e-08 1.612615736e-08)
5(7.647295459e-08 5.862320199e-08 2.912967938e-08 1.291696756e-08 7.708878721e-09)
5(5.092661543e-08 3.726570735e-08 1.578993906e-08 5.741637698e-09 3.052823176e-09)
5(3.01441878e-08 2.08429926e-08 7.27277602e-09 2.160342367e-09 1.022083634e-09)
5(1.534512278e-08 9.927417928e-09 2.693939623e-09 6.494206608e-10 2.532679449e-10)
5(6.079144039e-09 3.745986192e-09 7.929636929e-10 1.457733179e-10 4.668280531e-11)
5(1.848899631e-09 1.087203777e-09 1.703470176e-10 2.230398363e-11 5.981112301e-12)
5(4.094461151e-10 2.300039073e-10 2.438701511e-11 2.105360578e-12 4.538733794e-13)
5(5.027616062e-11 2.739334207e-11 2.010564217e-12 1.212247201e-13 1.936473949e-14)
5(2.260203419e-12 1.262887256e-12 1.201636843e-13 3.354158978e-15 5.261670822e-16)
5(1.202159397e-13 6.408679592e-14 3.153341681e-15 6.661762706e-17 9.464641906e-18)
5(7.91091309e-16 3.644749021e-16 1.069065729e-16 1.393844009e-16 -1.432986853e-17)
5(-3.419736632e-13 -3.70482243e-13 1.7448638e-13 3.80888775e-13 2.46920463e-15)
)


60
(
5(4.66887083e-08 -6.42839579e-09 -1.125833826e-08 2.165464558e-08 6.124283941e-09)
5(2.146105335e-08 9.100514347e-09 1.19896174e-08 3.212307392e-08 3.591406599e-08)
5(8.438684395e-09 1.52451636e-08 2.393251772e-08 4.092307571e-08 5.438965593e-08)
5(5.775015295e-09 1.627187107e-08 2.87366555e-08 4.730835965e-08 6.236518989e-08)
5(1.060843158e-08 1.718403928e-08 3.116492147e-08 5.160153869e-08 6.329250746e-08)
5(1.77123613e-08 1.980027027e-08 3.376273071e-08 5.459989564e-08 6.231801659e-08)
5(2.251199535e-08 2.273939904e-08 3.687280171e-08 5.837879686e-08 6.476304382e-08)
5(2.427618875e-08 2.563664419e-08 4.052968509e-08 6.274372389e-08 7.024548617e-08)
5(2.53655701e-08 2.862852613e-08 4.433988661e-08 6.709979323e-08 7.628489913e-08)
5(2.727423126e-08 3.142067744e-08 4.774015875e-08 7.114401209e-08 8.130370312e-08)
5(2.965264958e-08 3.400847915e-08 5.111398596e-08 7.518479681e-08 8.548403184e-08)
5(3.24831057e-08 3.650713535e-08 5.429110562e-08 7.927885181e-08 8.952253668e-08)
5(3.543579314e-08 3.912227415e-08 5.765458968e-08 8.361158854e-08 9.377071461e-08)
5(3.770529117e-08 4.178379435e-08 6.117025213e-08 8.792400001e-08 9.846036603e-08)
5(4.059105515e-08 4.474677411e-08 6.47895364e-08 9.24037059e-08 1.032552417e-07)
5(4.339457368e-08 4.784606326e-08 6.854322185e-08 9.684197833e-08 1.080530405e-07)
5(4.639443463e-08 5.083286933e-08 7.232952078e-08 1.014888048e-07 1.127776403e-07)
5(4.963553356e-08 5.410328686e-08 7.638301611e-08 1.061839469e-07 1.173868548e-07)
5(5.302728206e-08 5.766802697e-08 8.037706957e-08 1.109240763e-07 1.226423729e-07)
5(5.667084432e-08 6.141533501e-08 8.464603605e-08 1.158115096e-07 1.277538596e-07)
5(6.051767681e-08 6.542017302e-08 8.91912639e-08 1.208521965e-07 1.329290461e-07)
5(6.468634402e-08 6.983235054e-08 9.402452552e-08 1.26028118e-07 1.382902734e-07)
5(6.924811976e-08 7.450044636e-08 9.915539936e-08 1.312792622e-07 1.433182152e-07)
5(7.414476429e-08 7.946826286e-08 1.04551928e-07 1.368486691e-07 1.487143956e-07)
5(7.96347191e-08 8.488850699e-08 1.101531509e-07 1.424618295e-07 1.540945062e-07)
5(8.590455647e-08 9.08099256e-08 1.158283974e-07 1.482361618e-07 1.598659115e-07)
5(9.198557949e-08 9.72638409e-08 1.22266824e-07 1.541502037e-07 1.656565852e-07)
5(9.897723416e-08 1.041134847e-07 1.287953685e-07 1.602102326e-07 1.714271019e-07)
5(1.066105209e-07 1.11548838e-07 1.357609754e-07 1.664388109e-07 1.771847667e-07)
5(1.150179827e-07 1.197072483e-07 1.431310404e-07 1.726570894e-07 1.827805082e-07)
5(1.240661602e-07 1.285275085e-07 1.508389446e-07 1.788673971e-07 1.883680554e-07)
5(1.337894436e-07 1.379437161e-07 1.589945849e-07 1.852740476e-07 1.939633194e-07)
5(1.443898004e-07 1.480913436e-07 1.673770932e-07 1.912609862e-07 1.988470954e-07)
5(1.559569575e-07 1.588867862e-07 1.757484212e-07 1.970671905e-07 2.037200052e-07)
5(1.679323617e-07 1.700085925e-07 1.841332629e-07 2.024213254e-07 2.078956258e-07)
5(1.804986265e-07 1.814936608e-07 1.922226055e-07 2.067196068e-07 2.106805045e-07)
5(1.932944457e-07 1.932573954e-07 1.998333486e-07 2.09432936e-07 2.115879933e-07)
5(2.064287797e-07 2.048211314e-07 2.064612368e-07 2.102713148e-07 2.099452061e-07)
5(2.191349461e-07 2.15508755e-07 2.1118672e-07 2.08827303e-07 2.062135006e-07)
5(2.304319516e-07 2.245296427e-07 2.135347167e-07 2.049033526e-07 2.003540563e-07)
5(2.398511487e-07 2.312120591e-07 2.127010951e-07 1.976681336e-07 1.914286161e-07)
5(2.46078374e-07 2.343735343e-07 2.080044547e-07 1.858386876e-07 1.771886491e-07)
5(2.481020567e-07 2.327921704e-07 1.986714816e-07 1.692587739e-07 1.574263688e-07)
5(2.457734028e-07 2.25758558e-07 1.840761032e-07 1.481389045e-07 1.325367676e-07)
5(2.362714489e-07 2.126510463e-07 1.643863152e-07 1.230974072e-07 1.050741319e-07)
5(2.195163563e-07 1.932143634e-07 1.401538278e-07 9.632908503e-08 7.789376881e-08)
5(1.964668805e-07 1.685883894e-07 1.127068062e-07 7.013200401e-08 5.427021565e-08)
5(1.671654377e-07 1.394068786e-07 8.507908048e-08 4.68327259e-08 3.399051337e-08)
5(1.352121319e-07 1.084098553e-07 5.903130344e-08 2.824114394e-08 1.900806783e-08)
5(1.022491753e-07 7.820095773e-08 3.700520391e-08 1.503397963e-08 9.369630251e-09)
5(7.089043002e-08 5.130304516e-08 2.046576895e-08 6.839700688e-09 3.816019362e-09)
5(4.466426769e-08 3.011976369e-08 9.48376734e-09 2.558164746e-09 1.26184147e-09)
5(2.411739498e-08 1.53430445e-08 3.755367722e-09 7.675594714e-10 3.168986525e-10)
5(1.054748221e-08 6.379662269e-09 1.17885286e-09 1.666094754e-10 5.567165051e-11)
5(3.410042489e-09 1.964022041e-09 2.5791984e-10 2.522195756e-11 6.323297141e-12)
5(9.529020238e-10 5.200661342e-10 3.867226194e-11 2.301890744e-12 4.585825757e-13)
5(1.450310736e-10 7.687495662e-11 3.327754338e-12 1.017196432e-13 1.994173764e-14)
5(1.049337571e-11 5.513181509e-12 1.865438795e-13 3.629659833e-15 4.019524081e-16)
5(5.713121678e-13 2.946394656e-13 4.390181852e-15 1.020180509e-16 3.329536032e-18)
5(7.907018846e-13 4.021960243e-13 6.567489301e-16 -1.262047976e-26 6.716629418e-23)
)


60
(
5(4.051681138e-08 -1.06896038e-08 -1.578995994e-08 1.945732955e-08 8.596356991e-09)
5(1.692589282e-08 5.751655576e-09 8.946536398e-09 3.059151787e-08 3.712386322e-08)
5(4.938362878e-09 1.202134701e-08 2.132533283e-08 3.982109315e-08 5.49026164e-08)
5(2.480595023e-09 1.276594327e-08 2.608117126e-08 4.651563264e-08 6.282416445e-08)
5(7.029437875e-09 1.360314943e-08 2.853549055e-08 5.092385137e-08 6.402577263e-08)
5(1.366442843e-08 1.623571203e-08 3.125795161e-08 5.396669306e-08 6.33687462e-08)
5(1.831502356e-08 1.918736187e-08 3.441034847e-08 5.784326959e-08 6.608647175e-08)
5(1.99066125e-08 2.196111883e-08 3.817154401e-08 6.239767732e-08 7.166351392e-08)
5(2.114793364e-08 2.499294733e-08 4.197415098e-08 6.686747834e-08 7.786692637e-08)
5(2.28858039e-08 2.776042947e-08 4.557631177e-08 7.112941537e-08 8.303483779e-08)
5(2.537129545e-08 3.039744961e-08 4.893674756e-08 7.531617378e-08 8.751491291e-08)
5(2.813744768e-08 3.295160591e-08 5.233831867e-08 7.965088476e-08 9.175439678e-08)
5(3.093253247e-08 3.562289319e-08 5.583105111e-08 8.415819025e-08 9.635831046e-08)
5(3.368978495e-08 3.851094954e-08 5.947801269e-08 8.873388215e-08 1.012657498e-07)
5(3.626960333e-08 4.145355556e-08 6.327963639e-08 9.342476957e-08 1.063835851e-07)
5(3.916774179e-08 4.456250095e-08 6.715593691e-08 9.816731396e-08 1.114655283e-07)
5(4.219106923e-08 4.780398954e-08 7.126957796e-08 1.030734814e-07 1.165364315e-07)
5(4.551166661e-08 5.124528573e-08 7.53740579e-08 1.079856824e-07 1.217369347e-07)
5(4.912724722e-08 5.497415894e-08 7.975039838e-08 1.131210732e-07 1.271190778e-07)
5(5.280702862e-08 5.891991151e-08 8.427544769e-08 1.18294073e-07 1.326502047e-07)
5(5.683098228e-08 6.316274192e-08 8.904006624e-08 1.236488306e-07 1.38313459e-07)
5(6.12728657e-08 6.777674046e-08 9.422189912e-08 1.292246635e-07 1.439030431e-07)
5(6.579990186e-08 7.265970665e-08 9.967345386e-08 1.348492932e-07 1.495051956e-07)
5(7.100116152e-08 7.79568784e-08 1.054010387e-07 1.407452174e-07 1.552433181e-07)
5(7.672782831e-08 8.370791471e-08 1.114198419e-07 1.469110548e-07 1.613214732e-07)
5(8.275482373e-08 8.991822238e-08 1.176899269e-07 1.531009063e-07 1.675657469e-07)
5(8.927737638e-08 9.654381257e-08 1.24283708e-07 1.59592701e-07 1.740975772e-07)
5(9.663729425e-08 1.038724805e-07 1.313335575e-07 1.662592437e-07 1.806330444e-07)
5(1.04663235e-07 1.11857543e-07 1.389011769e-07 1.731423581e-07 1.872090065e-07)
5(1.132020209e-07 1.205088415e-07 1.469460852e-07 1.800469786e-07 1.936910403e-07)
5(1.225528212e-07 1.298008447e-07 1.55419786e-07 1.872148643e-07 2.003064767e-07)
5(1.328377231e-07 1.398743903e-07 1.64272593e-07 1.945103669e-07 2.070492407e-07)
5(1.439984151e-07 1.507777281e-07 1.736360247e-07 2.018544932e-07 2.13640281e-07)
5(1.560390713e-07 1.62546588e-07 1.834672405e-07 2.092620931e-07 2.202764439e-07)
5(1.688341058e-07 1.749860008e-07 1.935085443e-07 2.164068254e-07 2.265481575e-07)
5(1.826637631e-07 1.880997389e-07 2.036501356e-07 2.228532425e-07 2.315207501e-07)
5(1.975137871e-07 2.019444655e-07 2.137411905e-07 2.281645799e-07 2.347567179e-07)
5(2.128404376e-07 2.159164122e-07 2.230835354e-07 2.320621814e-07 2.364234734e-07)
5(2.283448875e-07 2.299708342e-07 2.315810654e-07 2.342977186e-07 2.364390924e-07)
5(2.429866524e-07 2.433106043e-07 2.385666224e-07 2.342671852e-07 2.343923821e-07)
5(2.573192504e-07 2.550709097e-07 2.428023126e-07 2.307789526e-07 2.280185114e-07)
5(2.69440342e-07 2.643599465e-07 2.435444649e-07 2.238208943e-07 2.189854875e-07)
5(2.782653934e-07 2.694259632e-07 2.401624241e-07 2.110800007e-07 2.014259546e-07)
5(2.8379422e-07 2.699898659e-07 2.313879702e-07 1.928182519e-07 1.778769562e-07)
5(2.827124253e-07 2.642774145e-07 2.166307622e-07 1.688241805e-07 1.48910962e-07)
5(2.742263669e-07 2.517090702e-07 1.955055219e-07 1.409875325e-07 1.187533477e-07)
5(2.60338606e-07 2.33188051e-07 1.688163364e-07 1.111199692e-07 8.918612949e-08)
5(2.348544287e-07 2.057005502e-07 1.379176914e-07 8.129760361e-08 6.190700448e-08)
5(2.050379346e-07 1.735676857e-07 1.058500001e-07 5.50795389e-08 3.923104607e-08)
5(1.727610316e-07 1.399503633e-07 7.564094126e-08 3.36444431e-08 2.191201891e-08)
5(1.344559202e-07 1.036162626e-07 4.869050573e-08 1.819791879e-08 1.071997253e-08)
5(9.678959295e-08 7.106530972e-08 2.849406589e-08 8.426709876e-09 4.360191855e-09)
5(6.338926293e-08 4.33945981e-08 1.399734515e-08 3.316642686e-09 1.403734492e-09)
5(3.782744975e-08 2.418849054e-08 5.877761111e-09 9.938890539e-10 3.573438131e-10)
5(1.78922967e-08 1.08576941e-08 1.987133381e-09 2.158469002e-10 6.103876217e-11)
5(8.015577893e-09 4.537627608e-09 5.000456393e-10 2.830216481e-11 6.407762024e-12)
5(2.383802404e-09 1.308030636e-09 1.018135102e-10 3.266932707e-12 4.055998374e-13)