/*--------------------------------*- C++ -*----------------------------------*\
| =========                 |                                                 |
| \\      /  F ield         | OpenFOAM: The Open Source CFD Toolbox           |
|  \\    /   O peration     | Version:  2.3.1                                 |
|   \\  /    A nd           | Web:      www.OpenFOAM.org                      |
|    \\/     M anipulation  |                                                 |
\*---------------------------------------------------------------------------*/
FoamFile
{
    version     2.0;
    format      ascii;
    class       dictionary;
    location    "constant";
    object      DPSI41;
}
// * * * * * * * * * * * * * * * * * * * * * * * * * * * * * * * * * * * * * //

DPSI41_table
60
(

60
(
5(-2.69238383e-06 -2.331408356e-06 -2.235510217e-06 -2.235837163e-06 -1.960823696e-06)
5(-2.604260662e-06 -2.440027816e-06 -2.409087202e-06 -2.416188749e-06 -2.325885136e-06)
5(-2.460847713e-06 -2.755415218e-06 -2.595219397e-06 -2.580895528e-06 -2.34021033e-06)
5(-2.501873806e-06 -2.987125382e-06 -2.843524868e-06 -2.734848647e-06 -2.926177727e-06)
5(-2.806203185e-06 -3.140054561e-06 -3.019139872e-06 -2.995098334e-06 -3.014338975e-06)
5(-3.170016888e-06 -3.298867597e-06 -3.097748361e-06 -3.165220384e-06 -3.10371743e-06)
5(-3.403993863e-06 -3.469691911e-06 -3.295524039e-06 -3.306524979e-06 -3.328828639e-06)
5(-3.514634235e-06 -3.641398472e-06 -3.515956392e-06 -3.509749231e-06 -3.445747827e-06)
5(-3.707212247e-06 -3.820497147e-06 -3.680325747e-06 -3.686303605e-06 -3.676622757e-06)
5(-3.85569891e-06 -3.986625692e-06 -3.868907137e-06 -3.846479056e-06 -3.860028047e-06)
5(-4.015855957e-06 -4.141966515e-06 -4.025830713e-06 -4.005709906e-06 -4.023989232e-06)
5(-4.167589798e-06 -4.292043591e-06 -4.166573271e-06 -4.157999192e-06 -4.171785477e-06)
5(-4.304418902e-06 -4.437817648e-06 -4.312384173e-06 -4.312259204e-06 -4.330705966e-06)
5(-4.458834975e-06 -4.583086385e-06 -4.462462743e-06 -4.450120708e-06 -4.475093238e-06)
5(-4.58675867e-06 -4.717299473e-06 -4.59983228e-06 -4.596076745e-06 -4.625226779e-06)
5(-4.723514231e-06 -4.853303196e-06 -4.740918335e-06 -4.733881024e-06 -4.768639233e-06)
5(-4.854939603e-06 -4.983979991e-06 -4.875429629e-06 -4.866960838e-06 -4.908575799e-06)
5(-4.982735267e-06 -5.112146293e-06 -5.00588324e-06 -4.998993856e-06 -5.04550203e-06)
5(-5.106421375e-06 -5.237601945e-06 -5.133931717e-06 -5.124824531e-06 -5.176144628e-06)
5(-5.230832138e-06 -5.363739632e-06 -5.260445552e-06 -5.253828871e-06 -5.307958392e-06)
5(-5.350033442e-06 -5.481892889e-06 -5.379742314e-06 -5.372888813e-06 -5.432210012e-06)
5(-5.467034039e-06 -5.598801846e-06 -5.5018514e-06 -5.484123857e-06 -5.547802505e-06)
5(-5.584501666e-06 -5.715850527e-06 -5.617439254e-06 -5.602620471e-06 -5.670555987e-06)
5(-5.69333828e-06 -5.830612434e-06 -5.732663101e-06 -5.715841646e-06 -5.78708971e-06)
5(-5.804935519e-06 -5.941195467e-06 -5.844693373e-06 -5.827562777e-06 -5.902512322e-06)
5(-5.912756671e-06 -6.047765586e-06 -5.95478366e-06 -5.938497626e-06 -6.015730486e-06)
5(-6.020164675e-06 -6.153605237e-06 -6.057033313e-06 -6.042197002e-06 -6.1244642e-06)
5(-6.122675445e-06 -6.256132871e-06 -6.161309735e-06 -6.144804309e-06 -6.229947715e-06)
5(-6.226872896e-06 -6.359536099e-06 -6.261488316e-06 -6.24093376e-06 -6.329480136e-06)
5(-6.325051938e-06 -6.459787156e-06 -6.360488442e-06 -6.333777008e-06 -6.424304878e-06)
5(-6.422935224e-06 -6.556487257e-06 -6.456690712e-06 -6.427779654e-06 -6.51940526e-06)
5(-6.517378188e-06 -6.64909715e-06 -6.547957596e-06 -6.515907207e-06 -6.605803909e-06)
5(-6.606423402e-06 -6.738450901e-06 -6.637051264e-06 -6.598746739e-06 -6.693721596e-06)
5(-6.693390994e-06 -6.82487632e-06 -6.724996673e-06 -6.687605829e-06 -6.782668838e-06)
5(-6.77880048e-06 -6.907568216e-06 -6.805188103e-06 -6.769752733e-06 -6.871202623e-06)
5(-6.856173475e-06 -6.985766016e-06 -6.889056488e-06 -6.852674001e-06 -6.956076719e-06)
5(-6.93759712e-06 -7.062733695e-06 -6.955923258e-06 -6.91484876e-06 -7.022446082e-06)
5(-7.00721857e-06 -7.135762823e-06 -7.027409364e-06 -6.998610519e-06 -7.106715502e-06)
5(-7.07823961e-06 -7.200910663e-06 -7.098564649e-06 -7.061278207e-06 -7.174678947e-06)
5(-7.145994009e-06 -7.264778633e-06 -7.167219005e-06 -7.208983534e-06 -7.356770383e-06)
5(-7.207565989e-06 -7.326790012e-06 -7.230200029e-06 -7.314520582e-06 -7.514081273e-06)
5(-7.259855432e-06 -7.381856993e-06 -7.319786244e-06 -7.429240516e-06 -7.655926227e-06)
5(-7.317165688e-06 -7.432215427e-06 -7.442701837e-06 -7.527393347e-06 -7.721630221e-06)
5(-7.368537058e-06 -7.467557307e-06 -7.562426106e-06 -7.676846291e-06 -7.820392514e-06)
5(-7.423411654e-06 -7.517523385e-06 -7.674662556e-06 -7.80438816e-06 -7.884552728e-06)
5(-7.459362932e-06 -7.58506061e-06 -7.792915016e-06 -7.907016619e-06 -7.929764164e-06)
5(-7.496297305e-06 -7.708806725e-06 -7.874903704e-06 -7.939653362e-06 -7.978092802e-06)
5(-7.554709795e-06 -7.807729027e-06 -7.962972067e-06 -7.978874128e-06 -8.025061374e-06)
5(-7.623333962e-06 -7.919120835e-06 -8.057254297e-06 -8.012866481e-06 -8.059897849e-06)
5(-7.850403599e-06 -7.979926873e-06 -8.056101079e-06 -8.028713914e-06 -8.06896268e-06)
5(-7.975042396e-06 -8.068009866e-06 -8.083059334e-06 -8.025238331e-06 -8.052053015e-06)
5(-7.978802622e-06 -8.094579322e-06 -8.085881275e-06 -7.999294803e-06 -8.008177875e-06)
5(-8.010274029e-06 -8.115141294e-06 -8.069476485e-06 -7.949089278e-06 -7.937492015e-06)
5(-8.020696288e-06 -8.110690132e-06 -8.030638626e-06 -7.867612812e-06 -7.834398761e-06)
5(-7.985056337e-06 -8.071365212e-06 -7.962736638e-06 -7.747163797e-06 -7.689439687e-06)
5(-7.920915412e-06 -8.002046785e-06 -7.858504565e-06 -7.578731319e-06 -7.494453913e-06)
5(-7.844056901e-06 -7.907649209e-06 -7.709505802e-06 -7.353881444e-06 -7.240815508e-06)
5(-7.734991954e-06 -7.78529726e-06 -7.513884164e-06 -7.066669643e-06 -6.923637199e-06)
5(-7.606791854e-06 -7.628772604e-06 -7.297850259e-06 -6.694479942e-06 -6.460402329e-06)
5(-7.463992243e-06 -7.437641409e-06 -6.915947532e-06 -6.281166926e-06 -6.104099454e-06)
)


60
(
5(-2.66341697e-06 -2.326413167e-06 -2.17685044e-06 -2.220037762e-06 -1.954291898e-06)
5(-2.635675666e-06 -2.612250911e-06 -2.441053569e-06 -2.470234417e-06 -2.385209765e-06)
5(-2.703184383e-06 -2.841809532e-06 -2.672687848e-06 -2.70055377e-06 -2.708041559e-06)
5(-2.850995561e-06 -3.031214207e-06 -2.880580369e-06 -2.908128539e-06 -2.944184455e-06)
5(-3.052521496e-06 -3.202351764e-06 -3.070311157e-06 -3.093730487e-06 -3.114733076e-06)
5(-3.270537171e-06 -3.37413167e-06 -3.249521158e-06 -3.262277134e-06 -3.257037875e-06)
5(-3.461024093e-06 -3.547614165e-06 -3.423368863e-06 -3.431322761e-06 -3.420491466e-06)
5(-3.620075295e-06 -3.715644697e-06 -3.594501185e-06 -3.600815059e-06 -3.603471228e-06)
5(-3.766845225e-06 -3.878129503e-06 -3.760049027e-06 -3.764431939e-06 -3.786023212e-06)
5(-3.915181619e-06 -4.033918136e-06 -3.9186059e-06 -3.920287866e-06 -3.953040585e-06)
5(-4.063310109e-06 -4.182872433e-06 -4.070576351e-06 -4.069640872e-06 -4.107402451e-06)
5(-4.210529565e-06 -4.326203905e-06 -4.217902801e-06 -4.214614704e-06 -4.253871161e-06)
5(-4.352980927e-06 -4.465871216e-06 -4.360819265e-06 -4.356854178e-06 -4.398817776e-06)
5(-4.488985488e-06 -4.602270042e-06 -4.499958874e-06 -4.495726411e-06 -4.542905359e-06)
5(-4.62079681e-06 -4.73523278e-06 -4.635455758e-06 -4.630252791e-06 -4.682775432e-06)
5(-4.749303004e-06 -4.864751104e-06 -4.76789064e-06 -4.761452643e-06 -4.818251982e-06)
5(-4.875431194e-06 -4.990971205e-06 -4.896663443e-06 -4.889309e-06 -4.949492472e-06)
5(-4.998748297e-06 -5.114411168e-06 -5.022122997e-06 -5.013834278e-06 -5.077709495e-06)
5(-5.1195296e-06 -5.235198035e-06 -5.144090226e-06 -5.135472524e-06 -5.204078599e-06)
5(-5.237168766e-06 -5.353689685e-06 -5.263335092e-06 -5.253885388e-06 -5.327428621e-06)
5(-5.352854389e-06 -5.469981081e-06 -5.380322792e-06 -5.369779776e-06 -5.447572019e-06)
5(-5.466065195e-06 -5.584075402e-06 -5.49555795e-06 -5.482980367e-06 -5.563175808e-06)
5(-5.576393087e-06 -5.695476257e-06 -5.609162483e-06 -5.593523633e-06 -5.674626905e-06)
5(-5.684820588e-06 -5.804611133e-06 -5.720340946e-06 -5.701672357e-06 -5.783630715e-06)
5(-5.791348293e-06 -5.911417411e-06 -5.827760204e-06 -5.807163161e-06 -5.891274083e-06)
5(-5.896006297e-06 -6.015809847e-06 -5.931994327e-06 -5.910167888e-06 -5.997579586e-06)
5(-5.998800369e-06 -6.118027474e-06 -6.033146119e-06 -6.010124969e-06 -6.101089772e-06)
5(-6.099129271e-06 -6.218058849e-06 -6.132238751e-06 -6.107157899e-06 -6.200360469e-06)
5(-6.197497378e-06 -6.315808979e-06 -6.229070576e-06 -6.200880864e-06 -6.295361555e-06)
5(-6.293808307e-06 -6.411211157e-06 -6.322991769e-06 -6.291507795e-06 -6.387090556e-06)
5(-6.387510798e-06 -6.503855508e-06 -6.41371586e-06 -6.378809061e-06 -6.475784001e-06)
5(-6.478216455e-06 -6.593412471e-06 -6.501057663e-06 -6.463392976e-06 -6.562113234e-06)
5(-6.565680652e-06 -6.679768605e-06 -6.585364682e-06 -6.545741535e-06 -6.647186231e-06)
5(-6.6497325e-06 -6.762527143e-06 -6.666425885e-06 -6.626796541e-06 -6.732069519e-06)
5(-6.72995456e-06 -6.841668052e-06 -6.74455141e-06 -6.706045836e-06 -6.815808136e-06)
5(-6.807597075e-06 -6.917324846e-06 -6.819088018e-06 -6.78149475e-06 -6.894627276e-06)
5(-6.880862932e-06 -6.988784088e-06 -6.889999937e-06 -6.850772491e-06 -6.964690314e-06)
5(-6.950790539e-06 -7.056275993e-06 -6.957442813e-06 -6.91617998e-06 -7.029027604e-06)
5(-7.016631615e-06 -7.120066369e-06 -7.021640486e-06 -6.986879119e-06 -7.107222148e-06)
5(-7.076946901e-06 -7.180816177e-06 -7.084116593e-06 -7.074091744e-06 -7.22068151e-06)
5(-7.132595924e-06 -7.23804192e-06 -7.146640942e-06 -7.184809283e-06 -7.378401988e-06)
5(-7.184039735e-06 -7.290410172e-06 -7.216486994e-06 -7.31358666e-06 -7.55208217e-06)
5(-7.234749325e-06 -7.336119568e-06 -7.30083142e-06 -7.450076253e-06 -7.700225276e-06)
5(-7.2855343e-06 -7.375387551e-06 -7.404964979e-06 -7.583288528e-06 -7.790073223e-06)
5(-7.331634859e-06 -7.417575399e-06 -7.524030034e-06 -7.706308165e-06 -7.839557664e-06)
5(-7.368889414e-06 -7.472804276e-06 -7.648633368e-06 -7.811113963e-06 -7.876602817e-06)
5(-7.395034195e-06 -7.551867493e-06 -7.771621863e-06 -7.885767067e-06 -7.914952799e-06)
5(-7.428509886e-06 -7.649311094e-06 -7.882147577e-06 -7.932877546e-06 -7.952266341e-06)
5(-7.494488584e-06 -7.754137035e-06 -7.968805939e-06 -7.957831231e-06 -7.974346346e-06)
5(-7.611567479e-06 -7.856855029e-06 -8.020244014e-06 -7.962601789e-06 -7.970159634e-06)
5(-7.756155476e-06 -7.945946912e-06 -8.036343899e-06 -7.948696998e-06 -7.944809864e-06)
5(-7.88276372e-06 -8.009340328e-06 -8.024024821e-06 -7.911399599e-06 -7.895927648e-06)
5(-7.950984781e-06 -8.035134069e-06 -7.993852992e-06 -7.851129949e-06 -7.819740511e-06)
5(-7.952383429e-06 -8.019692105e-06 -7.943515834e-06 -7.760233356e-06 -7.70708126e-06)
5(-7.896334017e-06 -7.965591617e-06 -7.863527724e-06 -7.630885543e-06 -7.557005186e-06)
5(-7.80155643e-06 -7.87741824e-06 -7.7450832e-06 -7.452907322e-06 -7.357258321e-06)
5(-7.677503408e-06 -7.754377373e-06 -7.5807979e-06 -7.21918932e-06 -7.096289462e-06)
5(-7.531879303e-06 -7.600394172e-06 -7.363699619e-06 -6.919722795e-06 -6.769329631e-06)
5(-7.383499009e-06 -7.422769326e-06 -7.081984666e-06 -6.539845715e-06 -6.366662949e-06)
5(-7.204194929e-06 -7.220083924e-06 -6.707349034e-06 -6.015009616e-06 -5.815666729e-06)
)


60
(
5(-2.609153388e-06 -2.258001544e-06 -2.095636102e-06 -2.162600076e-06 -1.926903822e-06)
5(-2.594580952e-06 -2.558525595e-06 -2.393179867e-06 -2.424030341e-06 -2.366344666e-06)
5(-2.66560404e-06 -2.787875911e-06 -2.638155384e-06 -2.65913033e-06 -2.695184148e-06)
5(-2.810355908e-06 -2.970756578e-06 -2.84278025e-06 -2.865288618e-06 -2.926797084e-06)
5(-3.007251665e-06 -3.137190654e-06 -3.02468236e-06 -3.045618965e-06 -3.087528541e-06)
5(-3.21785583e-06 -3.306080915e-06 -3.197028553e-06 -3.208527061e-06 -3.220713942e-06)
5(-3.402954154e-06 -3.475135113e-06 -3.366270997e-06 -3.372804382e-06 -3.377904722e-06)
5(-3.557722559e-06 -3.639507074e-06 -3.533331593e-06 -3.538068204e-06 -3.556142869e-06)
5(-3.701198479e-06 -3.799037124e-06 -3.69550038e-06 -3.698253877e-06 -3.734303378e-06)
5(-3.84554462e-06 -3.951566667e-06 -3.850144207e-06 -3.849975251e-06 -3.896962405e-06)
5(-3.990060906e-06 -4.097125732e-06 -3.998531389e-06 -3.9957837e-06 -4.046760464e-06)
5(-4.133337649e-06 -4.237382429e-06 -4.141666151e-06 -4.137350985e-06 -4.189115887e-06)
5(-4.272433422e-06 -4.374097265e-06 -4.281152978e-06 -4.276286615e-06 -4.329659719e-06)
5(-4.405490124e-06 -4.507724851e-06 -4.417014492e-06 -4.411810349e-06 -4.469539753e-06)
5(-4.533763799e-06 -4.637931857e-06 -4.549950377e-06 -4.54362731e-06 -4.605683434e-06)
5(-4.659180457e-06 -4.764661529e-06 -4.678901605e-06 -4.671940683e-06 -4.737965728e-06)
5(-4.782486926e-06 -4.888239104e-06 -4.804843998e-06 -4.796945062e-06 -4.865624115e-06)
5(-4.903062524e-06 -5.00908136e-06 -4.927230709e-06 -4.918771432e-06 -4.990503281e-06)
5(-5.02143917e-06 -5.127572314e-06 -5.046449988e-06 -5.037267408e-06 -5.112569058e-06)
5(-5.136434584e-06 -5.243542639e-06 -5.162900544e-06 -5.153229704e-06 -5.232984031e-06)
5(-5.248768215e-06 -5.357433573e-06 -5.27745897e-06 -5.266409114e-06 -5.349973905e-06)
5(-5.359313866e-06 -5.469040495e-06 -5.390099022e-06 -5.377085029e-06 -5.46280112e-06)
5(-5.467386445e-06 -5.578312283e-06 -5.501041464e-06 -5.485242873e-06 -5.571636683e-06)
5(-5.573541473e-06 -5.685253667e-06 -5.609433603e-06 -5.591064872e-06 -5.678193234e-06)
5(-5.677660394e-06 -5.78980251e-06 -5.714590382e-06 -5.694451489e-06 -5.783418992e-06)
5(-5.780103705e-06 -5.892159265e-06 -5.816203501e-06 -5.795060987e-06 -5.887070282e-06)
5(-5.880078198e-06 -5.992165577e-06 -5.915225387e-06 -5.892803957e-06 -5.988115015e-06)
5(-5.978223418e-06 -6.090350014e-06 -6.011959857e-06 -5.987557489e-06 -6.085363326e-06)
5(-6.0745212e-06 -6.186201361e-06 -6.10640605e-06 -6.079213511e-06 -6.178686779e-06)
5(-6.168452992e-06 -6.279529109e-06 -6.198382906e-06 -6.167817802e-06 -6.267695877e-06)
5(-6.260151665e-06 -6.370511148e-06 -6.287251704e-06 -6.253022833e-06 -6.353654856e-06)
5(-6.348951394e-06 -6.458317257e-06 -6.372812477e-06 -6.335854752e-06 -6.437905048e-06)
5(-6.4342865e-06 -6.543041956e-06 -6.455346587e-06 -6.416362524e-06 -6.520985986e-06)
5(-6.517050793e-06 -6.624419724e-06 -6.534603371e-06 -6.49541895e-06 -6.603205948e-06)
5(-6.595479373e-06 -6.702065138e-06 -6.61091077e-06 -6.572737332e-06 -6.684724327e-06)
5(-6.669671972e-06 -6.775855533e-06 -6.683768462e-06 -6.6459548e-06 -6.761566194e-06)
5(-6.741777297e-06 -6.845927685e-06 -6.753092256e-06 -6.713882893e-06 -6.829599374e-06)
5(-6.809728352e-06 -6.911843508e-06 -6.81885348e-06 -6.777654201e-06 -6.892188124e-06)
5(-6.873152964e-06 -6.97434306e-06 -6.882002272e-06 -6.846818948e-06 -6.968101477e-06)
5(-6.931519046e-06 -7.033078357e-06 -6.943066636e-06 -6.932810221e-06 -7.079404101e-06)
5(-6.985111248e-06 -7.088447096e-06 -7.003982691e-06 -7.041640874e-06 -7.234711735e-06)
5(-7.034854615e-06 -7.139194814e-06 -7.071830418e-06 -7.166850296e-06 -7.403254762e-06)
5(-7.082990025e-06 -7.183094382e-06 -7.153537271e-06 -7.29992547e-06 -7.54798377e-06)
5(-7.130793938e-06 -7.221026726e-06 -7.254411795e-06 -7.431415477e-06 -7.63937635e-06)
5(-7.175135568e-06 -7.261461826e-06 -7.369105755e-06 -7.55148569e-06 -7.688925473e-06)
5(-7.209799814e-06 -7.3152562e-06 -7.490308455e-06 -7.651015909e-06 -7.720629646e-06)
5(-7.234153256e-06 -7.390806267e-06 -7.60908395e-06 -7.723050221e-06 -7.756009822e-06)
5(-7.265068671e-06 -7.482646609e-06 -7.715686905e-06 -7.769883458e-06 -7.791286794e-06)
5(-7.327646417e-06 -7.582414097e-06 -7.79828034e-06 -7.794398801e-06 -7.814143906e-06)
5(-7.439474399e-06 -7.681215875e-06 -7.846124362e-06 -7.798432498e-06 -7.813246553e-06)
5(-7.576297656e-06 -7.766163628e-06 -7.860798747e-06 -7.781621718e-06 -7.783067964e-06)
5(-7.6959498e-06 -7.825142385e-06 -7.850344999e-06 -7.747309463e-06 -7.732915994e-06)
5(-7.758141876e-06 -7.849012543e-06 -7.821140876e-06 -7.687661556e-06 -7.658029455e-06)
5(-7.757615362e-06 -7.833333811e-06 -7.770581927e-06 -7.598297793e-06 -7.549967545e-06)
5(-7.705576677e-06 -7.780745235e-06 -7.691781431e-06 -7.470236941e-06 -7.39904633e-06)
5(-7.61268033e-06 -7.694164066e-06 -7.577424984e-06 -7.295095837e-06 -7.198013853e-06)
5(-7.490858169e-06 -7.575218508e-06 -7.417540069e-06 -7.064015324e-06 -6.939950845e-06)
5(-7.349381182e-06 -7.426101012e-06 -7.20164484e-06 -6.766327776e-06 -6.620952947e-06)
5(-7.200443825e-06 -7.245701395e-06 -6.922489024e-06 -6.396658108e-06 -6.227182391e-06)
5(-7.015930244e-06 -7.035354147e-06 -6.548454775e-06 -5.870665977e-06 -5.668469018e-06)
)


60
(
5(-2.546817111e-06 -2.178076749e-06 -2.006880974e-06 -2.094056662e-06 -1.892032126e-06)
5(-2.537715222e-06 -2.488527738e-06 -2.327834524e-06 -2.35994174e-06 -2.328304591e-06)
5(-2.607843001e-06 -2.716589485e-06 -2.579853594e-06 -2.596075628e-06 -2.653838987e-06)
5(-2.749224017e-06 -2.893068381e-06 -2.780743043e-06 -2.800430548e-06 -2.880311917e-06)
5(-2.941617749e-06 -3.05524496e-06 -2.9566535e-06 -2.976817083e-06 -3.034310638e-06)
5(-3.146635489e-06 -3.221652611e-06 -3.124549031e-06 -3.135125804e-06 -3.161690469e-06)
5(-3.327209965e-06 -3.387363347e-06 -3.289772234e-06 -3.295533543e-06 -3.314041486e-06)
5(-3.478093345e-06 -3.548167615e-06 -3.45330875e-06 -3.457429857e-06 -3.488051536e-06)
5(-3.618089186e-06 -3.70460288e-06 -3.612149007e-06 -3.614183937e-06 -3.662097187e-06)
5(-3.758971269e-06 -3.854209849e-06 -3.763545309e-06 -3.762731996e-06 -3.82070712e-06)
5(-3.900312212e-06 -3.996889113e-06 -3.908498767e-06 -3.905220222e-06 -3.966458047e-06)
5(-4.040175553e-06 -4.134417393e-06 -4.048410249e-06 -4.043697821e-06 -4.105146742e-06)
5(-4.175824008e-06 -4.268293863e-06 -4.184755568e-06 -4.179741465e-06 -4.242343958e-06)
5(-4.305910093e-06 -4.39926843e-06 -4.31776956e-06 -4.312456598e-06 -4.378620951e-06)
5(-4.431376499e-06 -4.526909588e-06 -4.447610168e-06 -4.441508357e-06 -4.511972327e-06)
5(-4.554338849e-06 -4.651157006e-06 -4.573980232e-06 -4.567275941e-06 -4.640864845e-06)
5(-4.674787548e-06 -4.772382065e-06 -4.697184547e-06 -4.68965765e-06 -4.765360689e-06)
5(-4.792818096e-06 -4.890811051e-06 -4.81740323e-06 -4.808931493e-06 -4.886436549e-06)
5(-4.908265513e-06 -5.007010245e-06 -4.933941164e-06 -4.925271705e-06 -5.006664625e-06)
5(-5.020975597e-06 -5.120726864e-06 -5.04795122e-06 -5.038927584e-06 -5.124321019e-06)
5(-5.130874587e-06 -5.232298004e-06 -5.160278114e-06 -5.150149868e-06 -5.23884109e-06)
5(-5.238746875e-06 -5.341656167e-06 -5.270482154e-06 -5.258393258e-06 -5.348881876e-06)
5(-5.34460014e-06 -5.448849828e-06 -5.37924699e-06 -5.364241209e-06 -5.454642313e-06)
5(-5.449135518e-06 -5.553622239e-06 -5.485089898e-06 -5.467965394e-06 -5.558343489e-06)
5(-5.551030064e-06 -5.656226257e-06 -5.588194921e-06 -5.568943926e-06 -5.660643948e-06)
5(-5.651197341e-06 -5.75660644e-06 -5.687927135e-06 -5.667592426e-06 -5.761807577e-06)
5(-5.749446088e-06 -5.854763618e-06 -5.784687251e-06 -5.763618846e-06 -5.861073461e-06)
5(-5.845499067e-06 -5.950892408e-06 -5.879331745e-06 -5.856443255e-06 -5.95627356e-06)
5(-5.93960564e-06 -6.044895739e-06 -5.971785354e-06 -5.946343591e-06 -6.047641506e-06)
5(-6.031326069e-06 -6.136445076e-06 -6.061940014e-06 -6.033171313e-06 -6.13491211e-06)
5(-6.120454854e-06 -6.225425856e-06 -6.148911492e-06 -6.117011893e-06 -6.219902673e-06)
5(-6.20670764e-06 -6.311146003e-06 -6.232785781e-06 -6.198330763e-06 -6.302339183e-06)
5(-6.289915785e-06 -6.39417775e-06 -6.313247481e-06 -6.276938231e-06 -6.38391293e-06)
5(-6.369370234e-06 -6.473535865e-06 -6.391315902e-06 -6.354322721e-06 -6.464087241e-06)
5(-6.445965853e-06 -6.549527116e-06 -6.465838579e-06 -6.430035491e-06 -6.544015563e-06)
5(-6.518975127e-06 -6.622226439e-06 -6.53716922e-06 -6.501924067e-06 -6.619541295e-06)
5(-6.588851274e-06 -6.690538824e-06 -6.604939925e-06 -6.568659732e-06 -6.686339474e-06)
5(-6.6545457e-06 -6.75517487e-06 -6.669394633e-06 -6.631156763e-06 -6.747950097e-06)
5(-6.715888949e-06 -6.815827236e-06 -6.731097331e-06 -6.699334249e-06 -6.822829645e-06)
5(-6.772638165e-06 -6.873101738e-06 -6.790662239e-06 -6.783707827e-06 -6.932163198e-06)
5(-6.82392655e-06 -6.927246043e-06 -6.850566674e-06 -6.890404632e-06 -7.084440913e-06)
5(-6.872006255e-06 -6.976461248e-06 -6.916616696e-06 -7.013132378e-06 -7.249728246e-06)
5(-6.918083346e-06 -7.019285023e-06 -6.996858538e-06 -7.14322638e-06 -7.390365313e-06)
5(-6.96353988e-06 -7.056161373e-06 -7.095873755e-06 -7.271221244e-06 -7.477751444e-06)
5(-7.005342937e-06 -7.095457212e-06 -7.207747179e-06 -7.388055832e-06 -7.52542725e-06)
5(-7.038594334e-06 -7.147566759e-06 -7.325235334e-06 -7.484984029e-06 -7.556416739e-06)
5(-7.061514069e-06 -7.220019561e-06 -7.44082426e-06 -7.555446526e-06 -7.590042998e-06)
5(-7.089798274e-06 -7.309136068e-06 -7.543955061e-06 -7.599834439e-06 -7.624478486e-06)
5(-7.148324224e-06 -7.404636053e-06 -7.622659489e-06 -7.622901784e-06 -7.647484119e-06)
5(-7.255429869e-06 -7.497438857e-06 -7.666960288e-06 -7.627589422e-06 -7.647569441e-06)
5(-7.384906966e-06 -7.577358184e-06 -7.680077082e-06 -7.611812357e-06 -7.619684482e-06)
5(-7.49707473e-06 -7.632255677e-06 -7.667903379e-06 -7.57561284e-06 -7.567873478e-06)
5(-7.554630076e-06 -7.65240885e-06 -7.638695995e-06 -7.515857783e-06 -7.488385601e-06)
5(-7.551034521e-06 -7.635342671e-06 -7.588406566e-06 -7.426874565e-06 -7.380412745e-06)
5(-7.498227467e-06 -7.581701041e-06 -7.508967602e-06 -7.301313057e-06 -7.23401947e-06)
5(-7.405473125e-06 -7.495483455e-06 -7.394713536e-06 -7.127231246e-06 -7.035355186e-06)
5(-7.284574639e-06 -7.378187609e-06 -7.236377318e-06 -6.901912746e-06 -6.78914099e-06)
5(-7.146855597e-06 -7.231379291e-06 -7.025381176e-06 -6.612217132e-06 -6.47685814e-06)
5(-6.99944977e-06 -7.053730926e-06 -6.753179652e-06 -6.245952448e-06 -6.079193138e-06)
5(-6.862160535e-06 -6.832459158e-06 -6.347986844e-06 -5.740092513e-06 -5.569235273e-06)
)


60
(
5(-2.481752026e-06 -2.09569374e-06 -1.91576471e-06 -2.022366642e-06 -1.854411514e-06)
5(-2.474724911e-06 -2.414224916e-06 -2.255827375e-06 -2.289792973e-06 -2.282551775e-06)
5(-2.542755974e-06 -2.64027727e-06 -2.512498959e-06 -2.52554723e-06 -2.601540997e-06)
5(-2.680289224e-06 -2.810037648e-06 -2.709144578e-06 -2.727752406e-06 -2.822095126e-06)
5(-2.86861001e-06 -2.967946587e-06 -2.879865302e-06 -2.90041527e-06 -2.970717576e-06)
5(-3.068475448e-06 -3.131972686e-06 -3.043852747e-06 -3.054268538e-06 -3.093342245e-06)
5(-3.244629808e-06 -3.294074075e-06 -3.205168299e-06 -3.21102282e-06 -3.24119838e-06)
5(-3.391541433e-06 -3.451255029e-06 -3.365177536e-06 -3.369604815e-06 -3.41089714e-06)
5(-3.528365744e-06 -3.60459375e-06 -3.52056834e-06 -3.522869241e-06 -3.580845272e-06)
5(-3.665943831e-06 -3.751126606e-06 -3.668711984e-06 -3.668072293e-06 -3.735402797e-06)
5(-3.803875413e-06 -3.890930584e-06 -3.81041117e-06 -3.807420174e-06 -3.877567641e-06)
5(-3.940413751e-06 -4.025456411e-06 -3.947248808e-06 -3.943111041e-06 -4.012784629e-06)
5(-4.073080948e-06 -4.156664508e-06 -4.080614356e-06 -4.076041649e-06 -4.1463829e-06)
5(-4.199934818e-06 -4.284894563e-06 -4.210699128e-06 -4.205967088e-06 -4.279507427e-06)
5(-4.322628401e-06 -4.410049584e-06 -4.337716406e-06 -4.332306116e-06 -4.409729499e-06)
5(-4.44284033e-06 -4.531741958e-06 -4.461295385e-06 -4.455505969e-06 -4.53554249e-06)
5(-4.560571605e-06 -4.650481141e-06 -4.581992442e-06 -4.575256693e-06 -4.657004945e-06)
5(-4.676157223e-06 -4.766593982e-06 -4.699314923e-06 -4.692017169e-06 -4.775928527e-06)
5(-4.789259283e-06 -4.88034401e-06 -4.813577893e-06 -4.806151302e-06 -4.892829133e-06)
5(-4.899280109e-06 -4.991787997e-06 -4.925427834e-06 -4.917391052e-06 -5.007376562e-06)
5(-5.006934673e-06 -5.101076085e-06 -5.035336258e-06 -5.026166318e-06 -5.118786793e-06)
5(-5.112583853e-06 -5.208227139e-06 -5.143280707e-06 -5.132499816e-06 -5.226787357e-06)
5(-5.216208897e-06 -5.313198989e-06 -5.249540714e-06 -5.236337057e-06 -5.330825046e-06)
5(-5.317948285e-06 -5.416002923e-06 -5.353632144e-06 -5.337905688e-06 -5.432113297e-06)
5(-5.418201136e-06 -5.51650896e-06 -5.454425664e-06 -5.437145512e-06 -5.532152494e-06)
5(-5.515510495e-06 -5.61451379e-06 -5.552286584e-06 -5.533715522e-06 -5.630583091e-06)
5(-5.611999918e-06 -5.710736552e-06 -5.646797801e-06 -5.62752391e-06 -5.727231346e-06)
5(-5.705866595e-06 -5.804964854e-06 -5.739530411e-06 -5.718541692e-06 -5.82052951e-06)
5(-5.798034359e-06 -5.897023338e-06 -5.829990046e-06 -5.806623781e-06 -5.909790334e-06)
5(-5.887598338e-06 -5.986700203e-06 -5.918301662e-06 -5.891645259e-06 -5.994969612e-06)
5(-5.974466237e-06 -6.073741331e-06 -6.003614989e-06 -5.973880585e-06 -6.077949031e-06)
5(-6.058776062e-06 -6.15797799e-06 -6.085683718e-06 -6.053345029e-06 -6.158749779e-06)
5(-6.139967952e-06 -6.239016473e-06 -6.164615478e-06 -6.130757757e-06 -6.238472753e-06)
5(-6.217822947e-06 -6.316575843e-06 -6.240631626e-06 -6.20664248e-06 -6.317418401e-06)
5(-6.292231488e-06 -6.391142157e-06 -6.31355702e-06 -6.280571748e-06 -6.395805862e-06)
5(-6.363392786e-06 -6.462177838e-06 -6.383386946e-06 -6.351201104e-06 -6.469960596e-06)
5(-6.431412471e-06 -6.529033653e-06 -6.44970985e-06 -6.416653673e-06 -6.535672606e-06)
5(-6.495389796e-06 -6.591870568e-06 -6.51260863e-06 -6.478341181e-06 -6.596352058e-06)
5(-6.55468622e-06 -6.651115764e-06 -6.573062012e-06 -6.545251838e-06 -6.66981042e-06)
5(-6.609440237e-06 -6.707176399e-06 -6.631152601e-06 -6.627500259e-06 -6.776868912e-06)
5(-6.658970862e-06 -6.759622285e-06 -6.689316622e-06 -6.731919428e-06 -6.926016294e-06)
5(-6.705199467e-06 -6.807159311e-06 -6.753855653e-06 -6.85219146e-06 -7.087611542e-06)
5(-6.748969215e-06 -6.848562189e-06 -6.832031851e-06 -6.979456889e-06 -7.225684784e-06)
5(-6.791411508e-06 -6.883978048e-06 -6.928589799e-06 -7.104863875e-06 -7.31218635e-06)
5(-6.830716732e-06 -6.921583588e-06 -7.037644147e-06 -7.219073421e-06 -7.358716614e-06)
5(-6.86145167e-06 -6.971280876e-06 -7.151988162e-06 -7.314179849e-06 -7.389687731e-06)
5(-6.881479878e-06 -7.041126389e-06 -7.264571391e-06 -7.382410978e-06 -7.422319212e-06)
5(-6.907848595e-06 -7.126005352e-06 -7.364386175e-06 -7.42554021e-06 -7.454461656e-06)
5(-6.962479519e-06 -7.217529074e-06 -7.440225824e-06 -7.44657573e-06 -7.475019926e-06)
5(-7.06544553e-06 -7.306219077e-06 -7.48177033e-06 -7.449025617e-06 -7.471946456e-06)
5(-7.190665732e-06 -7.382046906e-06 -7.491995616e-06 -7.432460542e-06 -7.444143135e-06)
5(-7.297331319e-06 -7.433563545e-06 -7.478707723e-06 -7.39517296e-06 -7.391566385e-06)
5(-7.350091123e-06 -7.449640927e-06 -7.446359421e-06 -7.33569908e-06 -7.316126724e-06)
5(-7.342570272e-06 -7.42808436e-06 -7.393858408e-06 -7.248183198e-06 -7.210203682e-06)
5(-7.286243233e-06 -7.371572374e-06 -7.314091134e-06 -7.124618133e-06 -7.065540585e-06)
5(-7.192852791e-06 -7.285256291e-06 -7.200486171e-06 -6.953628716e-06 -6.871872154e-06)
5(-7.072179817e-06 -7.168563742e-06 -7.044807444e-06 -6.730992824e-06 -6.625296652e-06)
5(-6.934512403e-06 -7.0236214e-06 -6.836708675e-06 -6.444923739e-06 -6.317214404e-06)
5(-6.791081256e-06 -6.849986499e-06 -6.565428147e-06 -6.083566892e-06 -5.932062327e-06)
5(-6.644217215e-06 -6.642394923e-06 -6.177853753e-06 -5.588303845e-06 -5.430469787e-06)
)


60
(
5(-2.416375579e-06 -2.014125615e-06 -1.824455507e-06 -1.950536857e-06 -1.816203793e-06)
5(-2.409599117e-06 -2.339626052e-06 -2.181316226e-06 -2.218116274e-06 -2.23373406e-06)
5(-2.474941876e-06 -2.563174702e-06 -2.441518687e-06 -2.452697334e-06 -2.544690311e-06)
5(-2.608604499e-06 -2.726247964e-06 -2.63378277e-06 -2.652578866e-06 -2.759028574e-06)
5(-2.792967811e-06 -2.879868175e-06 -2.799571498e-06 -2.821602298e-06 -2.902698268e-06)
5(-2.987796994e-06 -3.04134043e-06 -2.95993654e-06 -2.971055552e-06 -3.02109987e-06)
5(-3.15980403e-06 -3.199801141e-06 -3.117362337e-06 -3.124230301e-06 -3.164673803e-06)
5(-3.302798982e-06 -3.353366389e-06 -3.273904913e-06 -3.279308753e-06 -3.330006244e-06)
5(-3.43632718e-06 -3.503418448e-06 -3.425843244e-06 -3.429168713e-06 -3.495830625e-06)
5(-3.570773715e-06 -3.647028024e-06 -3.570657595e-06 -3.570997631e-06 -3.646601386e-06)
5(-3.705273901e-06 -3.783715905e-06 -3.709243692e-06 -3.707307043e-06 -3.785077787e-06)
5(-3.838719306e-06 -3.915448919e-06 -3.842968618e-06 -3.839881736e-06 -3.916877522e-06)
5(-3.968113917e-06 -4.043736026e-06 -3.973363998e-06 -3.970161197e-06 -4.047437378e-06)
5(-4.09231443e-06 -4.169378339e-06 -4.100645544e-06 -4.096993131e-06 -4.176968836e-06)
5(-4.212155978e-06 -4.291823932e-06 -4.224796162e-06 -4.220730571e-06 -4.304202747e-06)
5(-4.329348507e-06 -4.410932356e-06 -4.34588263e-06 -4.341188708e-06 -4.426904372e-06)
5(-4.44472227e-06 -4.527226579e-06 -4.463753043e-06 -4.458498735e-06 -4.54573825e-06)
5(-4.557563539e-06 -4.640857539e-06 -4.578675699e-06 -4.572901935e-06 -4.661657256e-06)
5(-4.668056094e-06 -4.752277169e-06 -4.690486047e-06 -4.68438995e-06 -4.775883071e-06)
5(-4.775881622e-06 -4.861359899e-06 -4.7998105e-06 -4.793436395e-06 -4.887922078e-06)
5(-4.881203557e-06 -4.968328197e-06 -4.907227786e-06 -4.900080614e-06 -4.997196865e-06)
5(-4.984660484e-06 -5.073370063e-06 -5.012951719e-06 -5.003961459e-06 -5.102311686e-06)
5(-5.085875128e-06 -5.176026386e-06 -5.117358666e-06 -5.105803696e-06 -5.203245275e-06)
5(-5.185424887e-06 -5.276609181e-06 -5.219280871e-06 -5.205291916e-06 -5.301955367e-06)
5(-5.283621687e-06 -5.37513494e-06 -5.317740745e-06 -5.302279039e-06 -5.399879873e-06)
5(-5.379687751e-06 -5.471222531e-06 -5.413259557e-06 -5.397129313e-06 -5.496417177e-06)
5(-5.473040208e-06 -5.565346316e-06 -5.506313196e-06 -5.489291007e-06 -5.59124196e-06)
5(-5.56488924e-06 -5.657540698e-06 -5.597007685e-06 -5.578641221e-06 -5.682927338e-06)
5(-5.654917283e-06 -5.747744118e-06 -5.685642922e-06 -5.664830994e-06 -5.770163148e-06)
5(-5.742510799e-06 -5.835435899e-06 -5.771988292e-06 -5.748151618e-06 -5.853416012e-06)
5(-5.82726936e-06 -5.920636706e-06 -5.855594111e-06 -5.82851641e-06 -5.934124024e-06)
5(-5.90945676e-06 -6.002763421e-06 -5.935847969e-06 -5.906500705e-06 -6.013338635e-06)
5(-5.988358785e-06 -6.082233546e-06 -6.013229087e-06 -5.982166915e-06 -6.091327361e-06)