/*--------------------------------*- C++ -*----------------------------------*\
| =========                 |                                                 |
| \\      /  F ield         | OpenFOAM: The Open Source CFD Toolbox           |
|  \\    /   O peration     | Version:  2.3.1                                 |
|   \\  /    A nd           | Web:      www.OpenFOAM.org                      |
|    \\/     M anipulation  |                                                 |
\*---------------------------------------------------------------------------*/
FoamFile
{
    version     2.0;
    format      ascii;
    class       dictionary;
    location    "constant";
    object      DPSI29;
}
// * * * * * * * * * * * * * * * * * * * * * * * * * * * * * * * * * * * * * //

DPSI29_table
60
(

60
(
5(-3.719942666e-09 -5.242124756e-09 -6.861500545e-09 -9.451652599e-09 -1.041088217e-08)
5(-4.947182758e-09 -7.77570829e-09 -8.583000406e-09 -1.157525315e-08 -1.332986563e-08)
5(-6.849538616e-09 -8.650726873e-09 -1.01842518e-08 -1.399942855e-08 -1.663088234e-08)
5(-7.25302567e-09 -9.902458118e-09 -1.15104398e-08 -1.704956768e-08 -1.691675016e-08)
5(-9.108371566e-09 -1.174659831e-08 -1.378261376e-08 -1.859214583e-08 -2.104746708e-08)
5(-1.04172892e-08 -1.384518652e-08 -1.782295176e-08 -2.116949803e-08 -2.495519463e-08)
5(-1.139485906e-08 -1.599875658e-08 -1.998767825e-08 -2.449760109e-08 -2.53829079e-08)
5(-1.385886169e-08 -1.801434664e-08 -2.1303913e-08 -2.634300028e-08 -3.055637092e-08)
5(-1.556578795e-08 -1.985449371e-08 -2.361583999e-08 -2.80682734e-08 -3.067737724e-08)
5(-1.758213194e-08 -2.166416126e-08 -2.471597889e-08 -2.999044155e-08 -3.119422566e-08)
5(-1.950146586e-08 -2.352888917e-08 -2.644231911e-08 -3.108543868e-08 -3.157959168e-08)
5(-2.112139317e-08 -2.496914976e-08 -2.85062133e-08 -3.176041528e-08 -3.217369923e-08)
5(-2.197215009e-08 -2.619278513e-08 -2.967049873e-08 -3.142420845e-08 -3.098912965e-08)
5(-2.284587877e-08 -2.704873479e-08 -3.001368118e-08 -3.185044426e-08 -3.032820624e-08)
5(-2.437476131e-08 -2.787175375e-08 -3.033989335e-08 -3.068363352e-08 -2.893160887e-08)
5(-2.538082624e-08 -2.857144201e-08 -3.008614512e-08 -2.977205464e-08 -2.720706321e-08)
5(-2.596019805e-08 -2.85311257e-08 -2.956494674e-08 -2.824972497e-08 -2.484791127e-08)
5(-2.604231751e-08 -2.80722947e-08 -2.813056589e-08 -2.629696828e-08 -2.284228371e-08)
5(-2.592786616e-08 -2.716307778e-08 -2.687717908e-08 -2.476525924e-08 -2.125285503e-08)
5(-2.54217442e-08 -2.581488106e-08 -2.528261646e-08 -2.266879771e-08 -1.962713126e-08)
5(-2.497565363e-08 -2.506003281e-08 -2.417948457e-08 -2.126202106e-08 -1.794048931e-08)
5(-2.424544132e-08 -2.398789085e-08 -2.267890584e-08 -2.06781775e-08 -1.710510733e-08)
5(-2.320396207e-08 -2.273863429e-08 -2.137345024e-08 -1.881487015e-08 -1.544616333e-08)
5(-2.242223872e-08 -2.135143058e-08 -2.004117411e-08 -1.758977381e-08 -1.448672024e-08)
5(-2.136948967e-08 -2.025522715e-08 -1.872602352e-08 -1.630397928e-08 -1.342346414e-08)
5(-2.041799968e-08 -1.928562433e-08 -1.741118315e-08 -1.510070843e-08 -1.267826008e-08)
5(-1.941331371e-08 -1.835083681e-08 -1.665091417e-08 -1.417880052e-08 -1.196951416e-08)
5(-1.858295457e-08 -1.740233614e-08 -1.562426366e-08 -1.339544463e-08 -1.137445651e-08)
5(-1.756777669e-08 -1.648168283e-08 -1.493803352e-08 -1.280722738e-08 -1.080215002e-08)
5(-1.678085487e-08 -1.559853953e-08 -1.425606206e-08 -1.238296713e-08 -1.038523604e-08)
5(-1.59729926e-08 -1.482645457e-08 -1.347391322e-08 -1.168321879e-08 -9.903469852e-09)
5(-1.532703155e-08 -1.425569364e-08 -1.300912986e-08 -1.140345134e-08 -9.904816602e-09)
5(-1.478793153e-08 -1.365869748e-08 -1.242224215e-08 -1.093129227e-08 -9.136850117e-09)
5(-1.424897878e-08 -1.30964224e-08 -1.183190142e-08 -1.05624917e-08 -9.152567787e-09)
5(-1.376999254e-08 -1.269894446e-08 -1.147081779e-08 -1.017885928e-08 -8.701185242e-09)
5(-1.339818702e-08 -1.218141694e-08 -1.083533958e-08 -9.787854342e-09 -8.36426013e-09)
5(-1.306255887e-08 -1.205869334e-08 -1.092571114e-08 -9.613448707e-09 -8.085477631e-09)
5(-1.281225807e-08 -1.165325328e-08 -1.061587726e-08 -9.210577868e-09 -8.374839634e-09)
5(-1.254466817e-08 -1.142436878e-08 -1.022404376e-08 -8.970347939e-09 -7.464718819e-09)
5(-1.220843983e-08 -1.11538102e-08 -9.787339098e-09 -8.57171813e-09 -9.123197708e-09)
5(-1.204948605e-08 -1.102486049e-08 -9.696543929e-09 -8.286586641e-09 -8.382109069e-09)
5(-1.194487109e-08 -1.079791158e-08 -9.432407841e-09 -8.418713288e-09 -7.700028924e-09)
5(-1.176586579e-08 -1.063294747e-08 -9.187437178e-09 -9.203380873e-09 -6.953106472e-09)
5(-1.149294239e-08 -1.016313366e-08 -8.313561862e-09 -8.408760744e-09 -6.061088282e-09)
5(-1.115905021e-08 -9.822571813e-09 -8.028701593e-09 -7.592297513e-09 -5.510553745e-09)
5(-1.090007857e-08 -9.298436577e-09 -7.761651472e-09 -6.782939211e-09 -4.87789566e-09)
5(-1.051194201e-08 -8.919066039e-09 -8.000675117e-09 -6.000723628e-09 -4.261736765e-09)
5(-9.97362564e-09 -8.76390576e-09 -7.537837933e-09 -5.295668946e-09 -3.691416591e-09)
5(-9.542892282e-09 -8.048422466e-09 -6.754300007e-09 -4.62591676e-09 -3.175461719e-09)
5(-9.002183261e-09 -8.121980613e-09 -5.961943565e-09 -4.006991428e-09 -2.715758116e-09)
5(-8.473092942e-09 -7.258002502e-09 -5.209175632e-09 -3.438557942e-09 -2.307779992e-09)
5(-8.423374649e-09 -6.382310965e-09 -4.502706874e-09 -2.929825206e-09 -1.952535331e-09)
5(-7.786156329e-09 -5.539532697e-09 -3.852273354e-09 -2.476646944e-09 -1.643552747e-09)
5(-6.809617807e-09 -4.739433208e-09 -3.253316172e-09 -2.077595385e-09 -1.379041965e-09)
5(-5.774749584e-09 -3.998532345e-09 -2.718057795e-09 -1.733865662e-09 -1.157302789e-09)
5(-4.720405334e-09 -3.312324603e-09 -2.240406661e-09 -1.445653982e-09 -9.757450678e-10)
5(-3.66416719e-09 -2.682410394e-09 -1.820940898e-09 -1.200114381e-09 -8.19784829e-10)
5(-2.726914883e-09 -2.078990126e-09 -1.447480998e-09 -9.862227205e-10 -7.230699904e-10)
5(-1.941532175e-09 -1.520852177e-09 -1.067643897e-09 -9.213162173e-10 -6.129130349e-10)
5(-1.31068289e-09 -1.01981561e-09 -6.516404612e-10 -5.603200441e-10 -4.800602972e-10)
)


60
(
5(-3.738534269e-09 -5.228622145e-09 -6.828013658e-09 -9.271209342e-09 -9.934776182e-09)
5(-4.985167429e-09 -7.531132206e-09 -8.56388669e-09 -1.132880053e-08 -1.275504806e-08)
5(-6.762227435e-09 -8.489065319e-09 -1.02019217e-08 -1.349963433e-08 -1.645726551e-08)
5(-7.648406342e-09 -9.667725264e-09 -1.151992868e-08 -1.594238762e-08 -1.607261239e-08)
5(-8.950559368e-09 -1.120832746e-08 -1.333099721e-08 -1.704270017e-08 -1.881620507e-08)
5(-9.875366309e-09 -1.288327935e-08 -1.62417616e-08 -1.87655988e-08 -2.111733017e-08)
5(-1.081212228e-08 -1.451638839e-08 -1.777837253e-08 -2.083397209e-08 -2.097014971e-08)
5(-1.266799376e-08 -1.600220691e-08 -1.865268669e-08 -2.178814359e-08 -2.385073305e-08)
5(-1.394321822e-08 -1.731184251e-08 -2.010963802e-08 -2.260102013e-08 -2.336918634e-08)
5(-1.538817193e-08 -1.848884412e-08 -2.067461819e-08 -2.337506127e-08 -2.314751424e-08)
5(-1.669797972e-08 -1.959182649e-08 -2.150667984e-08 -2.356745167e-08 -2.272968627e-08)
5(-1.775813025e-08 -2.03652152e-08 -2.238899396e-08 -2.345036656e-08 -2.240156288e-08)
5(-1.83668232e-08 -2.092153172e-08 -2.268471773e-08 -2.274920525e-08 -2.115267411e-08)
5(-1.884371414e-08 -2.118907006e-08 -2.246335084e-08 -2.243400115e-08 -2.023130266e-08)
5(-1.960944351e-08 -2.137811139e-08 -2.220527568e-08 -2.128165398e-08 -1.896291191e-08)
5(-1.996653442e-08 -2.140237402e-08 -2.15731952e-08 -2.02897159e-08 -1.759804394e-08)
5(-2.00814799e-08 -2.101358656e-08 -2.081316536e-08 -1.90213186e-08 -1.597230762e-08)
5(-1.986634319e-08 -2.038438982e-08 -1.960511555e-08 -1.75878406e-08 -1.459113228e-08)
5(-1.950304326e-08 -1.9534561e-08 -1.853104468e-08 -1.642451519e-08 -1.349621962e-08)
5(-1.890782049e-08 -1.844951692e-08 -1.730934486e-08 -1.501618239e-08 -1.242917958e-08)
5(-1.833691977e-08 -1.771067441e-08 -1.639738843e-08 -1.402903436e-08 -1.139202652e-08)
5(-1.763918626e-08 -1.682608898e-08 -1.532212821e-08 -1.350286042e-08 -1.082136031e-08)
5(-1.677963012e-08 -1.588253602e-08 -1.439278136e-08 -1.23491256e-08 -9.84498732e-09)
5(-1.606548681e-08 -1.4893814e-08 -1.347990946e-08 -1.156718694e-08 -9.259699098e-09)
5(-1.525028407e-08 -1.408754481e-08 -1.261286922e-08 -1.076668471e-08 -8.636218874e-09)
5(-1.45040038e-08 -1.337227856e-08 -1.175547093e-08 -1.002673392e-08 -8.18585023e-09)
5(-1.375693574e-08 -1.270311599e-08 -1.121821842e-08 -9.448997042e-09 -7.770536576e-09)
5(-1.311675823e-08 -1.204237451e-08 -1.056484734e-08 -8.959528408e-09 -7.421831003e-09)
5(-1.241515441e-08 -1.140871924e-08 -1.009698153e-08 -8.582277056e-09 -7.085368506e-09)
5(-1.183271777e-08 -1.081567033e-08 -9.64648605e-09 -8.297547822e-09 -6.840524933e-09)
5(-1.126681329e-08 -1.029716933e-08 -9.154485606e-09 -7.878809222e-09 -6.563801573e-09)
5(-1.079421823e-08 -9.890653682e-09 -8.839503981e-09 -7.684010427e-09 -6.544015262e-09)
5(-1.039028713e-08 -9.480120345e-09 -8.467405412e-09 -7.39885593e-09 -6.131025963e-09)
5(-9.997638665e-09 -9.103524024e-09 -8.102957848e-09 -7.173365761e-09 -6.128458054e-09)
5(-9.647818787e-09 -8.819355833e-09 -7.864093278e-09 -6.94762499e-09 -5.888782448e-09)
5(-9.348568165e-09 -8.484916027e-09 -7.495448168e-09 -6.723683751e-09 -5.716163713e-09)
5(-9.102817074e-09 -8.366330504e-09 -7.510137042e-09 -6.622877715e-09 -5.571250266e-09)
5(-8.904395576e-09 -8.111692874e-09 -7.32731766e-09 -6.40854805e-09 -5.726348651e-09)
5(-8.710385517e-09 -7.965731389e-09 -7.11118722e-09 -6.282181862e-09 -5.263922878e-09)
5(-8.494757671e-09 -7.801381503e-09 -6.880335298e-09 -6.081303442e-09 -6.135010112e-09)
5(-8.380183974e-09 -7.730567027e-09 -6.842100843e-09 -5.942272948e-09 -5.771678192e-09)
5(-8.321631672e-09 -7.608441586e-09 -6.710347683e-09 -6.023428869e-09 -5.436916685e-09)
5(-8.219202092e-09 -7.530190821e-09 -6.590790394e-09 -6.444368861e-09 -5.062045958e-09)
5(-8.08257616e-09 -7.303498992e-09 -6.141111277e-09 -6.042222388e-09 -4.598103163e-09)
5(-7.920682514e-09 -7.128196823e-09 -5.991184693e-09 -5.622008307e-09 -4.296000438e-09)
5(-7.801683349e-09 -6.85492189e-09 -5.845880221e-09 -5.191703482e-09 -3.938422439e-09)
5(-7.608555145e-09 -6.646963053e-09 -5.965280096e-09 -4.760408879e-09 -3.578572486e-09)
5(-7.331108586e-09 -6.548928686e-09 -5.710131725e-09 -4.355917799e-09 -3.232195519e-09)
5(-7.090328651e-09 -6.153798162e-09 -5.278735322e-09 -3.959717787e-09 -2.903785769e-09)
5(-6.801265308e-09 -6.181075014e-09 -4.834814528e-09 -3.580361661e-09 -2.596454989e-09)
5(-6.514970593e-09 -5.713996503e-09 -4.401650279e-09 -3.216682355e-09 -2.309017055e-09)
5(-6.492903658e-09 -5.235774541e-09 -3.980691915e-09 -2.870948736e-09 -2.042063957e-09)
5(-6.16063799e-09 -4.759297791e-09 -3.570312036e-09 -2.544538523e-09 -1.796358216e-09)
5(-5.649958251e-09 -4.287479149e-09 -3.17216322e-09 -2.239706432e-09 -1.571378467e-09)
5(-5.09222766e-09 -3.819159566e-09 -2.791563007e-09 -1.957889041e-09 -1.372446787e-09)
5(-4.490985568e-09 -3.36014054e-09 -2.432354784e-09 -1.70495857e-09 -1.198244248e-09)
5(-3.857319149e-09 -2.916762839e-09 -2.099584904e-09 -1.478696485e-09 -1.044425354e-09)
5(-3.261120701e-09 -2.478354693e-09 -1.791135167e-09 -1.27816041e-09 -9.299040868e-10)
5(-2.735496532e-09 -2.07330328e-09 -1.496859611e-09 -1.166039389e-09 -8.195971769e-10)
5(-2.405647066e-09 -1.811265023e-09 -1.364039435e-09 -1.059422999e-09 -7.905105041e-10)
)


60
(
5(-3.728973782e-09 -5.055361195e-09 -6.631064217e-09 -8.642032707e-09 -8.894782403e-09)
5(-4.878998571e-09 -6.533236051e-09 -8.11998698e-09 -1.020113145e-08 -1.100638607e-08)
5(-5.865315558e-09 -7.778762182e-09 -9.536254212e-09 -1.157564006e-08 -1.268425233e-08)
5(-6.774031046e-09 -8.856291612e-09 -1.08203502e-08 -1.269731949e-08 -1.372274219e-08)
5(-7.700922187e-09 -9.879395642e-09 -1.185138315e-08 -1.350983863e-08 -1.405979847e-08)
5(-8.63555413e-09 -1.085878461e-08 -1.268834009e-08 -1.403605959e-08 -1.390111092e-08)
5(-9.53916588e-09 -1.172620057e-08 -1.33906875e-08 -1.427168248e-08 -1.357531575e-08)
5(-1.040265554e-08 -1.246608115e-08 -1.387352254e-08 -1.427038564e-08 -1.312363185e-08)
5(-1.119298911e-08 -1.304782719e-08 -1.415496502e-08 -1.405442675e-08 -1.247352357e-08)
5(-1.184901681e-08 -1.342509431e-08 -1.415914808e-08 -1.355359472e-08 -1.162906883e-08)
5(-1.237362896e-08 -1.358245765e-08 -1.391507775e-08 -1.284917923e-08 -1.058999654e-08)
5(-1.270391319e-08 -1.355175522e-08 -1.34293777e-08 -1.201496064e-08 -9.509613805e-09)
5(-1.286940413e-08 -1.332596021e-08 -1.27950922e-08 -1.112665309e-08 -8.511163527e-09)
5(-1.288015637e-08 -1.294637466e-08 -1.206596967e-08 -1.018998518e-08 -7.573344032e-09)
5(-1.272567426e-08 -1.244649194e-08 -1.127705431e-08 -9.301283133e-09 -6.743354109e-09)
5(-1.241527759e-08 -1.184282008e-08 -1.044535111e-08 -8.457256542e-09 -6.023504807e-09)
5(-1.199875818e-08 -1.117825523e-08 -9.616570176e-09 -7.680447106e-09 -5.410746001e-09)
5(-1.150115107e-08 -1.048076549e-08 -8.832488993e-09 -6.997875855e-09 -4.896961036e-09)
5(-1.092064358e-08 -9.808874821e-09 -8.122073998e-09 -6.400474256e-09 -4.475603257e-09)
5(-1.033812581e-08 -9.149403039e-09 -7.479645084e-09 -5.887377341e-09 -4.126912114e-09)
5(-9.741098798e-09 -8.530441678e-09 -6.916101475e-09 -5.462416391e-09 -3.858858479e-09)
5(-9.146366354e-09 -7.967205928e-09 -6.431937525e-09 -5.092119093e-09 -3.631309427e-09)
5(-8.590211401e-09 -7.457085803e-09 -6.006699878e-09 -4.786059747e-09 -3.445232282e-09)
5(-8.083019963e-09 -6.996486379e-09 -5.632243934e-09 -4.534233753e-09 -3.29521617e-09)
5(-7.615197827e-09 -6.586671393e-09 -5.320710424e-09 -4.30840552e-09 -3.172481558e-09)
5(-7.176630903e-09 -6.223261097e-09 -5.033420347e-09 -4.10982441e-09 -3.062959731e-09)
5(-6.784361845e-09 -5.90351099e-09 -4.790755901e-09 -3.936945004e-09 -2.971474318e-09)
5(-6.433205852e-09 -5.605651452e-09 -4.577313552e-09 -3.786671768e-09 -2.897770431e-09)
5(-6.113117855e-09 -5.33660569e-09 -4.382703849e-09 -3.656246612e-09 -2.822784476e-09)
5(-5.814928698e-09 -5.096500816e-09 -4.210433486e-09 -3.537368576e-09 -2.768969315e-09)
5(-5.547110165e-09 -4.877720555e-09 -4.055539271e-09 -3.433833065e-09 -2.715146204e-09)
5(-5.301870546e-09 -4.678721698e-09 -3.919566129e-09 -3.342125224e-09 -2.674935157e-09)
5(-5.075911714e-09 -4.49778904e-09 -3.796831199e-09 -3.263613192e-09 -2.643314158e-09)
5(-4.867881257e-09 -4.335484432e-09 -3.68980051e-09 -3.197927366e-09 -2.62065055e-09)
5(-4.682341303e-09 -4.191939256e-09 -3.596573988e-09 -3.145474942e-09 -2.604322367e-09)
5(-4.507179007e-09 -4.067017023e-09 -3.519756489e-09 -3.104772375e-09 -2.601028329e-09)
5(-4.362781873e-09 -3.962933707e-09 -3.458909465e-09 -3.081187307e-09 -2.602880745e-09)
5(-4.232775942e-09 -3.878140102e-09 -3.417174969e-09 -3.067869464e-09 -2.608929465e-09)
5(-4.127312636e-09 -3.820439874e-09 -3.39335852e-09 -3.06474308e-09 -2.627513598e-09)
5(-4.048919752e-09 -3.779065158e-09 -3.386668134e-09 -3.075225959e-09 -2.653801809e-09)
5(-3.997449851e-09 -3.76826978e-09 -3.399152318e-09 -3.093755795e-09 -2.694738891e-09)
5(-3.977737382e-09 -3.765306864e-09 -3.413686286e-09 -3.119828624e-09 -2.733403343e-09)
5(-3.973005129e-09 -3.783763943e-09 -3.433540157e-09 -3.150049093e-09 -2.760899108e-09)
5(-3.992435625e-09 -3.816657192e-09 -3.448237459e-09 -3.17627281e-09 -2.766668136e-09)
5(-4.029179145e-09 -3.837893513e-09 -3.457128934e-09 -3.19048454e-09 -2.748903429e-09)
5(-4.072715753e-09 -3.849639042e-09 -3.456166757e-09 -3.182453024e-09 -2.709287482e-09)
5(-4.107797004e-09 -3.844389754e-09 -3.449879934e-09 -3.148488105e-09 -2.648548095e-09)
5(-4.129544966e-09 -3.828908981e-09 -3.430984431e-09 -3.091746352e-09 -2.569322486e-09)
5(-4.123341143e-09 -3.803114708e-09 -3.398464601e-09 -3.017945956e-09 -2.4753106e-09)
5(-4.122360884e-09 -3.780646023e-09 -3.352381881e-09 -2.928893237e-09 -2.366068965e-09)
5(-4.111752728e-09 -3.759599391e-09 -3.292695494e-09 -2.823273068e-09 -2.244518391e-09)
5(-4.117461666e-09 -3.73522765e-09 -3.215735318e-09 -2.698233585e-09 -2.110485747e-09)
5(-4.13619981e-09 -3.693456649e-09 -3.112404747e-09 -2.553826286e-09 -1.967714086e-09)
5(-4.162410958e-09 -3.624742126e-09 -2.981824185e-09 -2.394210169e-09 -1.816283526e-09)
5(-4.169962574e-09 -3.514869318e-09 -2.822279594e-09 -2.219956447e-09 -1.665562708e-09)
5(-4.126916599e-09 -3.366689396e-09 -2.640382833e-09 -2.040836334e-09 -1.519055365e-09)
5(-4.026629278e-09 -3.187793685e-09 -2.445615714e-09 -1.863116348e-09 -1.379726711e-09)
5(-3.871483021e-09 -2.98912718e-09 -2.250977483e-09 -1.696711733e-09 -1.254469939e-09)
5(-3.694130595e-09 -2.802005866e-09 -2.084300457e-09 -1.556921127e-09 -1.152193558e-09)
5(-3.741634606e-09 -2.977780326e-09 -2.364596828e-09 -1.723808358e-09 -1.338726424e-09)
)


60
(
5(-3.731486508e-09 -4.99282011e-09 -6.427394429e-09 -8.091387296e-09 -8.055299971e-09)
5(-4.873922575e-09 -6.415000466e-09 -7.839878474e-09 -9.44276357e-09 -9.773629806e-09)
5(-5.838170026e-09 -7.55827221e-09 -9.082532011e-09 -1.05254114e-08 -1.096082019e-08)
5(-6.677336679e-09 -8.478796854e-09 -1.009824162e-08 -1.128024726e-08 -1.15372477e-08)
5(-7.493208398e-09 -9.299000278e-09 -1.08237293e-08 -1.169897251e-08 -1.149012153e-08)
5(-8.283884032e-09 -1.002974912e-08 -1.131157661e-08 -1.184704209e-08 -1.109955207e-08)
5(-9.004822288e-09 -1.062650988e-08 -1.163393119e-08 -1.175668729e-08 -1.056845173e-08)
5(-9.650403634e-09 -1.10667994e-08 -1.177436258e-08 -1.148610575e-08 -9.973219157e-09)
5(-1.01874226e-08 -1.134212543e-08 -1.172143441e-08 -1.103475369e-08 -9.272104894e-09)
5(-1.058879013e-08 -1.143327838e-08 -1.146585793e-08 -1.043889007e-08 -8.465525872e-09)
5(-1.083860984e-08 -1.135632878e-08 -1.10197163e-08 -9.73038542e-09 -7.627175277e-09)
5(-1.093038285e-08 -1.112453421e-08 -1.044559283e-08 -8.985825821e-09 -6.83856058e-09)
5(-1.087155962e-08 -1.074844435e-08 -9.795039399e-09 -8.229639211e-09 -6.114395821e-09)
5(-1.067269661e-08 -1.028665387e-08 -9.109842973e-09 -7.509671686e-09 -5.478937094e-09)
5(-1.038546114e-08 -9.75636456e-09 -8.424126672e-09 -6.841326304e-09 -4.935922811e-09)
5(-1.001768753e-08 -9.19864038e-09 -7.762392984e-09 -6.237248019e-09 -4.469708305e-09)
5(-9.542640576e-09 -8.623231492e-09 -7.136504824e-09 -5.699618411e-09 -4.076203163e-09)
5(-9.048092378e-09 -8.056418165e-09 -6.570526935e-09 -5.233418969e-09 -3.758094267e-09)
5(-8.53727862e-09 -7.516196852e-09 -6.059188338e-09 -4.838515293e-09 -3.492504118e-09)
5(-8.030929165e-09 -7.013013859e-09 -5.617495578e-09 -4.500390637e-09 -3.273779159e-09)
5(-7.551212974e-09 -6.549536383e-09 -5.232577323e-09 -4.212718466e-09 -3.088758591e-09)
5(-7.092208325e-09 -6.134510818e-09 -4.901331437e-09 -3.971154897e-09 -2.938075052e-09)
5(-6.666064709e-09 -5.763122393e-09 -4.608407799e-09 -3.760012512e-09 -2.80958283e-09)
5(-6.284673705e-09 -5.432723008e-09 -4.355395064e-09 -3.576136759e-09 -2.697882356e-09)
5(-5.935101395e-09 -5.13932183e-09 -4.134799317e-09 -3.414600743e-09 -2.598637597e-09)
5(-5.618919664e-09 -4.872988801e-09 -3.939733497e-09 -3.270855529e-09 -2.515649726e-09)
5(-5.332284703e-09 -4.641036801e-09 -3.768180369e-09 -3.143073801e-09 -2.437411626e-09)
5(-5.076951781e-09 -4.421103608e-09 -3.608480861e-09 -3.026626854e-09 -2.370631838e-09)
5(-4.83205581e-09 -4.223587595e-09 -3.465655193e-09 -2.923373956e-09 -2.307458906e-09)
5(-4.61250965e-09 -4.040677391e-09 -3.334741624e-09 -2.828259123e-09 -2.25404008e-09)
5(-4.405214226e-09 -3.869229828e-09 -3.214414879e-09 -2.74187974e-09 -2.205767141e-09)
5(-4.215559563e-09 -3.712897106e-09 -3.105497745e-09 -2.665602535e-09 -2.163098516e-09)
5(-4.035606944e-09 -3.569669989e-09 -3.004109741e-09 -2.596717491e-09 -2.131737809e-09)
5(-3.866736845e-09 -3.433491571e-09 -2.914837562e-09 -2.538198602e-09 -2.105385955e-09)
5(-3.711276428e-09 -3.311598718e-09 -2.837344503e-09 -2.489410283e-09 -2.086801504e-09)
5(-3.577993719e-09 -3.20218427e-09 -2.768436625e-09 -2.451298092e-09 -2.074709559e-09)
5(-3.444344359e-09 -3.108911752e-09 -2.713692045e-09 -2.424416473e-09 -2.074482508e-09)
5(-3.324396209e-09 -3.031041185e-09 -2.673740032e-09 -2.409198773e-09 -2.080613469e-09)
5(-3.227213284e-09 -2.971602163e-09 -2.650065808e-09 -2.407124775e-09 -2.096595558e-09)
5(-3.154455405e-09 -2.934766492e-09 -2.642924546e-09 -2.418140891e-09 -2.125637764e-09)
5(-3.110532335e-09 -2.917623042e-09 -2.650160777e-09 -2.440998221e-09 -2.163099333e-09)
5(-3.082339491e-09 -2.920350171e-09 -2.672412565e-09 -2.473664909e-09 -2.204905945e-09)
5(-3.086611884e-09 -2.944688903e-09 -2.704285296e-09 -2.514457605e-09 -2.24689735e-09)
5(-3.115270933e-09 -2.985269327e-09 -2.741538627e-09 -2.558207107e-09 -2.280540868e-09)
5(-3.165891881e-09 -3.036731466e-09 -2.779688628e-09 -2.596572379e-09 -2.299526417e-09)
5(-3.233360977e-09 -3.086065734e-09 -2.813908864e-09 -2.623408358e-09 -2.304261422e-09)
5(-3.302311969e-09 -3.127107007e-09 -2.841897868e-09 -2.633940729e-09 -2.293301084e-09)
5(-3.366928347e-09 -3.15905805e-09 -2.860296812e-09 -2.628181999e-09 -2.269261961e-09)
5(-3.416225129e-09 -3.182296996e-09 -2.869822337e-09 -2.610663798e-09 -2.234028757e-09)
5(-3.448619451e-09 -3.198287703e-09 -2.871430597e-09 -2.584815371e-09 -2.188764556e-09)
5(-3.471849058e-09 -3.217667329e-09 -2.870231006e-09 -2.550646577e-09 -2.134035949e-09)
5(-3.500890582e-09 -3.244745471e-09 -2.865955967e-09 -2.50769984e-09 -2.068702721e-09)
5(-3.554168061e-09 -3.280236012e-09 -2.854868328e-09 -2.450778585e-09 -1.989708677e-09)
5(-3.634489727e-09 -3.313893618e-09 -2.827405905e-09 -2.375996726e-09 -1.898896132e-09)
5(-3.738352531e-09 -3.335474715e-09 -2.776187164e-09 -2.281759583e-09 -1.795575805e-09)
5(-3.840824118e-09 -3.329430401e-09 -2.69796016e-09 -2.171180961e-09 -1.685919501e-09)
5(-3.91870907e-09 -3.289037917e-09 -2.59665377e-09 -2.050958921e-09 -1.574956919e-09)
5(-3.950801483e-09 -3.220203697e-09 -2.489789215e-09 -1.931036332e-09 -1.469565123e-09)
5(-3.939903814e-09 -3.146851739e-09 -2.405068727e-09 -1.837227594e-09 -1.387730403e-09)
5(-4.116396325e-09 -3.427537551e-09 -2.764966822e-09 -2.033733546e-09 -1.682760122e-09)
)


60
(
5(-3.727082067e-09 -4.931084255e-09 -6.220021312e-09 -7.589274578e-09 -7.373863246e-09)
5(-4.868581741e-09 -6.29713683e-09 -7.54709551e-09 -8.789690884e-09 -8.818325514e-09)
5(-5.795309119e-09 -7.343170832e-09 -8.644423294e-09 -9.668523801e-09 -9.714128023e-09)
5(-6.575255876e-09 -8.142631128e-09 -9.459459872e-09 -1.020116871e-08 -1.001125018e-08)
5(-7.301583912e-09 -8.813383721e-09 -9.982261583e-09 -1.041369682e-08 -9.837639831e-09)
5(-7.971176274e-09 -9.375432428e-09 -1.026478454e-08 -1.03738035e-08 -9.410943124e-09)
5(-8.553915431e-09 -9.786937441e-09 -1.038332994e-08 -1.01672908e-08 -8.866784868e-09)
5(-9.042313088e-09 -1.00510584e-08 -1.035116917e-08 -9.811946257e-09 -8.296400553e-09)
5(-9.41879823e-09 -1.015631054e-08 -1.015216163e-08 -9.32599337e-09 -7.665284839e-09)
5(-9.658835021e-09 -1.010596269e-08 -9.800403543e-09 -8.749723838e-09 -6.993648693e-09)
5(-9.748619046e-09 -9.91736262e-09 -9.319903862e-09 -8.124137996e-09 -6.334338285e-09)
5(-9.718652636e-09 -9.613339218e-09 -8.770939498e-09 -7.491851938e-09 -5.721461273e-09)
5(-9.559161002e-09 -9.220395849e-09 -8.187431178e-09 -6.873376273e-09 -5.175088925e-09)
5(-9.296683878e-09 -8.771891318e-09 -7.600097868e-09 -6.296119632e-09 -4.705778171e-09)
5(-8.952395622e-09 -8.286632074e-09 -7.028627881e-09 -5.774814452e-09 -4.290985635e-09)
5(-8.561725826e-09 -7.781476974e-09 -6.489374704e-09 -5.313531185e-09 -3.94913186e-09)
5(-8.143032196e-09 -7.292157015e-09 -6.000854528e-09 -4.905450394e-09 -3.653640699e-09)
5(-7.686290222e-09 -6.826595834e-09 -5.565996194e-09 -4.554654012e-09 -3.408714677e-09)
5(-7.263177967e-09 -6.387714087e-09 -5.175538085e-09 -4.252034266e-09 -3.204849073e-09)
5(-6.818537458e-09 -5.988483792e-09 -4.838065204e-09 -3.991006053e-09 -3.032856989e-09)
5(-6.419432296e-09 -5.62967594e-09 -4.539531685e-09 -3.763701e-09 -2.881774435e-09)
5(-6.073396772e-09 -5.299360646e-09 -4.280548381e-09 -3.568493415e-09 -2.750825946e-09)
5(-5.734989901e-09 -5.008735668e-09 -4.055100504e-09 -3.394501693e-09 -2.636711566e-09)
5(-5.408001529e-09 -4.749469208e-09 -3.859673926e-09 -3.240212292e-09 -2.53655791e-09)
5(-5.13688155e-09 -4.516374139e-09 -3.680516684e-09 -3.102763284e-09 -2.443887202e-09)
5(-4.88364503e-09 -4.301025818e-09 -3.519866066e-09 -2.97770395e-09 -2.361393046e-09)
5(-4.656062177e-09 -4.102029381e-09 -3.372649988e-09 -2.863233472e-09 -2.285812306e-09)
5(-4.441437989e-09 -3.92021743e-09 -3.238550329e-09 -2.758540102e-09 -2.214869009e-09)
5(-4.248830384e-09 -3.751612085e-09 -3.113706843e-09 -2.661430185e-09 -2.152193488e-09)
5(-4.065738511e-09 -3.594882325e-09 -2.99734709e-09 -2.571268983e-09 -2.091768874e-09)
5(-3.893138561e-09 -3.447855203e-09 -2.889464748e-09 -2.488750033e-09 -2.040270856e-09)
5(-3.728889369e-09 -3.309627285e-09 -2.789825425e-09 -2.411355378e-09 -1.990542339e-09)
5(-3.575373837e-09 -3.179470286e-09 -2.69495701e-09 -2.341719713e-09 -1.948555515e-09)
5(-3.428413834e-09 -3.057172647e-09 -2.606488575e-09 -2.27877349e-09 -1.917555363e-09)
5(-3.291425556e-09 -2.941438109e-09 -2.526753343e-09 -2.223759077e-09 -1.887377692e-09)
5(-3.159303118e-09 -2.835623718e-09 -2.456338579e-09 -2.177683101e-09 -1.864875471e-09)
5(-3.034494007e-09 -2.742265548e-09 -2.396706377e-09 -2.14180735e-09 -1.852063354e-09)
5(-2.922155871e-09 -2.660989037e-09 -2.348518083e-09 -2.116894899e-09 -1.849842839e-09)
5(-2.824201979e-09 -2.594632194e-09 -2.313044074e-09 -2.104194265e-09 -1.854090749e-09)
5(-2.747396858e-09 -2.545922037e-09 -2.29302444e-09 -2.104580109e-09 -1.87351806e-09)
5(-2.688787773e-09 -2.516754915e-09 -2.290607111e-09 -2.117755707e-09 -1.900588453e-09)
5(-2.653649886e-09 -2.509915857e-09 -2.3046397e-09 -2.143912187e-09 -1.936496218e-09)
5(-2.645431674e-09 -2.526218752e-09 -2.333871052e-09 -2.181013846e-09 -1.976947764e-09)
5(-2.663333789e-09 -2.563534701e-09 -2.373901763e-09 -2.225497133e-09 -2.015150597e-09)
5(-2.705450528e-09 -2.617127527e-09 -2.420928321e-09 -2.27084216e-09 -2.047281773e-09)
5(-2.770708926e-09 -2.67995309e-09 -2.47103671e-09 -2.310648428e-09 -2.069856165e-09)
5(-2.84542291e-09 -2.742886877e-09 -2.517554695e-09 -2.339279351e-09 -2.080875615e-09)
5(-2.926841824e-09 -2.797474068e-09 -2.55597545e-09 -2.355893429e-09 -2.082719836e-09)
5(-3.001594846e-09 -2.84092304e-09 -2.583703571e-09 -2.362406812e-09 -2.074194516e-09)
5(-3.051176441e-09 -2.87392899e-09 -2.604724997e-09 -2.363600074e-09 -2.060883738e-09)
5(-3.089386757e-09 -2.902531963e-09 -2.625567525e-09 -2.363848585e-09 -2.041972614e-09)
5(-3.115622282e-09 -2.935430426e-09 -2.652439959e-09 -2.363671616e-09 -2.018213948e-09)
5(-3.144842378e-09 -2.983451054e-09 -2.688536627e-09 -2.361434371e-09 -1.985862366e-09)
5(-3.201111942e-09 -3.054363909e-09 -2.728923712e-09 -2.349292509e-09 -1.941997042e-09)
5(-3.290994142e-09 -3.143276503e-09 -2.761119994e-09 -2.321742181e-09 -1.883226663e-09)
5(-3.426998837e-09 -3.239205374e-09 -2.775899212e-09 -2.275992098e-09 -1.812155274e-09)
5(-3.587233748e-09 -3.317438542e-09 -2.7659189e-09 -2.217151104e-09 -1.735552936e-09)
5(-3.745340883e-09 -3.374387832e-09 -2.742819361e-09 -2.155499841e-09 -1.663571589e-09)
5(-3.880468103e-09 -3.40485877e-09 -2.736425644e-09 -2.123335349e-09 -1.616527773e-09)
5(-4.069328076e-09 -3.618413132e-09 -2.988873813e-09 -2.370922992e-09 -1.869492426e-09)
)


60
(
5(-3.718751686e-09 -4.863192448e-09 -6.017358337e-09 -7.139144079e-09 -6.819063901e-09)
5(-4.853249459e-09 -6.169441562e-09 -7.258981963e-09 -8.227142567e-09 -8.069936474e-09)
5(-5.746766028e-09 -7.13793197e-09 -8.239264448e-09 -8.964710255e-09 -8.782948606e-09)
5(-6.470408464e-09 -7.844309517e-09 -8.9097387e-09 -9.361760618e-09 -8.97232567e-09)
5(-7.121084929e-09 -8.403623981e-09 -9.282640303e-09 -9.459542854e-09 -8.744591294e-09)
5(-7.695416398e-09 -8.838118399e-09 -9.44237299e-09 -9.348856655e-09 -8.335410709e-09)
5(-8.171165112e-09 -9.129837469e-09 -9.452311495e-09 -9.092228772e-09 -7.854861169e-09)
5(-8.542728386e-09 -9.27696434e-09 -9.330984921e-09 -8.718141501e-09 -7.334392865e-09)
5(-8.803480434e-09 -9.272511003e-09 -9.066704802e-09 -8.255693448e-09 -6.788866209e-09)
5(-8.927088019e-09 -9.149854449e-09 -8.691903645e-09 -7.73068937e-09 -6.210532235e-09)
5(-8.929858301e-09 -8.907841556e-09 -8.226647234e-09 -7.186408888e-09 -5.682031005e-09)
5(-8.820748497e-09 -8.589437955e-09 -7.726122517e-09 -6.644513604e-09 -5.188302428e-09)
5(-8.60305017e-09 -8.205333607e-09 -7.205026471e-09 -6.133601146e-09 -4.760929036e-09)
5(-8.320903791e-09 -7.778032758e-09 -6.706089237e-09 -5.661336868e-09 -4.369982854e-09)
5(-7.96578869e-09 -7.332853832e-09 -6.225150639e-09 -5.236754063e-09 -4.046750569e-09)
5(-7.581042786e-09 -6.890563433e-09 -5.785418904e-09 -4.861151019e-09 -3.759402054e-09)
5(-7.192841599e-09 -6.468661636e-09 -5.381828632e-09 -4.533042642e-09 -3.519849358e-09)
5(-6.796617081e-09 -6.072132654e-09 -5.022354897e-09 -4.244452759e-09 -3.311468854e-09)
5(-6.400283457e-09 -5.70217e-09 -4.705373419e-09 -3.990366217e-09 -3.138518794e-09)
5(-6.044471739e-09 -5.372017191e-09 -4.429595202e-09 -3.768232062e-09 -2.979060088e-09)
5(-5.706548258e-09 -5.073811136e-09 -4.185322725e-09 -3.575615939e-09 -2.844585191e-09)
5(-5.386799703e-09 -4.799598511e-09 -3.971961042e-09 -3.404170281e-09 -2.724182324e-09)
5(-5.113772397e-09 -4.555644638e-09 -3.782101426e-09 -3.250920679e-09 -2.610311826e-09)
5(-4.857829651e-09 -4.338704204e-09 -3.611455059e-09 -3.113035937e-09 -2.511705089e-09)
5(-4.627054224e-09 -4.138434008e-09 -3.45631861e-09 -2.986320566e-09 -2.420104698e-09)
5(-4.418255954e-09 -3.957646505e-09 -3.315120813e-09 -2.87014456e-09 -2.338534095e-09)
5(-4.22516672e-09 -3.785465677e-09 -3.18487496e-09 -2.762159447e-09 -2.257491395e-09)
5(-4.053231122e-09 -3.62857581e-09 -3.064232909e-09 -2.660421536e-09 -2.183036408e-09)
5(-3.892126889e-09 -3.482344126e-09 -2.950270436e-09 -2.565809192e-09 -2.116785367e-09)
5(-3.727906368e-09 -3.343937978e-09 -2.84123724e-09 -2.476110948e-09 -2.052516525e-09)
5(-3.578362059e-09 -3.21149945e-09 -2.738476354e-09 -2.392971355e-09 -1.994144814e-09)
5(-3.436376431e-09 -3.086704081e-09 -2.641750846e-09 -2.313045421e-09 -1.944844826e-09)
5(-3.302705345e-09 -2.967922796e-09 -2.549526518e-09 -2.23952744e-09 -1.887913539e-09)