/*--------------------------------*- C++ -*----------------------------------*\
| =========                 |                                                 |
| \\      /  F ield         | OpenFOAM: The Open Source CFD Toolbox           |
|  \\    /   O peration     | Version:  2.3.1                                 |
|   \\  /    A nd           | Web:      www.OpenFOAM.org                      |
|    \\/     M anipulation  |                                                 |
\*---------------------------------------------------------------------------*/
FoamFile
{
    version     2.0;
    format      ascii;
    class       dictionary;
    location    "constant";
    object      DPSI38;
}
// * * * * * * * * * * * * * * * * * * * * * * * * * * * * * * * * * * * * * //

DPSI38_table
60
(

60
(
5(-9.577830175e-08 -1.240886404e-07 -9.794022921e-08 -1.08817679e-07 -9.090969677e-08)
5(-1.476081312e-07 -2.07163159e-07 -1.406559639e-07 -1.432412826e-07 -1.18323925e-07)
5(-2.609903753e-07 -2.09705399e-07 -1.779554364e-07 -1.79084125e-07 -1.591804623e-07)
5(-2.647399396e-07 -2.235440884e-07 -1.885927023e-07 -2.159793278e-07 -1.453234134e-07)
5(-3.099781863e-07 -2.524614419e-07 -2.151667167e-07 -2.186866478e-07 -1.808369607e-07)
5(-2.958446047e-07 -2.832015691e-07 -2.789750904e-07 -2.39450665e-07 -2.129533252e-07)
5(-2.891387003e-07 -3.107376038e-07 -2.949219257e-07 -2.711534372e-07 -2.139822929e-07)
5(-3.474130707e-07 -3.313958176e-07 -2.948170671e-07 -2.830012262e-07 -2.556854507e-07)
5(-3.52866037e-07 -3.472333902e-07 -3.198156933e-07 -2.971779327e-07 -2.590571341e-07)
5(-3.82950375e-07 -3.627601775e-07 -3.250621512e-07 -3.171357898e-07 -2.706357668e-07)
5(-4.001153412e-07 -3.823551759e-07 -3.438510321e-07 -3.325540701e-07 -2.848550827e-07)
5(-4.123499481e-07 -3.99827258e-07 -3.707596115e-07 -3.481294479e-07 -3.030070582e-07)
5(-4.330206517e-07 -4.162795845e-07 -3.903133272e-07 -3.591770014e-07 -3.139992432e-07)
5(-4.392383858e-07 -4.315801186e-07 -4.049016883e-07 -3.796827692e-07 -3.289170014e-07)
5(-4.66776839e-07 -4.515333359e-07 -4.236924609e-07 -3.901576165e-07 -3.412615758e-07)
5(-4.814572683e-07 -4.675050761e-07 -4.36645639e-07 -4.027870963e-07 -3.518754131e-07)
5(-4.980237576e-07 -4.835420432e-07 -4.514847317e-07 -4.150693688e-07 -3.60299206e-07)
5(-5.14155488e-07 -4.986245127e-07 -4.650024454e-07 -4.244829335e-07 -3.692793489e-07)
5(-5.310633523e-07 -5.117600244e-07 -4.779524222e-07 -4.361710704e-07 -3.780847062e-07)
5(-5.421938446e-07 -5.202881691e-07 -4.873119284e-07 -4.419948118e-07 -3.865690308e-07)
5(-5.584826386e-07 -5.368478657e-07 -5.023122685e-07 -4.522196406e-07 -3.933272376e-07)
5(-5.720637942e-07 -5.496235595e-07 -5.111368092e-07 -4.683478125e-07 -4.025496898e-07)
5(-5.80991194e-07 -5.589384394e-07 -5.212169365e-07 -4.694631384e-07 -4.031669042e-07)
5(-5.960615947e-07 -5.647514066e-07 -5.288476457e-07 -4.740059607e-07 -4.063818706e-07)
5(-6.052916478e-07 -5.732161404e-07 -5.332794751e-07 -4.749326188e-07 -4.058024623e-07)
5(-6.155922737e-07 -5.816441422e-07 -5.34474935e-07 -4.732755579e-07 -4.049556667e-07)
5(-6.232493466e-07 -5.885121768e-07 -5.410045466e-07 -4.716968252e-07 -4.015303324e-07)
5(-6.321502327e-07 -5.916569526e-07 -5.389784666e-07 -4.6833651e-07 -3.963203832e-07)
5(-6.329322323e-07 -5.910329042e-07 -5.393113541e-07 -4.641516378e-07 -3.880998653e-07)
5(-6.356629542e-07 -5.866567983e-07 -5.353157014e-07 -4.588729854e-07 -3.781195969e-07)
5(-6.331608761e-07 -5.800632127e-07 -5.244211663e-07 -4.448265115e-07 -3.638299916e-07)
5(-6.302872132e-07 -5.73361365e-07 -5.151665338e-07 -4.335625941e-07 -3.513725384e-07)
5(-6.250822856e-07 -5.605098996e-07 -4.980650922e-07 -4.140945269e-07 -3.260432812e-07)
5(-6.138914249e-07 -5.425238157e-07 -4.751203921e-07 -3.914739468e-07 -3.055687347e-07)
5(-5.979232268e-07 -5.224320296e-07 -4.513174292e-07 -3.636538775e-07 -2.755749994e-07)
5(-5.781759853e-07 -4.928560163e-07 -4.158341916e-07 -3.311333531e-07 -2.438744012e-07)
5(-5.52015676e-07 -4.66298236e-07 -3.894093752e-07 -2.969406776e-07 -2.110137651e-07)
5(-5.207592438e-07 -4.263536144e-07 -3.49012296e-07 -2.562771654e-07 -1.777205915e-07)
5(-4.813927282e-07 -3.843548309e-07 -3.030578177e-07 -2.154027144e-07 -1.396062682e-07)
5(-4.337345081e-07 -3.365000299e-07 -2.541765999e-07 -1.725605335e-07 -1.050762625e-07)
5(-3.841616859e-07 -2.870311917e-07 -2.080785836e-07 -1.317053036e-07 -7.246555789e-08)
5(-3.310765305e-07 -2.348297556e-07 -1.608975487e-07 -9.367968157e-08 -4.574809552e-08)
5(-2.738142336e-07 -1.836970689e-07 -1.175581456e-07 -6.183423985e-08 -2.618790474e-08)
5(-2.155398377e-07 -1.342062786e-07 -7.869659008e-08 -3.662821965e-08 -1.268982221e-08)
5(-1.606782903e-07 -9.206914216e-08 -4.916970872e-08 -1.922671457e-08 -5.754151181e-09)
5(-1.122678396e-07 -5.800391766e-08 -2.762788197e-08 -8.797332549e-09 -2.164812219e-09)
5(-7.2222823e-08 -3.304755098e-08 -1.326603461e-08 -3.355334126e-09 -6.434821379e-10)
5(-4.129355925e-08 -1.661719033e-08 -5.4001824e-09 -1.095810038e-09 -1.480928305e-10)
5(-2.145959176e-08 -7.138359781e-09 -1.796804159e-09 -2.752863322e-10 -2.537673575e-11)
5(-9.250925278e-09 -2.473631783e-09 -4.807563242e-10 -4.983027622e-11 -3.240964736e-12)
5(-3.340126676e-09 -6.749690551e-10 -9.189521062e-11 -6.704908586e-12 -2.659144275e-13)
5(-8.904084988e-10 -1.357604804e-10 -1.278412046e-11 -6.124412559e-13 -1.420030879e-14)
5(-1.894869743e-10 -1.928462127e-11 -1.257347921e-12 -3.688356554e-14 -4.449244087e-16)
5(-2.375626378e-11 -1.592963977e-12 -6.3915276e-14 -1.34728567e-15 -7.588656698e-18)
5(-1.76656562e-12 -8.304472049e-14 -1.779746398e-15 -4.906080128e-17 -6.105610826e-20)
5(-5.171043474e-14 -1.387334553e-15 -2.787521693e-17 -2.049006075e-18 -3.772790424e-22)
5(-6.502701534e-16 -8.298588402e-18 -4.345324399e-19 -5.213491609e-20 -6.483955058e-25)
5(-2.366065365e-18 -7.890200846e-20 -8.563294695e-21 -6.450828934e-22 -2.731087297e-28)
5(-7.281882202e-22 1.447633988e-21 3.725372406e-21 4.723253057e-23 -4.855864684e-32)
5(-9.684647556e-29 -3.204431358e-30 0 -2.497805913e-35 -5.256739142e-38)
)


60
(
5(-8.903622558e-08 -1.106635728e-07 -9.294047303e-08 -1.028928754e-07 -8.848695249e-08)
5(-1.313795887e-07 -1.731344087e-07 -1.283453518e-07 -1.319543036e-07 -1.135500269e-07)
5(-2.140488951e-07 -1.79234507e-07 -1.595206629e-07 -1.610777797e-07 -1.541917711e-07)
5(-2.317902028e-07 -1.923207403e-07 -1.714858859e-07 -1.900203385e-07 -1.414489721e-07)
5(-2.548632486e-07 -2.142395025e-07 -1.918661829e-07 -1.942545048e-07 -1.684540957e-07)
5(-2.427948997e-07 -2.370748252e-07 -2.355645816e-07 -2.109595686e-07 -1.929137782e-07)
5(-2.428446221e-07 -2.573820151e-07 -2.488035246e-07 -2.343484503e-07 -1.96170354e-07)
5(-2.816589989e-07 -2.736619657e-07 -2.520302827e-07 -2.448486211e-07 -2.266529122e-07)
5(-2.885357458e-07 -2.872192563e-07 -2.710974569e-07 -2.571629257e-07 -2.314903295e-07)
5(-3.096101713e-07 -3.001590536e-07 -2.779589576e-07 -2.726030926e-07 -2.419608588e-07)
5(-3.235947823e-07 -3.152872721e-07 -2.929238364e-07 -2.852358926e-07 -2.537177108e-07)
5(-3.346745026e-07 -3.292125189e-07 -3.120934658e-07 -2.978240974e-07 -2.676350273e-07)
5(-3.507446368e-07 -3.424479645e-07 -3.270267609e-07 -3.076938065e-07 -2.772138329e-07)
5(-3.581939069e-07 -3.54955178e-07 -3.389639954e-07 -3.226902836e-07 -2.88960621e-07)
5(-3.775484768e-07 -3.700216953e-07 -3.533241163e-07 -3.319263476e-07 -2.98974668e-07)
5(-3.89248732e-07 -3.824478507e-07 -3.6389858e-07 -3.422367038e-07 -3.078447226e-07)
5(-4.02382111e-07 -3.948328541e-07 -3.754855992e-07 -3.521138677e-07 -3.152842324e-07)
5(-4.149511769e-07 -4.065328292e-07 -3.860985792e-07 -3.603051908e-07 -3.227915865e-07)
5(-4.277415552e-07 -4.172054217e-07 -3.964085531e-07 -3.694431494e-07 -3.300857801e-07)
5(-4.3727972e-07 -4.250103754e-07 -4.043994489e-07 -3.751557635e-07 -3.36867052e-07)
5(-4.492755925e-07 -4.371021395e-07 -4.153005325e-07 -3.831394689e-07 -3.426170527e-07)
5(-4.600020423e-07 -4.468727997e-07 -4.225729694e-07 -3.939228105e-07 -3.493148755e-07)
5(-4.678242749e-07 -4.546070797e-07 -4.304106587e-07 -3.964527494e-07 -3.509705103e-07)
5(-4.785995795e-07 -4.600866866e-07 -4.36466369e-07 -4.006076482e-07 -3.538220484e-07)
5(-4.861208308e-07 -4.667928964e-07 -4.407265448e-07 -4.022574985e-07 -3.542166997e-07)
5(-4.939206155e-07 -4.730952301e-07 -4.423822558e-07 -4.021337494e-07 -3.540739643e-07)
5(-4.999910246e-07 -4.783226568e-07 -4.467846831e-07 -4.016383372e-07 -3.521638268e-07)
5(-5.062693148e-07 -4.811686368e-07 -4.464343289e-07 -3.99959122e-07 -3.488246223e-07)
5(-5.082168157e-07 -4.81358566e-07 -4.465370153e-07 -3.971876307e-07 -3.432084476e-07)
5(-5.103738209e-07 -4.792837386e-07 -4.440207069e-07 -3.933474006e-07 -3.361092279e-07)
5(-5.095884519e-07 -4.756935816e-07 -4.372404031e-07 -3.841438286e-07 -3.261125689e-07)
5(-5.080043728e-07 -4.712161773e-07 -4.3068216e-07 -3.756210851e-07 -3.162490847e-07)
5(-5.04574926e-07 -4.62699211e-07 -4.191408901e-07 -3.619921199e-07 -2.987491859e-07)
5(-4.972489864e-07 -4.510453566e-07 -4.036123425e-07 -3.458653132e-07 -2.827202666e-07)
5(-4.867655425e-07 -4.371776643e-07 -3.86519842e-07 -3.258660696e-07 -2.607442232e-07)
5(-4.728016672e-07 -4.173110313e-07 -3.624049831e-07 -3.020141771e-07 -2.365148922e-07)
5(-4.550002512e-07 -3.979372941e-07 -3.416682019e-07 -2.761396839e-07 -2.103142558e-07)
5(-4.335280956e-07 -3.701099802e-07 -3.122717609e-07 -2.45421331e-07 -1.829476578e-07)
5(-4.060544069e-07 -3.396994414e-07 -2.785079588e-07 -2.130628856e-07 -1.517137494e-07)
5(-3.730354262e-07 -3.044528623e-07 -2.413890374e-07 -1.784163598e-07 -1.216218027e-07)
5(-3.373527986e-07 -2.67198264e-07 -2.044745221e-07 -1.437558802e-07 -9.173572876e-08)
5(-2.978010888e-07 -2.263343811e-07 -1.658171431e-07 -1.101907668e-07 -6.48957385e-08)
5(-2.545467394e-07 -1.848699426e-07 -1.284269351e-07 -7.987851801e-08 -4.283878537e-08)
5(-2.09302899e-07 -1.434371428e-07 -9.320787878e-08 -5.334309499e-08 -2.573671604e-08)
5(-1.645842271e-07 -1.055661181e-07 -6.372781062e-08 -3.276207641e-08 -1.426670309e-08)
5(-1.226295551e-07 -7.254355205e-08 -4.015750276e-08 -1.823923618e-08 -6.957258578e-09)
5(-8.558581668e-08 -4.617291011e-08 -2.268850066e-08 -8.952454169e-09 -2.945555826e-09)
5(-5.483346402e-08 -2.66554204e-08 -1.136863901e-08 -3.853099017e-09 -1.033708758e-09)
5(-3.212147937e-08 -1.365359311e-08 -4.890838812e-09 -1.414945065e-09 -2.968788408e-10)
5(-1.661576732e-08 -6.007818335e-09 -1.772961943e-09 -4.098965046e-10 -6.596203304e-11)
5(-7.402347854e-09 -2.186180423e-09 -5.168927611e-10 -9.605372281e-11 -1.06072808e-11)
5(-2.666054623e-09 -6.25152769e-10 -1.130152665e-10 -1.603271084e-11 -1.324236355e-12)
5(-7.36752713e-10 -1.333184521e-10 -1.809197767e-11 -1.91657433e-12 -1.031908068e-13)
5(-1.409944806e-10 -1.982918012e-11 -1.804476516e-12 -1.321746751e-13 -4.490359376e-15)
5(-1.858041619e-11 -1.863847632e-12 -1.154043164e-13 -6.54285014e-15 -1.32317383e-16)
5(-1.318408221e-12 -9.998160449e-14 -3.662956048e-15 -1.949924417e-16 -1.374055134e-18)
5(-4.907761409e-14 -2.140678233e-15 -7.07867696e-17 -3.876168298e-18 -5.322009726e-21)
5(-4.401735849e-16 -2.508315338e-17 -7.020607685e-19 -6.059515492e-20 -1.29622529e-23)
5(-1.069411745e-18 1.294747614e-17 1.700343569e-17 6.659349732e-20 -1.65872413e-27)
5(-4.469908289e-22 -5.36868839e-27 0 -1.642182863e-34 -1.093782263e-33)
)


60
(
5(-7.734642157e-08 -8.803434803e-08 -8.354341581e-08 -9.118368322e-08 -8.305415092e-08)
5(-1.035100568e-07 -1.108421065e-07 -1.052769998e-07 -1.089569155e-07 -1.008736594e-07)
5(-1.235014173e-07 -1.27990648e-07 -1.243923368e-07 -1.246388421e-07 -1.169997755e-07)
5(-1.382079311e-07 -1.41591128e-07 -1.394134484e-07 -1.38192393e-07 -1.304893899e-07)
5(-1.504838102e-07 -1.538959729e-07 -1.511821305e-07 -1.501918417e-07 -1.41842655e-07)
5(-1.613123754e-07 -1.659180866e-07 -1.620894844e-07 -1.617442998e-07 -1.52446623e-07)
5(-1.724253731e-07 -1.773741076e-07 -1.737956675e-07 -1.72771587e-07 -1.63159921e-07)
5(-1.840612919e-07 -1.887616994e-07 -1.851918218e-07 -1.836656071e-07 -1.738882474e-07)
5(-1.956103405e-07 -2.000214803e-07 -1.966055445e-07 -1.945481249e-07 -1.843218275e-07)
5(-2.062668419e-07 -2.107203184e-07 -2.073353956e-07 -2.047581849e-07 -1.943203115e-07)
5(-2.170570775e-07 -2.209036272e-07 -2.176553409e-07 -2.145587401e-07 -2.035992044e-07)
5(-2.268804776e-07 -2.310006659e-07 -2.273445049e-07 -2.24003703e-07 -2.124111742e-07)
5(-2.366869731e-07 -2.406527835e-07 -2.368720147e-07 -2.331814087e-07 -2.209986385e-07)
5(-2.464295955e-07 -2.501091663e-07 -2.461689875e-07 -2.417887098e-07 -2.291175267e-07)
5(-2.559507194e-07 -2.59333638e-07 -2.552305199e-07 -2.501910974e-07 -2.369012716e-07)
5(-2.649533362e-07 -2.680847524e-07 -2.637678706e-07 -2.581532572e-07 -2.442175409e-07)
5(-2.738062392e-07 -2.765603994e-07 -2.718502342e-07 -2.656778406e-07 -2.511072184e-07)
5(-2.824465408e-07 -2.845644005e-07 -2.795143917e-07 -2.727203732e-07 -2.575048525e-07)
5(-2.905060239e-07 -2.924944509e-07 -2.869198147e-07 -2.793974494e-07 -2.634080034e-07)
5(-2.984662639e-07 -2.998247511e-07 -2.9376349e-07 -2.854646947e-07 -2.687480451e-07)
5(-3.05963413e-07 -3.067335159e-07 -3.002563161e-07 -2.912964312e-07 -2.736760642e-07)
5(-3.130522539e-07 -3.133663931e-07 -3.062769934e-07 -2.962716876e-07 -2.779019417e-07)
5(-3.198231667e-07 -3.194789214e-07 -3.11741274e-07 -3.009644313e-07 -2.816052088e-07)
5(-3.262003319e-07 -3.249390598e-07 -3.163727242e-07 -3.051332925e-07 -2.846467613e-07)
5(-3.320857554e-07 -3.299162073e-07 -3.208855115e-07 -3.083379664e-07 -2.870152227e-07)
5(-3.372725268e-07 -3.343966142e-07 -3.241477254e-07 -3.107960784e-07 -2.885045365e-07)
5(-3.419686636e-07 -3.383477171e-07 -3.269654354e-07 -3.124705977e-07 -2.89125532e-07)
5(-3.460689881e-07 -3.412946975e-07 -3.289902935e-07 -3.133420907e-07 -2.888360694e-07)
5(-3.495040752e-07 -3.434619324e-07 -3.299567361e-07 -3.131913314e-07 -2.873604143e-07)
5(-3.520258385e-07 -3.448759121e-07 -3.300318668e-07 -3.119601754e-07 -2.848192244e-07)
5(-3.537965234e-07 -3.45299482e-07 -3.28945135e-07 -3.09467475e-07 -2.807424159e-07)
5(-3.545737739e-07 -3.445923475e-07 -3.265252607e-07 -3.055042605e-07 -2.751974003e-07)
5(-3.542728135e-07 -3.42590655e-07 -3.228189545e-07 -2.999229324e-07 -2.680044975e-07)
5(-3.526911906e-07 -3.391299488e-07 -3.173153213e-07 -2.926666731e-07 -2.588158073e-07)
5(-3.49839939e-07 -3.340308624e-07 -3.098747949e-07 -2.832100978e-07 -2.472909447e-07)
5(-3.452484155e-07 -3.269757172e-07 -3.003498288e-07 -2.712231128e-07 -2.33606736e-07)
5(-3.391614356e-07 -3.178986806e-07 -2.881554744e-07 -2.568166356e-07 -2.171047226e-07)
5(-3.30504884e-07 -3.061189022e-07 -2.735827643e-07 -2.394326907e-07 -1.980354705e-07)
5(-3.196717698e-07 -2.91660577e-07 -2.557184651e-07 -2.188894142e-07 -1.764477145e-07)
5(-3.062038973e-07 -2.739188322e-07 -2.344864353e-07 -1.956454681e-07 -1.525307749e-07)
5(-2.893863049e-07 -2.526546207e-07 -2.103142845e-07 -1.698406866e-07 -1.268209035e-07)
5(-2.693151288e-07 -2.276031544e-07 -1.831716058e-07 -1.421206925e-07 -1.004008906e-07)
5(-2.453124902e-07 -1.996191928e-07 -1.538171566e-07 -1.136647488e-07 -7.528762719e-08)
5(-2.181271679e-07 -1.6922722e-07 -1.236984824e-07 -8.578572769e-08 -5.262149176e-08)
5(-1.874160027e-07 -1.372656358e-07 -9.433923322e-08 -6.041168713e-08 -3.372030123e-08)
5(-1.550207523e-07 -1.056459543e-07 -6.710893166e-08 -3.917773341e-08 -1.947645142e-08)
5(-1.218292705e-07 -7.671326373e-08 -4.39025712e-08 -2.30504179e-08 -1.00029467e-08)
5(-9.017144456e-08 -5.113338175e-08 -2.611707191e-08 -1.194968404e-08 -4.423148148e-09)
5(-6.156025629e-08 -3.079987825e-08 -1.362297778e-08 -5.377501908e-09 -1.675110234e-09)
5(-3.845704449e-08 -1.644915817e-08 -5.986243822e-09 -2.008860933e-09 -5.156080736e-10)
5(-2.125561499e-08 -7.510851715e-09 -2.227897324e-09 -6.291153161e-10 -1.243185998e-10)
5(-1.006848247e-08 -2.754089162e-09 -6.614643353e-10 -1.471332797e-10 -2.149491885e-11)
5(-3.771278954e-09 -8.039668168e-10 -1.473381088e-10 -2.605747091e-11 -2.856845332e-12)
5(-1.090231527e-09 -1.716329265e-10 -2.241324617e-11 -3.215605571e-12 -2.407067688e-13)
5(-2.29711243e-10 -2.442280109e-11 -2.106407219e-12 -2.370620697e-13 -1.124830383e-14)
5(-2.731267111e-11 -2.006729633e-12 -1.210177664e-13 -9.978693848e-15 -3.436607099e-16)
5(-1.257973196e-12 -1.196424855e-13 -3.342077406e-15 -2.648601591e-16 -3.018779899e-18)
5(-6.375898746e-14 -3.137562753e-15 -6.63333659e-17 -4.724518871e-18 -1.42637681e-20)
5(-4.973251667e-16 -9.936168953e-17 -1.387864417e-16 7.132549747e-18 -1.096655564e-23)
5(-1.222358856e-17 -1.753815724e-13 -3.78804564e-13 -1.228846803e-15 -1.793119266e-32)
)


60
(
5(-7.058916219e-08 -7.876703352e-08 -7.787886813e-08 -8.505744092e-08 -7.959964229e-08)
5(-9.246831622e-08 -9.876741482e-08 -9.660394199e-08 -1.00712418e-07 -9.566272243e-08)
5(-1.088341322e-07 -1.139397051e-07 -1.125928172e-07 -1.146389565e-07 -1.099943704e-07)
5(-1.214364921e-07 -1.260063588e-07 -1.258490579e-07 -1.269574677e-07 -1.224636769e-07)
5(-1.321802677e-07 -1.370543248e-07 -1.368665295e-07 -1.380755252e-07 -1.333353499e-07)
5(-1.423542039e-07 -1.478862026e-07 -1.471419331e-07 -1.487577709e-07 -1.436312514e-07)
5(-1.524176466e-07 -1.583688891e-07 -1.576337707e-07 -1.590577105e-07 -1.537713569e-07)
5(-1.626125433e-07 -1.685418641e-07 -1.680636186e-07 -1.692474992e-07 -1.637986861e-07)
5(-1.725449136e-07 -1.78441534e-07 -1.781847788e-07 -1.790495262e-07 -1.735064501e-07)
5(-1.821548971e-07 -1.879709798e-07 -1.879520952e-07 -1.885335784e-07 -1.826606074e-07)
5(-1.915331056e-07 -1.973051321e-07 -1.971848106e-07 -1.975474782e-07 -1.914330089e-07)
5(-2.004923817e-07 -2.063326371e-07 -2.061360948e-07 -2.063316019e-07 -1.998373608e-07)
5(-2.091437873e-07 -2.149493777e-07 -2.147912076e-07 -2.146937449e-07 -2.078793581e-07)
5(-2.175578201e-07 -2.234362841e-07 -2.231745892e-07 -2.228023639e-07 -2.156102807e-07)
5(-2.259629787e-07 -2.316193604e-07 -2.312414882e-07 -2.305768582e-07 -2.229635002e-07)
5(-2.342095385e-07 -2.395808572e-07 -2.390129786e-07 -2.379950643e-07 -2.299459113e-07)
5(-2.418349911e-07 -2.472317557e-07 -2.464501118e-07 -2.450126098e-07 -2.36543357e-07)
5(-2.493885201e-07 -2.545620223e-07 -2.536644208e-07 -2.515649793e-07 -2.428052159e-07)
5(-2.566627623e-07 -2.616039642e-07 -2.602828122e-07 -2.580222739e-07 -2.485883643e-07)
5(-2.636234573e-07 -2.683088848e-07 -2.667542744e-07 -2.638831943e-07 -2.539741023e-07)
5(-2.704755612e-07 -2.746501505e-07 -2.728036387e-07 -2.694213827e-07 -2.589170326e-07)
5(-2.767751371e-07 -2.806960123e-07 -2.785385497e-07 -2.746904202e-07 -2.634675701e-07)
5(-2.82887395e-07 -2.863446867e-07 -2.836878286e-07 -2.792907828e-07 -2.675527654e-07)
5(-2.885815508e-07 -2.916284066e-07 -2.885136802e-07 -2.835737028e-07 -2.710381366e-07)
5(-2.940824279e-07 -2.965493421e-07 -2.928927676e-07 -2.873396094e-07 -2.741290203e-07)
5(-2.990375915e-07 -3.008739875e-07 -2.967847685e-07 -2.905701392e-07 -2.765955422e-07)
5(-3.037263726e-07 -3.053139632e-07 -3.002503639e-07 -2.932378367e-07 -2.783877602e-07)
5(-3.080771776e-07 -3.087351607e-07 -3.029735091e-07 -2.951777816e-07 -2.795020925e-07)
5(-3.116064978e-07 -3.11899588e-07 -3.052963926e-07 -2.966263754e-07 -2.798037371e-07)
5(-3.149993143e-07 -3.144681868e-07 -3.068291141e-07 -2.971260186e-07 -2.793443892e-07)
5(-3.176623208e-07 -3.162461661e-07 -3.075258019e-07 -2.968804966e-07 -2.776567325e-07)
5(-3.198672365e-07 -3.176514664e-07 -3.075974988e-07 -2.95596727e-07 -2.748347359e-07)
5(-3.215376665e-07 -3.183331413e-07 -3.065074591e-07 -2.93168052e-07 -2.708427847e-07)
5(-3.225234655e-07 -3.176612147e-07 -3.043398914e-07 -2.893291131e-07 -2.653060666e-07)
5(-3.226858122e-07 -3.162930503e-07 -3.011352338e-07 -2.83992379e-07 -2.578126555e-07)
5(-3.223593222e-07 -3.136099914e-07 -2.960548802e-07 -2.768684406e-07 -2.483727016e-07)
5(-3.208603464e-07 -3.09617379e-07 -2.891257834e-07 -2.675193145e-07 -2.365115753e-07)
5(-3.177896409e-07 -3.038248153e-07 -2.799756232e-07 -2.554087009e-07 -2.218776706e-07)
5(-3.13645592e-07 -2.95829253e-07 -2.680140267e-07 -2.404031359e-07 -2.043093011e-07)
5(-3.074927027e-07 -2.854163101e-07 -2.534637396e-07 -2.223702882e-07 -1.839564332e-07)
5(-2.990051766e-07 -2.714667424e-07 -2.35279742e-07 -2.008773581e-07 -1.603664281e-07)
5(-2.878780045e-07 -2.543118804e-07 -2.134859155e-07 -1.762808813e-07 -1.350528189e-07)
5(-2.73049801e-07 -2.333178684e-07 -1.883312101e-07 -1.49165344e-07 -1.084830336e-07)
5(-2.546518494e-07 -2.082470581e-07 -1.60579476e-07 -1.207079809e-07 -8.248382891e-08)
5(-2.319033417e-07 -1.801046883e-07 -1.309949813e-07 -9.243488207e-08 -5.887591996e-08)
5(-2.050611018e-07 -1.495370832e-07 -1.011102438e-07 -6.611533432e-08 -3.881595573e-08)
5(-1.746823421e-07 -1.180503919e-07 -7.299019237e-08 -4.396696452e-08 -2.310663988e-08)
5(-1.418607509e-07 -8.769954154e-08 -4.842875461e-08 -2.626707073e-08 -1.222330936e-08)
5(-1.089248797e-07 -6.018581456e-08 -2.907822433e-08 -1.39044784e-08 -5.5861594e-09)
5(-7.799701447e-08 -3.75734111e-08 -1.539908669e-08 -6.456430318e-09 -2.145956899e-09)
5(-5.097706261e-08 -2.072140891e-08 -6.985373629e-09 -2.49413776e-09 -6.83114711e-10)
5(-2.995487272e-08 -9.59899613e-09 -2.612273496e-09 -7.895249585e-10 -1.769173239e-10)
5(-1.529529414e-08 -3.785403491e-09 -7.76561573e-10 -1.859149268e-10 -3.010060541e-11)
5(-6.367412773e-09 -1.18360913e-09 -1.684497056e-10 -3.187111066e-11 -4.304231657e-12)
5(-1.958668878e-09 -2.579594201e-10 -2.535127808e-11 -3.482730854e-12 -3.427055658e-13)
5(-5.179458239e-10 -3.85765755e-11 -2.300615421e-12 -2.392439367e-13 -1.114760633e-14)
5(-7.648419943e-11 -3.315645722e-12 -1.015917999e-13 -1.025507544e-14 -3.308425609e-16)
5(-5.48541805e-12 -1.856017599e-13 -3.617228726e-15 -2.021446159e-16 -2.05871947e-18)
5(-2.931308649e-13 -4.379006434e-15 -1.182853689e-16 -1.735744546e-18 -4.517902351e-21)
5(-4.007079107e-13 -5.372688506e-16 3.019954328e-16 1.106431167e-18 -5.632594291e-27)
)


60
(
5(-6.588890115e-08 -7.284510019e-08 -7.384489353e-08 -8.081408519e-08 -7.700313806e-08)
5(-8.54093397e-08 -9.13398656e-08 -9.086410555e-08 -9.53838119e-08 -9.218755525e-08)
5(-1.001002946e-07 -1.053524248e-07 -1.05416208e-07 -1.084048501e-07 -1.057143357e-07)
5(-1.114186988e-07 -1.165330404e-07 -1.176818545e-07 -1.200095502e-07 -1.175211957e-07)
5(-1.214065306e-07 -1.268220459e-07 -1.281890893e-07 -1.305925406e-07 -1.280743914e-07)
5(-1.309169833e-07 -1.369277702e-07 -1.379567122e-07 -1.406807156e-07 -1.380541119e-07)
5(-1.4028008e-07 -1.46572618e-07 -1.477408202e-07 -1.505313846e-07 -1.478028419e-07)
5(-1.495474976e-07 -1.560554927e-07 -1.574916543e-07 -1.601572476e-07 -1.573768283e-07)
5(-1.587574002e-07 -1.652503829e-07 -1.66880103e-07 -1.694227905e-07 -1.666212248e-07)
5(-1.675918424e-07 -1.741149894e-07 -1.759799561e-07 -1.783413742e-07 -1.754424785e-07)
5(-1.760668175e-07 -1.827231071e-07 -1.846442648e-07 -1.869517134e-07 -1.838748691e-07)
5(-1.843789142e-07 -1.910707834e-07 -1.930834006e-07 -1.952793197e-07 -1.919568561e-07)
5(-1.924355457e-07 -1.991813161e-07 -2.012014964e-07 -2.032394219e-07 -1.997105799e-07)
5(-2.002771102e-07 -2.070587894e-07 -2.090866801e-07 -2.109202871e-07 -2.072513286e-07)
5(-2.078174183e-07 -2.147321022e-07 -2.166644453e-07 -2.183497956e-07 -2.14337079e-07)
5(-2.152576551e-07 -2.220746325e-07 -2.239298175e-07 -2.254970602e-07 -2.211879922e-07)
5(-2.225407627e-07 -2.292283005e-07 -2.309702654e-07 -2.322012463e-07 -2.276353971e-07)
5(-2.293458239e-07 -2.360913078e-07 -2.377492106e-07 -2.388053446e-07 -2.337987982e-07)
5(-2.362332183e-07 -2.426672228e-07 -2.441766535e-07 -2.448959714e-07 -2.39619116e-07)
5(-2.426090432e-07 -2.490278566e-07 -2.504080655e-07 -2.508093625e-07 -2.450865059e-07)
5(-2.488497692e-07 -2.551590241e-07 -2.561842407e-07 -2.562641101e-07 -2.502209274e-07)
5(-2.550741416e-07 -2.608623246e-07 -2.617993133e-07 -2.615321065e-07 -2.550272973e-07)
5(-2.607730292e-07 -2.664225551e-07 -2.669732742e-07 -2.66340444e-07 -2.593814783e-07)
5(-2.660467617e-07 -2.716796082e-07 -2.720310205e-07 -2.708120376e-07 -2.633744802e-07)
5(-2.713537448e-07 -2.767212651e-07 -2.765057669e-07 -2.749582592e-07 -2.668328007e-07)
5(-2.762995995e-07 -2.812896978e-07 -2.806746482e-07 -2.787405323e-07 -2.700431647e-07)
5(-2.808929183e-07 -2.856289892e-07 -2.845508707e-07 -2.82098398e-07 -2.727298189e-07)
5(-2.85322665e-07 -2.896256952e-07 -2.880289637e-07 -2.849752441e-07 -2.748274822e-07)
5(-2.895000985e-07 -2.933735625e-07 -2.911409379e-07 -2.874860825e-07 -2.763773546e-07)
5(-2.933041555e-07 -2.968107779e-07 -2.937561411e-07 -2.893450292e-07 -2.773325098e-07)
5(-2.967560966e-07 -2.997948403e-07 -2.958875842e-07 -2.906188118e-07 -2.7750936e-07)
5(-3.000153259e-07 -3.024271566e-07 -2.977164196e-07 -2.912787278e-07 -2.768203583e-07)
5(-3.030383675e-07 -3.046625944e-07 -2.985615828e-07 -2.91183013e-07 -2.751806821e-07)
5(-3.058510857e-07 -3.065348511e-07 -2.989188608e-07 -2.899788315e-07 -2.72187576e-07)
5(-3.082535855e-07 -3.078365776e-07 -2.984530184e-07 -2.877503026e-07 -2.679588785e-07)
5(-3.102644284e-07 -3.083938764e-07 -2.968872119e-07 -2.841180357e-07 -2.618079976e-07)
5(-3.120591418e-07 -3.080723741e-07 -2.941569221e-07 -2.786104525e-07 -2.537865378e-07)
5(-3.133258865e-07 -3.066383597e-07 -2.894495249e-07 -2.711157871e-07 -2.431958797e-07)
5(-3.138851854e-07 -3.038225867e-07 -2.82780689e-07 -2.609711992e-07 -2.295723324e-07)
5(-3.132391463e-07 -2.992072958e-07 -2.735294942e-07 -2.475802326e-07 -2.126131131e-07)
5(-3.114529356e-07 -2.921627476e-07 -2.611339562e-07 -2.306166107e-07 -1.929160645e-07)
5(-3.072967087e-07 -2.821148821e-07 -2.449923859e-07 -2.103019727e-07 -1.691347063e-07)
5(-3.006060808e-07 -2.683588929e-07 -2.253217231e-07 -1.861638675e-07 -1.432758805e-07)
5(-2.903762393e-07 -2.499772416e-07 -2.011688093e-07 -1.586327456e-07 -1.157442022e-07)
5(-2.7609035e-07 -2.27593549e-07 -1.735350234e-07 -1.293442766e-07 -8.915041573e-08)
5(-2.563867444e-07 -2.008155819e-07 -1.433865516e-07 -9.978924367e-08 -6.405110069e-08)
5(-2.327932743e-07 -1.701828792e-07 -1.123676364e-07 -7.205967568e-08 -4.232067115e-08)
5(-2.022420117e-07 -1.378970807e-07 -8.213479623e-08 -4.838631146e-08 -2.569518794e-08)
5(-1.692928804e-07 -1.053924193e-07 -5.566374074e-08 -2.936890839e-08 -1.373272939e-08)
5(-1.358018186e-07 -7.506438961e-08 -3.409886854e-08 -1.569640403e-08 -6.335991065e-09)
5(-1.005094484e-07 -4.838801046e-08 -1.842397074e-08 -7.276922558e-09 -2.460509326e-09)
5(-6.922346603e-08 -2.845697635e-08 -8.539161495e-09 -2.836443203e-09 -7.959837625e-10)
5(-4.272311795e-08 -1.398414244e-08 -3.350372188e-09 -8.671737103e-10 -1.926362622e-10)
5(-2.395421823e-08 -5.88125969e-09 -1.003442998e-09 -2.104854659e-10 -3.576069896e-11)
5(-1.077886461e-08 -1.984724282e-09 -2.169811443e-10 -3.42122891e-11 -4.071292112e-12)
5(-4.511998043e-09 -4.984613324e-10 -2.836273583e-11 -3.468098693e-12 -2.889259297e-13)
5(-1.302593335e-09 -1.012952859e-10 -3.259280445e-12 -2.09333908e-13 -7.657445142e-15)
5(-3.132549826e-10 -8.830701007e-12 -1.6624659e-13 -8.167884721e-15 -1.840515127e-16)
5(-5.769998139e-11 -6.843981835e-13 1.857846305e-15 -1.130086262e-16 -4.616358591e-19)
5(-8.966068421e-11 -9.346918541e-13 3.716703011e-13 1.207803332e-15 -1.624666523e-15)
)


60
(
5(-6.235812967e-08 -6.858370188e-08 -7.072779017e-08 -7.756241013e-08 -7.48920394e-08)
5(-8.038176432e-08 -8.60167774e-08 -8.664204158e-08 -9.143522988e-08 -8.951310525e-08)
5(-9.395177979e-08 -9.920364945e-08 -1.002854834e-07 -1.038168714e-07 -1.025169142e-07)
5(-1.044429816e-07 -1.097839126e-07 -1.118850626e-07 -1.149311243e-07 -1.139231054e-07)
5(-1.138238273e-07 -1.195170215e-07 -1.219182107e-07 -1.2508137e-07 -1.241455979e-07)
5(-1.228136649e-07 -1.290101609e-07 -1.312687104e-07 -1.347993251e-07 -1.338403086e-07)
5(-1.316574223e-07 -1.381593681e-07 -1.405740025e-07 -1.442384802e-07 -1.433196844e-07)
5(-1.403225477e-07 -1.470842371e-07 -1.498241452e-07 -1.534301116e-07 -1.525313819e-07)
5(-1.489115409e-07 -1.557127521e-07 -1.587054514e-07 -1.623190085e-07 -1.614818143e-07)
5(-1.571236833e-07 -1.641685989e-07 -1.673412145e-07 -1.708964631e-07 -1.700140083e-07)
5(-1.650971993e-07 -1.722170986e-07 -1.755515089e-07 -1.791459152e-07 -1.782090588e-07)
5(-1.72824269e-07 -1.80169855e-07 -1.835914059e-07 -1.870977694e-07 -1.860667607e-07)
5(-1.803696535e-07 -1.878319135e-07 -1.912639161e-07 -1.94810325e-07 -1.936480101e-07)
5(-1.878421711e-07 -1.952712141e-07 -1.988388187e-07 -2.02226857e-07 -2.009428567e-07)
5(-1.948903325e-07 -2.02462531e-07 -2.060364702e-07 -2.093991144e-07 -2.079661414e-07)
5(-2.01805003e-07 -2.094454206e-07 -2.131350776e-07 -2.16299681e-07 -2.147023358e-07)
5(-2.085611311e-07 -2.162145115e-07 -2.198013105e-07 -2.229004986e-07 -2.211033067e-07)
5(-2.151544509e-07 -2.227581804e-07 -2.262459642e-07 -2.293776715e-07 -2.272142326e-07)
5(-2.214020342e-07 -2.290526228e-07 -2.325437178e-07 -2.353226935e-07 -2.330705886e-07)
5(-2.275938239e-07 -2.351393135e-07 -2.385174548e-07 -2.411946841e-07 -2.385953727e-07)
5(-2.334696082e-07 -2.410450541e-07 -2.442813738e-07 -2.467413904e-07 -2.438986612e-07)
5(-2.391331515e-07 -2.465905396e-07 -2.497561919e-07 -2.519797875e-07 -2.488727218e-07)
5(-2.447613993e-07 -2.520404313e-07 -2.55028329e-07 -2.570343292e-07 -2.535133295e-07)
5(-2.499706463e-07 -2.572292371e-07 -2.600026002e-07 -2.617626165e-07 -2.57927143e-07)
5(-2.55049912e-07 -2.621794286e-07 -2.646870287e-07 -2.661955113e-07 -2.619089862e-07)
5(-2.600086843e-07 -2.671152395e-07 -2.692347283e-07 -2.702856806e-07 -2.656132863e-07)
5(-2.645081889e-07 -2.714434647e-07 -2.734554904e-07 -2.741680852e-07 -2.688842719e-07)
5(-2.690256172e-07 -2.757361001e-07 -2.773331624e-07 -2.77806139e-07 -2.718415682e-07)
5(-2.734839933e-07 -2.799041708e-07 -2.810496739e-07 -2.810458862e-07 -2.744069772e-07)
5(-2.776053982e-07 -2.838914983e-07 -2.845027638e-07 -2.838774357e-07 -2.764881229e-07)
5(-2.815923415e-07 -2.875422835e-07 -2.876612941e-07 -2.864500623e-07 -2.778666908e-07)
5(-2.855370634e-07 -2.910152996e-07 -2.90499903e-07 -2.886544745e-07 -2.789597892e-07)
5(-2.894080956e-07 -2.943782868e-07 -2.93074288e-07 -2.902252812e-07 -2.791118397e-07)