/*--------------------------------*- C++ -*----------------------------------*\
| =========                 |                                                 |
| \\      /  F ield         | OpenFOAM: The Open Source CFD Toolbox           |
|  \\    /   O peration     | Version:  2.3.1                                 |
|   \\  /    A nd           | Web:      www.OpenFOAM.org                      |
|    \\/     M anipulation  |                                                 |
\*---------------------------------------------------------------------------*/
FoamFile
{
    version     2.0;
    format      ascii;
    class       dictionary;
    location    "constant";
    object      DPSI51;
}
// * * * * * * * * * * * * * * * * * * * * * * * * * * * * * * * * * * * * * //

DPSI51_table
60
(

60
(
5(8.71339983e-07 1.625671964e-06 1.627463582e-06 1.456159672e-06 2.026945521e-06)
5(6.553601175e-07 1.560918287e-06 1.82996586e-06 1.479936398e-06 1.784896967e-06)
5(2.165924328e-06 2.261963435e-06 1.556790946e-06 9.945366143e-07 6.588431629e-07)
5(2.89263584e-06 2.951780491e-06 1.483978621e-06 1.797681405e-06 2.999637487e-06)
5(2.821171636e-06 2.868169345e-06 1.90369426e-06 1.806159775e-06 2.182874935e-06)
5(2.159485598e-06 2.148360667e-06 2.033338155e-06 2.142664277e-06 1.944291787e-06)
5(1.988671859e-06 2.209101443e-06 2.114580054e-06 2.492394053e-06 2.992844053e-06)
5(2.579668998e-06 2.806810228e-06 2.379347965e-06 2.059181886e-06 2.109465663e-06)
5(2.444504693e-06 2.71820404e-06 2.52541705e-06 2.459818759e-06 2.617250268e-06)
5(2.693656868e-06 3.016885146e-06 2.623429656e-06 2.526870576e-06 2.94970702e-06)
5(2.777365998e-06 3.123948811e-06 2.776053026e-06 2.682441003e-06 3.097489802e-06)
5(2.963650381e-06 3.210223959e-06 2.906993001e-06 2.841612373e-06 3.119061951e-06)
5(3.277924694e-06 3.411302678e-06 3.073469351e-06 3.038206549e-06 3.249688282e-06)
5(3.28419715e-06 3.480730118e-06 3.127702071e-06 3.10406635e-06 3.441866008e-06)
5(3.484028305e-06 3.6465663e-06 3.316806187e-06 3.257202677e-06 3.492128871e-06)
5(3.586760403e-06 3.770868656e-06 3.432725674e-06 3.359201955e-06 3.625401504e-06)
5(3.692525376e-06 3.895016521e-06 3.562198013e-06 3.506191929e-06 3.815727597e-06)
5(3.814313352e-06 4.020956867e-06 3.708575438e-06 3.635022644e-06 3.915627584e-06)
5(3.958686913e-06 4.154284902e-06 3.812505973e-06 3.744541823e-06 4.056427295e-06)
5(4.092050391e-06 4.271982063e-06 3.939350165e-06 3.816425889e-06 4.047285078e-06)
5(4.164320439e-06 4.359141786e-06 4.060633747e-06 3.948330502e-06 4.178571929e-06)
5(4.255690299e-06 4.48170827e-06 4.063010892e-06 3.954614608e-06 4.362615728e-06)
5(4.327022232e-06 4.547172447e-06 4.216986559e-06 4.128502561e-06 4.462149522e-06)
5(4.541734366e-06 4.676075234e-06 4.273958693e-06 4.203636318e-06 4.539340273e-06)
5(4.618119866e-06 4.779247665e-06 4.399446316e-06 4.302368461e-06 4.622624836e-06)
5(4.702763569e-06 4.92315764e-06 4.547129675e-06 4.336205926e-06 4.604971378e-06)
5(4.739761619e-06 4.963691472e-06 4.671762108e-06 4.465623926e-06 4.660089172e-06)
5(4.856622386e-06 5.099813529e-06 4.767190963e-06 4.504458789e-06 4.708759262e-06)
5(4.905562973e-06 5.11974907e-06 4.801097798e-06 4.608321715e-06 4.844876466e-06)
5(5.037914265e-06 5.182932265e-06 4.786329149e-06 4.65749792e-06 4.971162883e-06)
5(5.106934927e-06 5.268298252e-06 4.87093462e-06 4.687366889e-06 4.967648738e-06)
5(5.141106201e-06 5.288514354e-06 4.860296522e-06 4.614327224e-06 4.851982133e-06)
5(5.25077117e-06 5.379348512e-06 4.893937282e-06 4.783441338e-06 5.205540927e-06)
5(5.335462549e-06 5.467556997e-06 4.881141735e-06 4.582013522e-06 4.921704991e-06)
5(5.333795623e-06 5.475049999e-06 4.917056413e-06 4.630918141e-06 4.969545719e-06)
5(5.490294784e-06 5.637966762e-06 4.896813677e-06 4.515146958e-06 4.955632792e-06)
5(5.329329553e-06 5.446808543e-06 4.900068356e-06 4.747651326e-06 5.196821062e-06)
5(5.472095079e-06 5.465032857e-06 4.891242971e-06 4.319403021e-06 4.233503282e-06)
5(5.405832305e-06 5.506497365e-06 4.852493954e-06 4.665603429e-06 5.17993257e-06)
5(5.308713426e-06 5.534779631e-06 4.871312849e-06 3.100591156e-06 2.1474172e-06)
5(5.16632235e-06 5.380025676e-06 4.849957754e-06 3.344464566e-06 2.514961619e-06)
5(5.198949152e-06 5.345446742e-06 4.309357181e-06 3.473884382e-06 3.778843891e-06)
5(4.984253162e-06 5.21101107e-06 3.175739864e-06 3.699367819e-06 6.511923597e-06)
5(5.052106761e-06 5.601022975e-06 3.215924208e-06 3.45831506e-06 6.682722538e-06)
5(4.854748361e-06 5.369071215e-06 3.302458566e-06 3.757113791e-06 6.839631067e-06)
5(5.084296361e-06 5.141118117e-06 3.449308927e-06 4.195911934e-06 6.713908271e-06)
5(4.83106249e-06 3.671961229e-06 3.783050117e-06 5.907946022e-06 6.713210534e-06)
5(3.959032801e-06 3.339042469e-06 4.497758683e-06 6.601527397e-06 6.876790085e-06)
5(4.168883652e-06 3.442826189e-06 4.579536505e-06 6.75655119e-06 7.018270448e-06)
5(5.578325857e-07 3.670975604e-06 6.675360211e-06 6.827539896e-06 7.14906798e-06)
5(1.214435577e-06 4.129221503e-06 6.913787401e-06 6.942849983e-06 7.158990098e-06)
5(4.895590694e-06 5.996396466e-06 6.977332903e-06 7.043381509e-06 7.232162406e-06)
5(6.522707786e-06 6.811830482e-06 7.031022387e-06 7.107809591e-06 7.22513549e-06)
5(6.652182894e-06 6.972532623e-06 7.10663187e-06 7.198939916e-06 7.454102489e-06)
5(6.811019408e-06 7.122974674e-06 7.262077814e-06 7.276705403e-06 7.441009172e-06)
5(6.251697826e-06 6.886907057e-06 7.282846646e-06 7.321544071e-06 7.594844417e-06)
5(5.298614253e-06 6.382934551e-06 7.295057263e-06 7.495631444e-06 7.88556495e-06)
5(5.043594181e-06 6.113204794e-06 7.240181799e-06 7.133715354e-06 6.976824144e-06)
5(5.562458251e-06 6.394639883e-06 5.708337584e-06 7.008096162e-06 9.914677582e-06)
5(7.186851971e-06 7.636049519e-06 8.438534959e-06 7.647866375e-06 6.458442633e-06)
)


60
(
5(1.225376502e-06 1.751619066e-06 1.655075845e-06 1.557135965e-06 1.958604831e-06)
5(1.603019281e-06 1.87993454e-06 1.688002919e-06 1.646656783e-06 1.816856391e-06)
5(1.90937339e-06 2.038936288e-06 1.793836032e-06 1.773664976e-06 1.814149188e-06)
5(2.135883512e-06 2.233124404e-06 1.962533858e-06 1.936209053e-06 1.96641763e-06)
5(2.302655154e-06 2.438333467e-06 2.160010461e-06 2.12713366e-06 2.228312571e-06)
5(2.433233587e-06 2.624150003e-06 2.350584405e-06 2.319461199e-06 2.508783953e-06)
5(2.582993e-06 2.791712604e-06 2.524118217e-06 2.494467531e-06 2.713933984e-06)
5(2.750234754e-06 2.956784004e-06 2.684174497e-06 2.646990346e-06 2.871013278e-06)
5(2.915663405e-06 3.1140661e-06 2.835285116e-06 2.793726003e-06 3.019472813e-06)
5(3.068872276e-06 3.265999316e-06 2.985293837e-06 2.93876382e-06 3.169498382e-06)
5(3.224692168e-06 3.421351784e-06 3.132258109e-06 3.085254973e-06 3.333269491e-06)
5(3.360411431e-06 3.570166191e-06 3.276929701e-06 3.225951474e-06 3.499687622e-06)
5(3.499139063e-06 3.715684732e-06 3.415074172e-06 3.358032727e-06 3.649952224e-06)
5(3.635443002e-06 3.856122041e-06 3.551942965e-06 3.487429138e-06 3.787916133e-06)
5(3.767828851e-06 3.992120051e-06 3.682341535e-06 3.612372558e-06 3.924842186e-06)
5(3.897516081e-06 4.125490604e-06 3.80757509e-06 3.731034416e-06 4.056762572e-06)
5(4.026798641e-06 4.258454491e-06 3.931238202e-06 3.845453045e-06 4.182223811e-06)
5(4.15225118e-06 4.386441052e-06 4.049176093e-06 3.956361317e-06 4.305786553e-06)
5(4.269592829e-06 4.509774263e-06 4.166300825e-06 4.063500468e-06 4.422010653e-06)
5(4.387697502e-06 4.630004312e-06 4.27865e-06 4.169071408e-06 4.536975418e-06)
5(4.502367169e-06 4.747378727e-06 4.385220632e-06 4.26554441e-06 4.642825626e-06)
5(4.616630741e-06 4.860908919e-06 4.488848842e-06 4.359714465e-06 4.741816685e-06)
5(4.725316168e-06 4.971342698e-06 4.58699224e-06 4.449876655e-06 4.843701592e-06)
5(4.827602828e-06 5.076581021e-06 4.676651476e-06 4.530735535e-06 4.940196655e-06)
5(4.927679118e-06 5.177290317e-06 4.766400061e-06 4.610183687e-06 5.025843775e-06)
5(5.022123162e-06 5.277257121e-06 4.85186983e-06 4.677982675e-06 5.101207891e-06)
5(5.107904959e-06 5.36886985e-06 4.934139368e-06 4.742643879e-06 5.168240743e-06)
5(5.198367098e-06 5.455358655e-06 5.004392285e-06 4.799246372e-06 5.227451832e-06)
5(5.281038915e-06 5.537072115e-06 5.066525253e-06 4.851048111e-06 5.292140828e-06)
5(5.350778403e-06 5.609505595e-06 5.124697633e-06 4.890994376e-06 5.335190302e-06)
5(5.414581619e-06 5.675578271e-06 5.173702856e-06 4.92533905e-06 5.378732208e-06)
5(5.470952005e-06 5.730392035e-06 5.213932899e-06 4.950355945e-06 5.405433296e-06)
5(5.518256137e-06 5.779852864e-06 5.243516557e-06 4.960145028e-06 5.421721274e-06)
5(5.554163864e-06 5.816527893e-06 5.262487945e-06 4.958198039e-06 5.421207478e-06)
5(5.582889163e-06 5.844617423e-06 5.268363264e-06 4.942965167e-06 5.410289222e-06)
5(5.590890599e-06 5.856193179e-06 5.263327339e-06 4.914945781e-06 5.383314406e-06)
5(5.592581893e-06 5.859936583e-06 5.241928818e-06 4.879461898e-06 5.365206192e-06)
5(5.575808914e-06 5.844385568e-06 5.208548012e-06 4.836804513e-06 5.336261948e-06)
5(5.533737821e-06 5.813851208e-06 5.171004092e-06 4.77275518e-06 5.268178971e-06)
5(5.497202335e-06 5.771074136e-06 5.108540232e-06 4.671889905e-06 5.144869381e-06)
5(5.427477807e-06 5.706084258e-06 5.040210892e-06 4.530743946e-06 4.940887161e-06)
5(5.384519486e-06 5.647593846e-06 4.933211988e-06 4.34781017e-06 4.716768821e-06)
5(5.293389652e-06 5.570552421e-06 4.80246065e-06 4.155450284e-06 4.534420417e-06)
5(5.179839809e-06 5.49669094e-06 4.650952665e-06 3.976570144e-06 4.451782035e-06)
5(5.103976574e-06 5.414179422e-06 4.463750232e-06 3.831760304e-06 4.452844742e-06)
5(5.04706802e-06 5.320063978e-06 4.281872415e-06 3.737376886e-06 4.500942185e-06)
5(5.007689691e-06 5.19676433e-06 4.127115953e-06 3.720297274e-06 4.570925479e-06)
5(4.958723332e-06 5.063775292e-06 4.02879497e-06 3.778238613e-06 4.667015074e-06)
5(4.882159633e-06 4.937584253e-06 3.996955067e-06 3.908137828e-06 4.815244612e-06)
5(4.79166156e-06 4.865497711e-06 4.060921611e-06 4.097641104e-06 5.014362747e-06)
5(4.683192721e-06 4.848813319e-06 4.220004086e-06 4.338834861e-06 5.257564978e-06)
5(4.666373387e-06 4.922292742e-06 4.455955082e-06 4.631166289e-06 5.537745376e-06)
5(4.7726609e-06 5.089822637e-06 4.740438633e-06 4.947388316e-06 5.832374135e-06)
5(5.006541067e-06 5.349983421e-06 5.073100644e-06 5.309753429e-06 6.179556766e-06)
5(5.381902165e-06 5.691765431e-06 5.439363848e-06 5.696272291e-06 6.527689268e-06)
5(5.808854821e-06 6.079709071e-06 5.842778969e-06 6.116271535e-06 6.908988184e-06)
5(6.27286911e-06 6.509218434e-06 6.278565798e-06 6.556848062e-06 7.311982892e-06)
5(6.762484376e-06 6.953104897e-06 6.732673817e-06 7.027590905e-06 7.742023861e-06)
5(7.263671093e-06 7.416431355e-06 7.219922506e-06 7.531571114e-06 8.200860945e-06)
5(8.154650856e-06 7.1426705e-06 7.494572329e-06 9.319233149e-06 9.734496198e-06)
)


60
(
5(1.350456759e-06 1.80789959e-06 1.710489636e-06 1.615357256e-06 1.953688503e-06)
5(1.706332672e-06 1.955212362e-06 1.773980716e-06 1.729537123e-06 1.890565058e-06)
5(1.989338794e-06 2.128130073e-06 1.902854597e-06 1.876911894e-06 1.955013254e-06)
5(2.20863237e-06 2.328570525e-06 2.081074662e-06 2.047755821e-06 2.127058162e-06)
5(2.376646526e-06 2.530761808e-06 2.277915233e-06 2.238229693e-06 2.376205268e-06)
5(2.52430069e-06 2.718591156e-06 2.467572976e-06 2.429342116e-06 2.63245353e-06)
5(2.678937661e-06 2.893527301e-06 2.643551852e-06 2.602775553e-06 2.83795742e-06)
5(2.84686508e-06 3.061268609e-06 2.805293473e-06 2.760743797e-06 3.00636608e-06)
5(3.012659674e-06 3.222392184e-06 2.960404171e-06 2.911034608e-06 3.160011231e-06)
5(3.170759565e-06 3.380024528e-06 3.113064593e-06 3.063868269e-06 3.32579373e-06)
5(3.32255718e-06 3.537845518e-06 3.264048688e-06 3.210041366e-06 3.489152665e-06)
5(3.465978768e-06 3.690690105e-06 3.411118455e-06 3.351933821e-06 3.650403774e-06)
5(3.606270237e-06 3.838508395e-06 3.552384496e-06 3.487403929e-06 3.80254865e-06)
5(3.746258422e-06 3.9825283e-06 3.688815382e-06 3.617931334e-06 3.946007376e-06)
5(3.881486976e-06 4.12291336e-06 3.82087276e-06 3.742950365e-06 4.08457689e-06)
5(4.01613931e-06 4.260074673e-06 3.949079909e-06 3.864621927e-06 4.217453116e-06)
5(4.141464428e-06 4.392942938e-06 4.075204604e-06 3.981628324e-06 4.346268292e-06)
5(4.267383474e-06 4.522248149e-06 4.196346152e-06 4.09414018e-06 4.467376345e-06)
5(4.390244272e-06 4.649875401e-06 4.313256214e-06 4.201748838e-06 4.586869779e-06)
5(4.509040542e-06 4.772079429e-06 4.427199099e-06 4.306709631e-06 4.699661272e-06)
5(4.629681774e-06 4.893578735e-06 4.535726995e-06 4.407165974e-06 4.810789505e-06)
5(4.74072974e-06 5.006632798e-06 4.638472591e-06 4.502137619e-06 4.915095195e-06)
5(4.852601088e-06 5.120653504e-06 4.739095481e-06 4.590927859e-06 5.012197974e-06)
5(4.957844221e-06 5.228808475e-06 4.833426511e-06 4.675035654e-06 5.107523601e-06)
5(5.061488445e-06 5.334588317e-06 4.92409849e-06 4.753435935e-06 5.195336024e-06)
5(5.157336331e-06 5.433063653e-06 5.011090431e-06 4.825462202e-06 5.270477447e-06)
5(5.247696731e-06 5.526808037e-06 5.092657705e-06 4.894351177e-06 5.346424962e-06)
5(5.342884824e-06 5.619457096e-06 5.167404751e-06 4.952255043e-06 5.406234251e-06)
5(5.419044184e-06 5.7000068e-06 5.234436019e-06 5.007286645e-06 5.471379288e-06)
5(5.495077856e-06 5.778864744e-06 5.297104724e-06 5.050433202e-06 5.517614737e-06)
5(5.567039577e-06 5.849216164e-06 5.347349479e-06 5.087316431e-06 5.563176963e-06)
5(5.627574309e-06 5.910567791e-06 5.392027611e-06 5.115684847e-06 5.596144548e-06)
5(5.675993273e-06 5.965658383e-06 5.430513447e-06 5.129373466e-06 5.611921163e-06)
5(5.725219467e-06 6.011727318e-06 5.45367982e-06 5.132057642e-06 5.616864321e-06)
5(5.760517271e-06 6.0459487e-06 5.468522317e-06 5.12416027e-06 5.607524337e-06)
5(5.799143513e-06 6.080593867e-06 5.471441253e-06 5.101304169e-06 5.589686028e-06)
5(5.806975117e-06 6.093949002e-06 5.464401574e-06 5.070828809e-06 5.565080686e-06)
5(5.810770959e-06 6.097561583e-06 5.445055112e-06 5.031595303e-06 5.531920409e-06)
5(5.806803077e-06 6.089587985e-06 5.413343107e-06 4.970441165e-06 5.463518501e-06)
5(5.789347001e-06 6.071097784e-06 5.371475468e-06 4.876759258e-06 5.342433294e-06)
5(5.779595643e-06 6.052551481e-06 5.312428055e-06 4.739305634e-06 5.159700337e-06)
5(5.752189187e-06 6.015971649e-06 5.231558969e-06 4.574777688e-06 4.947924844e-06)
5(5.724708162e-06 5.982912685e-06 5.124883276e-06 4.394464199e-06 4.764508994e-06)
5(5.694188477e-06 5.94895537e-06 4.990681864e-06 4.215900082e-06 4.641985168e-06)
5(5.655849254e-06 5.906387667e-06 4.847010607e-06 4.063424722e-06 4.581873229e-06)
5(5.644043532e-06 5.855808067e-06 4.692011532e-06 3.940831569e-06 4.56041247e-06)
5(5.655726022e-06 5.78709066e-06 4.550950236e-06 3.873968279e-06 4.560631122e-06)
5(5.658687667e-06 5.706344081e-06 4.448615005e-06 3.868585991e-06 4.590047951e-06)
5(5.629276504e-06 5.628933115e-06 4.402758681e-06 3.924844117e-06 4.669619756e-06)
5(5.591207553e-06 5.574952661e-06 4.411584995e-06 4.038856544e-06 4.8114637e-06)
5(5.538722337e-06 5.557779508e-06 4.496978443e-06 4.21423286e-06 5.011682732e-06)
5(5.52024432e-06 5.592177628e-06 4.647515051e-06 4.444396079e-06 5.260451459e-06)
5(5.571593699e-06 5.689395468e-06 4.856808127e-06 4.726446418e-06 5.551552575e-06)
5(5.71701054e-06 5.851270943e-06 5.110956883e-06 5.056551843e-06 5.882961509e-06)
5(5.919069817e-06 6.073084038e-06 5.428115403e-06 5.437681084e-06 6.253451407e-06)
5(6.191246899e-06 6.353065654e-06 5.789140286e-06 5.858364837e-06 6.66106979e-06)
5(6.527225549e-06 6.682972174e-06 6.194175432e-06 6.319159231e-06 7.096033026e-06)
5(6.908372982e-06 7.058820186e-06 6.64600238e-06 6.818250534e-06 7.561960133e-06)
5(7.41364141e-06 7.537373864e-06 7.176826342e-06 7.381234395e-06 8.076530605e-06)
5(8.129765683e-06 7.26310567e-06 7.333140518e-06 9.11492253e-06 9.931626018e-06)
)


60
(
5(1.428025409e-06 1.845864733e-06 1.759187589e-06 1.658497107e-06 1.959616135e-06)
5(1.770449747e-06 2.00348137e-06 1.838263935e-06 1.78841627e-06 1.947477041e-06)
5(2.046246465e-06 2.186440591e-06 1.978328628e-06 1.946390707e-06 2.046137307e-06)
5(2.261930427e-06 2.391411173e-06 2.162404784e-06 2.123642691e-06 2.233176309e-06)
5(2.434231378e-06 2.59456155e-06 2.360070646e-06 2.315120663e-06 2.475583552e-06)
5(2.587985673e-06 2.783885907e-06 2.550954145e-06 2.507248854e-06 2.723570757e-06)
5(2.748475789e-06 2.962624536e-06 2.727331619e-06 2.68205413e-06 2.930403886e-06)
5(2.916767673e-06 3.133644922e-06 2.892118634e-06 2.843486115e-06 3.104929772e-06)
5(3.083941307e-06 3.299174915e-06 3.051139457e-06 2.9980022e-06 3.265671422e-06)
5(3.244349846e-06 3.46059409e-06 3.206405663e-06 3.151674043e-06 3.431639396e-06)
5(3.395375314e-06 3.618947272e-06 3.358992119e-06 3.300428431e-06 3.597480935e-06)
5(3.542955345e-06 3.774357068e-06 3.506826294e-06 3.444736032e-06 3.76133334e-06)
5(3.686172607e-06 3.925437318e-06 3.650919193e-06 3.582852727e-06 3.915278331e-06)
5(3.826038749e-06 4.071530425e-06 3.790073591e-06 3.714182349e-06 4.058030263e-06)
5(3.961633368e-06 4.213650097e-06 3.924273259e-06 3.842373401e-06 4.200843161e-06)
5(4.096031034e-06 4.353173282e-06 4.054102785e-06 3.964793073e-06 4.336226433e-06)
5(4.228018147e-06 4.48964658e-06 4.181135638e-06 4.083878287e-06 4.466361551e-06)
5(4.352976574e-06 4.620270318e-06 4.303278446e-06 4.199225872e-06 4.594198499e-06)
5(4.479155554e-06 4.75001401e-06 4.422367896e-06 4.308564526e-06 4.71248563e-06)
5(4.59926054e-06 4.874026988e-06 4.537107871e-06 4.415973396e-06 4.830206184e-06)
5(4.716387129e-06 4.99656784e-06 4.649668427e-06 4.516709745e-06 4.938787386e-06)
5(4.834584579e-06 5.114965391e-06 4.753888584e-06 4.613050652e-06 5.045412426e-06)
5(4.945972841e-06 5.229807495e-06 4.857096205e-06 4.704962868e-06 5.144912544e-06)
5(5.051124891e-06 5.338178641e-06 4.955327642e-06 4.793085646e-06 5.239966851e-06)
5(5.153174616e-06 5.446088083e-06 5.049214582e-06 4.875419078e-06 5.334687265e-06)
5(5.256217721e-06 5.549710718e-06 5.137217548e-06 4.950517886e-06 5.416401577e-06)
5(5.351457172e-06 5.648226267e-06 5.222287993e-06 5.019908198e-06 5.490083811e-06)
5(5.444093631e-06 5.74230593e-06 5.301208171e-06 5.085756775e-06 5.562664213e-06)
5(5.529584932e-06 5.830201646e-06 5.372572784e-06 5.140600256e-06 5.623089362e-06)
5(5.609970852e-06 5.913077942e-06 5.439982568e-06 5.193499001e-06 5.682584876e-06)
5(5.685614723e-06 5.990228463e-06 5.499186149e-06 5.234714084e-06 5.728212536e-06)
5(5.754233212e-06 6.058171925e-06 5.551406869e-06 5.273221982e-06 5.770901632e-06)
5(5.815716654e-06 6.124323048e-06 5.59652227e-06 5.294531765e-06 5.797069009e-06)
5(5.874160881e-06 6.182185045e-06 5.632599115e-06 5.309411417e-06 5.814620492e-06)
5(5.921826222e-06 6.231148914e-06 5.660740195e-06 5.309653381e-06 5.811591747e-06)
5(5.965777456e-06 6.27345941e-06 5.679953541e-06 5.304084518e-06 5.805013545e-06)
5(6.000394424e-06 6.306687171e-06 5.690853834e-06 5.290058172e-06 5.789482325e-06)
5(6.028907344e-06 6.335462235e-06 5.691162434e-06 5.260641862e-06 5.761416904e-06)
5(6.054327655e-06 6.357237037e-06 5.682143033e-06 5.217690613e-06 5.713778834e-06)
5(6.074476436e-06 6.372794802e-06 5.6642206e-06 5.140215598e-06 5.607113237e-06)
5(6.093709305e-06 6.381796467e-06 5.634187329e-06 5.03276395e-06 5.451675519e-06)
5(6.119426319e-06 6.391705469e-06 5.587348684e-06 4.899142601e-06 5.272767826e-06)
5(6.139921814e-06 6.399730887e-06 5.520819922e-06 4.748197595e-06 5.100725589e-06)
5(6.163548639e-06 6.412382228e-06 5.432363661e-06 4.597277419e-06 4.979847826e-06)
5(6.191441369e-06 6.422075008e-06 5.330452457e-06 4.458831837e-06 4.900896347e-06)
5(6.229111384e-06 6.419712539e-06 5.226208272e-06 4.350434346e-06 4.852072605e-06)
5(6.283718333e-06 6.412221179e-06 5.134340882e-06 4.273884214e-06 4.813939315e-06)
5(6.33031639e-06 6.384656392e-06 5.063112661e-06 4.241920531e-06 4.790489418e-06)
5(6.383259834e-06 6.371326657e-06 5.024548935e-06 4.256026565e-06 4.816120616e-06)
5(6.375717338e-06 6.349594043e-06 5.027909239e-06 4.314739479e-06 4.892159923e-06)
5(6.369566988e-06 6.350901002e-06 5.076109569e-06 4.430326461e-06 5.037235239e-06)
5(6.382120557e-06 6.379791485e-06 5.172835127e-06 4.602469217e-06 5.234295576e-06)
5(6.423557152e-06 6.436893192e-06 5.307558075e-06 4.82941521e-06 5.492352907e-06)
5(6.503555204e-06 6.532640718e-06 5.493745681e-06 5.111704664e-06 5.797119136e-06)
5(6.620417704e-06 6.670884501e-06 5.735080831e-06 5.456237819e-06 6.164272942e-06)
5(6.795144193e-06 6.86153539e-06 6.0287506e-06 5.853279268e-06 6.578584411e-06)
5(7.014858378e-06 7.107264977e-06 6.385887196e-06 6.291800566e-06 7.014910216e-06)
5(7.311126378e-06 7.419184272e-06 6.796399929e-06 6.78487211e-06 7.509222569e-06)
5(7.721411151e-06 7.827144184e-06 7.312516312e-06 7.374733426e-06 8.060368219e-06)
5(7.136990408e-06 7.448688287e-06 8.12986155e-06 8.671613252e-06 8.837907336e-06)
)


60
(
5(1.485142041e-06 1.876587816e-06 1.803506195e-06 1.694433234e-06 1.969115407e-06)
5(1.820223412e-06 2.0414958e-06 1.891246914e-06 1.835579003e-06 1.994104699e-06)
5(2.092904878e-06 2.231251492e-06 2.037960457e-06 2.000932129e-06 2.115123252e-06)
5(2.307191742e-06 2.439996622e-06 2.226376527e-06 2.182325093e-06 2.310879363e-06)
5(2.481526827e-06 2.644600725e-06 2.425325966e-06 2.375503571e-06 2.552460003e-06)
5(2.639827441e-06 2.835126344e-06 2.616265652e-06 2.568741864e-06 2.797191565e-06)
5(2.803049111e-06 3.016531151e-06 2.79452351e-06 2.745169446e-06 3.004313115e-06)
5(2.972710883e-06 3.190305534e-06 2.962095868e-06 2.909506031e-06 3.181938604e-06)
5(3.140421652e-06 3.35788544e-06 3.122448281e-06 3.066809864e-06 3.34834109e-06)
5(3.299763186e-06 3.521432636e-06 3.280560637e-06 3.222125324e-06 3.516452223e-06)
5(3.453617671e-06 3.682069994e-06 3.434048861e-06 3.372872588e-06 3.68487553e-06)
5(3.601305205e-06 3.839196734e-06 3.584771137e-06 3.518759423e-06 3.848237602e-06)
5(3.744743514e-06 3.992025652e-06 3.729930418e-06 3.657699293e-06 4.004176768e-06)
5(3.889232213e-06 4.141026758e-06 3.869988848e-06 3.792415583e-06 4.151918139e-06)
5(4.026038007e-06 4.284630723e-06 4.005688418e-06 3.921198936e-06 4.293566671e-06)
5(4.161063774e-06 4.424135318e-06 4.137203912e-06 4.046849433e-06 4.430216918e-06)
5(4.292033317e-06 4.562298318e-06 4.265647173e-06 4.167225544e-06 4.564152e-06)
5(4.42050758e-06 4.696517251e-06 4.388569203e-06 4.283061618e-06 4.694397525e-06)
5(4.545857304e-06 4.826252643e-06 4.510261217e-06 4.39600704e-06 4.814626681e-06)
5(4.66777722e-06 4.953375631e-06 4.627172038e-06 4.503806361e-06 4.932475405e-06)
5(4.786827321e-06 5.077353938e-06 4.740258263e-06 4.607695582e-06 5.046551346e-06)
5(4.902731701e-06 5.196778661e-06 4.848759881e-06 4.706326248e-06 5.153082264e-06)
5(5.015958146e-06 5.313589666e-06 4.952883667e-06 4.80165847e-06 5.259249706e-06)
5(5.12610598e-06 5.427196468e-06 5.052702082e-06 4.891722458e-06 5.360046907e-06)
5(5.231213349e-06 5.536713506e-06 5.149275042e-06 4.976586748e-06 5.453698307e-06)
5(5.331479919e-06 5.643063414e-06 5.243761893e-06 5.056377759e-06 5.539733321e-06)
5(5.431693447e-06 5.74413954e-06 5.330434377e-06 5.132404298e-06 5.623029173e-06)
5(5.525596904e-06 5.841838445e-06 5.414138864e-06 5.202131453e-06 5.69928977e-06)
5(5.613341703e-06 5.934663518e-06 5.493264947e-06 5.265340401e-06 5.768045294e-06)
5(5.701236216e-06 6.024216749e-06 5.565799302e-06 5.322349695e-06 5.830703995e-06)
5(5.782718568e-06 6.10681484e-06 5.63201274e-06 5.373494323e-06 5.886687784e-06)
5(5.857643912e-06 6.183871142e-06 5.692547667e-06 5.415636215e-06 5.931395279e-06)
5(5.929889713e-06 6.25715549e-06 5.74719069e-06 5.452761249e-06 5.972986986e-06)
5(5.994040794e-06 6.325721028e-06 5.796445986e-06 5.477858412e-06 6.000034359e-06)
5(6.057929114e-06 6.389339503e-06 5.837896753e-06 5.494364231e-06 6.015396204e-06)
5(6.117198694e-06 6.448264467e-06 5.872248897e-06 5.501993243e-06 6.022437235e-06)
5(6.167718819e-06 6.500211935e-06 5.900547379e-06 5.503918359e-06 6.025212571e-06)
5(6.219267859e-06 6.549008547e-06 5.92201782e-06 5.496558039e-06 6.015258212e-06)
5(6.270838692e-06 6.593885693e-06 5.935491129e-06 5.475918986e-06 5.986521005e-06)
5(6.321017642e-06 6.636158639e-06 5.944501875e-06 5.430501563e-06 5.912802159e-06)
5(6.374043105e-06 6.678608185e-06 5.945895334e-06 5.353793933e-06 5.788545524e-06)
5(6.428573068e-06 6.722783834e-06 5.936851199e-06 5.254578031e-06 5.642249058e-06)
5(6.491596754e-06 6.770862513e-06 5.913559207e-06 5.149095059e-06 5.511538321e-06)
5(6.560991371e-06 6.82568863e-06 5.8736972e-06 5.040806354e-06 5.416372022e-06)
5(6.638779666e-06 6.880293549e-06 5.825901544e-06 4.944837381e-06 5.353147544e-06)
5(6.715157425e-06 6.927352713e-06 5.776391827e-06 4.861647004e-06 5.305153456e-06)
5(6.805412795e-06 6.965910917e-06 5.736395383e-06 4.807722716e-06 5.264797434e-06)
5(6.885830133e-06 6.988482451e-06 5.709610049e-06 4.786524329e-06 5.240846901e-06)
5(6.957994772e-06 7.012309343e-06 5.711237079e-06 4.796338889e-06 5.232791203e-06)
5(7.007462482e-06 7.042280841e-06 5.733769027e-06 4.83181319e-06 5.270145426e-06)
5(7.046700979e-06 7.075063634e-06 5.779443412e-06 4.908312848e-06 5.359115179e-06)
5(7.083851304e-06 7.114402839e-06 5.849834067e-06 5.028290034e-06 5.501079756e-06)
5(7.143916412e-06 7.169677921e-06 5.940481169e-06 5.194990143e-06 5.704810538e-06)
5(7.223050807e-06 7.244104966e-06 6.070947301e-06 5.417654276e-06 5.959631811e-06)
5(7.317164246e-06 7.338378861e-06 6.243041309e-06 5.698993774e-06 6.27276683e-06)
5(7.43428396e-06 7.468010916e-06 6.466483767e-06 6.038990595e-06 6.649078527e-06)
5(7.587003087e-06 7.64417583e-06 6.753170438e-06 6.4318705e-06 7.06175735e-06)
5(7.788544173e-06 7.868770637e-06 7.112916244e-06 6.902636574e-06 7.532119621e-06)
5(8.051044438e-06 8.165094804e-06 7.594994845e-06 7.498230733e-06 8.088794056e-06)
5(7.632284368e-06 7.400601871e-06 7.832076637e-06 8.543830796e-06 8.551317695e-06)
)


60
(
5(1.531612476e-06 1.904368011e-06 1.844918802e-06 1.726850353e-06 1.981221063e-06)
5(1.862112484e-06 2.074516334e-06 1.938094442e-06 1.876805092e-06 2.034666249e-06)
5(2.132992232e-06 2.269368621e-06 2.08927566e-06 2.04765306e-06 2.172649486e-06)
5(2.347870243e-06 2.481687751e-06 2.280564529e-06 2.231887508e-06 2.374598073e-06)
5(2.524193327e-06 2.687771594e-06 2.480679165e-06 2.426519096e-06 2.615678979e-06)
5(2.684871496e-06 2.879515697e-06 2.672377119e-06 2.620905801e-06 2.859223038e-06)
5(2.84932409e-06 3.061957181e-06 2.851937661e-06 2.799321738e-06 3.067050276e-06)
5(3.02066259e-06 3.238374709e-06 3.020918315e-06 2.965183939e-06 3.24766563e-06)
5(3.188128989e-06 3.407393971e-06 3.183426566e-06 3.1248593e-06 3.41677393e-06)
5(3.349628758e-06 3.573097316e-06 3.342044155e-06 3.281646379e-06 3.588073192e-06)
5(3.503043166e-06 3.734851394e-06 3.497839541e-06 3.434152718e-06 3.757150182e-06)
5(3.652278075e-06 3.893524235e-06 3.648991904e-06 3.581286897e-06 3.922866982e-06)
5(3.797414962e-06 4.047540411e-06 3.795468556e-06 3.72207137e-06 4.079425815e-06)
5(3.93914964e-06 4.196972421e-06 3.937182117e-06 3.857983389e-06 4.229547342e-06)
5(4.079066382e-06 4.342839496e-06 4.074086251e-06 3.988592771e-06 4.372856207e-06)
5(4.214536244e-06 4.484779335e-06 4.207443851e-06 4.115632202e-06 4.512657456e-06)
5(4.347380533e-06 4.623455895e-06 4.336004388e-06 4.237512291e-06 4.647603231e-06)
5(4.475958012e-06 4.758417831e-06 4.462334801e-06 4.356168886e-06 4.777140186e-06)
5(4.601238207e-06 4.890032244e-06 4.584099507e-06 4.470062871e-06 4.902831488e-06)
5(4.724492257e-06 5.018374822e-06 4.702705796e-06 4.580037945e-06 5.022078043e-06)
5(4.843896779e-06 5.14323009e-06 4.817595929e-06 4.686335467e-06 5.138212527e-06)
5(4.961034567e-06 5.265256882e-06 4.927465609e-06 4.787571458e-06 5.250845683e-06)
5(5.075942979e-06 5.383779436e-06 5.033960053e-06 4.885741129e-06 5.35905368e-06)
5(5.185832276e-06 5.498976602e-06 5.136996129e-06 4.978857719e-06 5.46247154e-06)
5(5.292070594e-06 5.610822852e-06 5.236216526e-06 5.067262301e-06 5.561089905e-06)
5(5.397362298e-06 5.719322086e-06 5.332108688e-06 5.151743634e-06 5.652346105e-06)
5(5.498344985e-06 5.824525434e-06 5.424891237e-06 5.231503652e-06 5.737989845e-06)
5(5.59488656e-06 5.925814552e-06 5.512247262e-06 5.305129938e-06 5.819007693e-06)
5(5.686338703e-06 6.022290746e-06 5.595133079e-06 5.374908696e-06 5.896660537e-06)
5(5.777935948e-06 6.115507474e-06 5.673543099e-06 5.439994966e-06 5.966836173e-06)
5(5.862437464e-06 6.204290094e-06 5.747543998e-06 5.498554449e-06 6.031071349e-06)
5(5.944109697e-06 6.290521956e-06 5.817328441e-06 5.550536264e-06 6.088462005e-06)
5(6.02437178e-06 6.371838318e-06 5.880649847e-06 5.596581183e-06 6.137993046e-06)
5(6.098862013e-06 6.448454079e-06 5.939797959e-06 5.633759103e-06 6.174561329e-06)
5(6.172004382e-06 6.52207014e-06 5.994228753e-06 5.666070707e-06 6.205935072e-06)
5(6.240435397e-06 6.592635971e-06 6.043273293e-06 5.690174328e-06 6.230279149e-06)
5(6.310487577e-06 6.663225348e-06 6.088175857e-06 5.70898785e-06 6.250927228e-06)
5(6.379817168e-06 6.729639597e-06 6.128804271e-06 5.723543128e-06 6.263493454e-06)
5(6.45336329e-06 6.79672087e-06 6.165728341e-06 5.725171512e-06 6.254376088e-06)
5(6.526998014e-06 6.86390604e-06 6.198537852e-06 5.707823292e-06 6.215438178e-06)
5(6.606848397e-06 6.932580172e-06 6.228797086e-06 5.665102718e-06 6.126549537e-06)
5(6.695311083e-06 7.007932771e-06 6.25335385e-06 5.608924879e-06 6.027138249e-06)
5(6.791008212e-06 7.089710623e-06 6.267454343e-06 5.543577625e-06 5.936244415e-06)
5(6.888691687e-06 7.176105254e-06 6.272039034e-06 5.480328509e-06 5.876552161e-06)
5(6.98980773e-06 7.259743044e-06 6.272353185e-06 5.428746557e-06 5.840053385e-06)
5(7.095878088e-06 7.338676184e-06 6.272668964e-06 5.395148081e-06 5.825151904e-06)
5(7.205988779e-06 7.40937263e-06 6.284106546e-06 5.380431767e-06 5.804394451e-06)
5(7.300938484e-06 7.464075008e-06 6.309593493e-06 5.391612937e-06 5.790329217e-06)
5(7.380703858e-06 7.526457299e-06 6.351131869e-06 5.412797892e-06 5.796048599e-06)
5(7.445632496e-06 7.583768728e-06 6.408643901e-06 5.459113825e-06 5.824781241e-06)
5(7.501613179e-06 7.639728459e-06 6.473361184e-06 5.520994516e-06 5.87606989e-06)
5(7.567185139e-06 7.703561698e-06 6.548657358e-06 5.619837816e-06 5.98685587e-06)
5(7.641231873e-06 7.768480763e-06 6.631106402e-06 5.745187844e-06 6.12985939e-06)