/*--------------------------------*- C++ -*----------------------------------*\
| =========                 |                                                 |
| \\      /  F ield         | OpenFOAM: The Open Source CFD Toolbox           |
|  \\    /   O peration     | Version:  2.3.1                                 |
|   \\  /    A nd           | Web:      www.OpenFOAM.org                      |
|    \\/     M anipulation  |                                                 |
\*---------------------------------------------------------------------------*/
FoamFile
{
    version     2.0;
    format      ascii;
    class       dictionary;
    location    "constant";
    object      DPSI1;
}
// * * * * * * * * * * * * * * * * * * * * * * * * * * * * * * * * * * * * * //

DPSI1_table
60
(

60
(
5(-2.765483325e-07 -7.051148414e-08 -4.069872845e-07 -2.455448212e-07 -5.419285127e-07)
5(-2.126047105e-07 -5.265677124e-08 -3.070800183e-07 -1.889896819e-07 -4.0267442e-07)
5(-7.063240769e-08 -2.106209125e-08 -1.204575621e-07 -7.753048883e-08 -1.460652097e-07)
5(-3.165938167e-09 1.42364902e-09 5.028021874e-09 -9.868322149e-10 2.311275127e-09)
5(2.007664373e-08 1.049107703e-08 5.406643694e-08 3.307071839e-08 7.527465315e-08)
5(3.120835588e-08 7.499200553e-09 3.625258608e-08 2.089745227e-08 6.00602708e-08)
5(7.183414448e-09 6.55245769e-10 4.017912224e-09 1.85782309e-10 3.867896919e-09)
5(-9.259430351e-09 -2.566921241e-09 -1.609322606e-08 -8.180715256e-09 -2.59898137e-08)
5(-6.575764369e-09 -1.572387207e-09 -1.431212086e-08 -7.901900293e-09 -1.46113765e-08)
5(-1.473019645e-09 6.064773982e-10 -1.641888411e-09 -1.044618394e-09 -7.560950761e-10)
5(2.921843027e-09 1.11764124e-09 3.087249804e-09 3.817499322e-09 7.052191988e-09)
5(1.962109856e-09 1.256492805e-09 4.212244919e-09 4.562535616e-09 7.24050779e-09)
5(1.860129264e-09 1.344300018e-09 2.618259833e-09 1.226904974e-09 3.032687521e-09)
5(4.868124499e-10 2.887368601e-10 1.72890735e-10 -2.548588891e-10 -1.147443801e-09)
5(-8.383500262e-10 5.299758127e-10 5.947930864e-10 2.103664528e-09 3.878087893e-10)
5(7.891404846e-10 1.141549118e-09 1.858478743e-09 1.816975594e-09 3.206769084e-09)
5(7.18356878e-10 6.479329721e-10 1.686146331e-09 2.535091355e-09 3.63392881e-09)
5(6.867397469e-10 1.022045223e-09 1.984775721e-09 3.155226909e-09 3.788123571e-09)
5(1.280150597e-09 2.080438559e-09 2.860267048e-09 4.59817075e-09 3.862762813e-09)
5(1.12470584e-09 1.542536857e-09 2.032332557e-09 4.426037132e-09 3.779106341e-09)
5(2.673264328e-10 7.400885042e-10 1.842927735e-09 1.605521373e-09 4.094775295e-09)
5(9.253185212e-10 1.820674935e-09 2.89605821e-09 3.914124055e-09 7.169247754e-09)
5(4.907659634e-10 2.648057386e-09 3.357187569e-09 6.541709919e-09 9.137612632e-09)
5(1.344690465e-10 2.629873898e-09 4.612382985e-09 7.583851305e-09 1.004091092e-08)
5(5.714883022e-10 2.303100398e-09 6.411203471e-09 1.081936592e-08 1.306147253e-08)
5(4.293591755e-10 2.245674835e-09 6.143124838e-09 1.285102906e-08 1.55296838e-08)
5(1.77154624e-10 2.522818749e-09 6.961492797e-09 1.394461898e-08 1.844998509e-08)
5(8.077017392e-10 4.050865905e-09 9.081465372e-09 1.504614436e-08 2.218206316e-08)
5(1.301768793e-09 5.773117951e-09 1.010758789e-08 1.630835703e-08 2.627959755e-08)
5(1.244894334e-09 7.041893751e-09 1.378534838e-08 2.148855252e-08 3.184711027e-08)
5(1.473527182e-09 7.597168562e-09 1.640800032e-08 2.513778237e-08 3.478958055e-08)
5(1.095533153e-09 9.356884058e-09 1.982827469e-08 2.977157035e-08 4.402774575e-08)
5(1.917460095e-09 1.284237044e-08 2.579570319e-08 3.742925116e-08 4.871927187e-08)
5(3.332416509e-09 1.515396683e-08 2.98036492e-08 4.351728627e-08 4.957201919e-08)
5(4.527671202e-09 1.9578427e-08 3.744771997e-08 5.16926554e-08 6.202582054e-08)
5(6.293671597e-09 2.170165136e-08 3.896850271e-08 5.716296427e-08 7.672023096e-08)
5(8.755365641e-09 2.648390516e-08 4.31001622e-08 6.653862531e-08 7.744691287e-08)
5(1.245349586e-08 3.446382682e-08 5.882873537e-08 7.656929958e-08 9.167087956e-08)
5(1.814208972e-08 4.071264627e-08 6.943640111e-08 8.557405873e-08 3.513681171e-08)
5(2.270912073e-08 4.797946662e-08 7.214078794e-08 9.153648073e-08 -8.497259374e-09)
5(2.696988089e-08 5.662803829e-08 8.056977607e-08 7.064432564e-08 1.604005864e-08)
5(3.560870841e-08 6.586907959e-08 9.722651554e-08 1.73340302e-08 6.513395911e-09)
5(4.761751738e-08 7.763160195e-08 1.286693455e-07 1.136978384e-08 2.328025602e-08)
5(6.050674565e-08 9.047052974e-08 1.403066512e-07 3.246576593e-08 4.440498709e-08)
5(7.178371202e-08 1.063246367e-07 1.141937824e-07 2.885859459e-08 6.498736534e-08)
5(8.518054493e-08 1.261716207e-07 4.65950782e-08 4.545441797e-08 8.918148498e-08)
5(1.005271148e-07 1.277394577e-07 1.394650519e-08 7.415692375e-08 1.160888583e-07)
5(1.198700829e-07 1.306158465e-07 5.394521559e-08 1.061412352e-07 1.537158273e-07)
5(1.397036215e-07 6.405110996e-08 8.334510404e-08 1.399845303e-07 2.051029221e-07)
5(1.438524434e-07 3.676268806e-08 1.114080408e-07 1.792538033e-07 2.687950288e-07)
5(9.922281124e-08 8.975099192e-08 1.462036187e-07 2.286673977e-07 3.432913421e-07)
5(7.392322673e-08 1.090694311e-07 1.879241607e-07 2.892239349e-07 4.292188577e-07)
5(9.291286707e-08 1.436450704e-07 2.376444118e-07 3.635209955e-07 5.317239739e-07)
5(9.284901785e-08 1.8424268e-07 2.955939866e-07 4.536397581e-07 6.57417998e-07)
5(9.621534459e-08 2.272887523e-07 3.619319313e-07 5.598574341e-07 8.075274961e-07)
5(1.173827472e-07 2.724232104e-07 4.370765687e-07 6.83807801e-07 9.832241812e-07)
5(1.4727901e-07 3.24903006e-07 5.223156527e-07 8.260406379e-07 1.183055884e-06)
5(1.832920907e-07 3.833357793e-07 6.246564039e-07 9.531843178e-07 1.409824099e-06)
5(2.400680138e-07 4.562654547e-07 7.622114085e-07 1.227684933e-06 1.724796224e-06)
5(2.772527194e-07 5.03923231e-07 8.495483041e-07 1.476963031e-06 1.938319452e-06)
)


60
(
5(-1.860459779e-07 2.0875305e-08 -3.405854348e-07 -1.965289726e-07 -4.834455335e-07)
5(-1.446589152e-07 2.274797971e-08 -2.552329002e-07 -1.472428766e-07 -3.684761092e-07)
5(-5.07491152e-08 2.688664163e-08 -7.900591751e-08 -4.20142286e-08 -1.310583645e-07)
5(2.585514134e-08 3.604668003e-08 4.067973629e-08 3.064997357e-08 3.594453937e-08)
5(7.038808994e-08 4.333728013e-08 8.88478337e-08 6.112962783e-08 1.118232256e-07)
5(6.734293192e-08 3.916739547e-08 6.908044599e-08 5.057835097e-08 9.062188887e-08)
5(3.748211318e-08 2.9742801e-08 2.871036994e-08 2.695374499e-08 3.148078369e-08)
5(1.775843357e-08 2.44240691e-08 7.281260346e-09 1.461015e-08 1.751140587e-10)
5(1.700540246e-08 2.389014179e-08 8.643736495e-09 1.590947429e-08 4.117919297e-09)
5(2.409601942e-08 2.575246004e-08 2.065900107e-08 2.305467421e-08 2.147754878e-08)
5(2.886318749e-08 2.686243683e-08 2.906685807e-08 2.708575548e-08 3.14991731e-08)
5(2.948385348e-08 2.641943973e-08 3.052829259e-08 2.696781335e-08 3.098712206e-08)
5(2.677866757e-08 2.517091609e-08 2.688803869e-08 2.494880653e-08 2.519639326e-08)
5(2.410147404e-08 2.408414237e-08 2.344514262e-08 2.314231751e-08 2.16796861e-08)
5(2.330025944e-08 2.372727507e-08 2.295397099e-08 2.250151133e-08 2.152100358e-08)
5(2.351956348e-08 2.368236094e-08 2.390178642e-08 2.293129727e-08 2.280940335e-08)
5(2.382033041e-08 2.364992728e-08 2.454317756e-08 2.378822263e-08 2.408059416e-08)
5(2.384019774e-08 2.374683508e-08 2.454668921e-08 2.488958837e-08 2.460092352e-08)
5(2.349684488e-08 2.374826302e-08 2.413494596e-08 2.573426345e-08 2.512885073e-08)
5(2.319655631e-08 2.366882008e-08 2.383274054e-08 2.569389691e-08 2.550127741e-08)
5(2.29468449e-08 2.344146217e-08 2.367007803e-08 2.475293348e-08 2.580280269e-08)
5(2.229720469e-08 2.340876779e-08 2.367741466e-08 2.360968973e-08 2.665341486e-08)
5(2.177681026e-08 2.343358118e-08 2.416271541e-08 2.363701092e-08 2.763512818e-08)
5(2.159225938e-08 2.330917121e-08 2.482614862e-08 2.567064219e-08 2.933057882e-08)
5(2.142235945e-08 2.325474202e-08 2.580722799e-08 2.89031978e-08 3.184936083e-08)
5(2.128514347e-08 2.335868615e-08 2.678235336e-08 3.167834163e-08 3.467350864e-08)
5(2.108593089e-08 2.369509856e-08 2.77039019e-08 3.333314086e-08 3.785465339e-08)
5(2.094850655e-08 2.424294168e-08 2.902503714e-08 3.478382551e-08 4.174030856e-08)
5(2.093815697e-08 2.480869263e-08 3.045046496e-08 3.722276035e-08 4.612392666e-08)
5(2.095235788e-08 2.574100563e-08 3.248755994e-08 4.100571124e-08 5.12453869e-08)
5(2.101708052e-08 2.72116499e-08 3.550231444e-08 4.579724676e-08 5.702628317e-08)
5(2.121124385e-08 2.917443131e-08 3.911264195e-08 5.109977385e-08 6.237106467e-08)
5(2.158012787e-08 3.154225967e-08 4.340685529e-08 5.672686154e-08 6.703249672e-08)
5(2.22667624e-08 3.45021416e-08 4.84800896e-08 6.276596489e-08 7.211789545e-08)
5(2.365182217e-08 3.778260291e-08 5.411811156e-08 6.953460559e-08 8.032615963e-08)
5(2.546955372e-08 4.168793924e-08 6.063227317e-08 7.75586963e-08 9.363600335e-08)
5(2.792404306e-08 4.659981906e-08 6.832842146e-08 8.646346737e-08 1.082615583e-07)
5(3.120731016e-08 5.21893144e-08 7.608900895e-08 9.553932045e-08 1.116348549e-07)
5(3.505883761e-08 5.925704751e-08 8.345469487e-08 1.042286727e-07 9.400935858e-08)
5(3.991036129e-08 6.752822217e-08 9.142556502e-08 1.10529273e-07 5.887183391e-08)
5(4.611603003e-08 7.633400685e-08 1.02515746e-07 1.086077004e-07 2.553715071e-08)
5(5.457340594e-08 8.538287726e-08 1.188998175e-07 9.262855165e-08 1.342129759e-08)
5(6.521065988e-08 9.431806038e-08 1.382521117e-07 6.395615285e-08 2.578319964e-08)
5(7.710041189e-08 1.062754871e-07 1.496874994e-07 3.807902851e-08 4.832069485e-08)
5(8.991073079e-08 1.23563186e-07 1.427056382e-07 3.196204573e-08 6.760973508e-08)
5(1.040391608e-07 1.453727315e-07 1.159467663e-07 4.719228119e-08 8.740499605e-08)
5(1.198833353e-07 1.608181778e-07 8.585280332e-08 7.425356013e-08 1.134258588e-07)
5(1.369309121e-07 1.557287351e-07 7.407258693e-08 1.032566934e-07 1.498656881e-07)
5(1.537212662e-07 1.285785365e-07 8.307039618e-08 1.331624103e-07 1.998861096e-07)
5(1.636452969e-07 9.744190679e-08 1.064363288e-07 1.707774597e-07 2.606789086e-07)
5(1.581665166e-07 8.603007249e-08 1.384799319e-07 2.2146415e-07 3.332409007e-07)
5(1.353362738e-07 1.005978257e-07 1.775228476e-07 2.808524693e-07 4.172896285e-07)
5(1.04984677e-07 1.322138572e-07 2.242132354e-07 3.489074213e-07 5.162522247e-07)
5(8.191870006e-08 1.703811514e-07 2.78928707e-07 4.352025508e-07 6.384552913e-07)
5(7.325497391e-08 2.08619972e-07 3.406407106e-07 5.395682871e-07 7.850175655e-07)
5(7.791001872e-08 2.456981201e-07 4.112147376e-07 6.580313886e-07 9.57107946e-07)
5(9.521546833e-08 2.865055712e-07 4.903833492e-07 7.934742314e-07 1.153750751e-06)
5(1.251758923e-07 3.255741506e-07 5.688208582e-07 9.441629209e-07 1.371968493e-06)
5(1.308560771e-07 3.301413161e-07 5.907616913e-07 1.05925946e-06 1.587362967e-06)
5(1.198835424e-07 3.185182379e-07 5.759375589e-07 1.097313034e-06 1.692265588e-06)
)


60
(
5(-9.193814287e-08 1.158471116e-07 -2.694853677e-07 -1.422918556e-07 -4.189747974e-07)
5(-6.541253398e-08 1.043175598e-07 -1.916018425e-07 -9.707926634e-08 -3.136772373e-07)
5(-1.475304911e-09 7.71230578e-08 -3.063626564e-08 -2.366527458e-09 -9.032318551e-08)
5(6.114483012e-08 7.078687427e-08 7.722351385e-08 6.273042163e-08 6.80385985e-08)
5(1.024153418e-07 7.473688521e-08 1.181015778e-07 8.926940984e-08 1.393449105e-07)
5(9.760176633e-08 6.923534288e-08 9.630918688e-08 7.716187469e-08 1.16536537e-07)
5(6.604242069e-08 5.805248944e-08 5.57882299e-08 5.259487087e-08 5.682235284e-08)
5(4.546723177e-08 5.186810125e-08 3.345061973e-08 3.959891669e-08 2.500634851e-08)
5(4.391540085e-08 5.029484655e-08 3.384580283e-08 4.018838404e-08 2.835349184e-08)
5(5.006015908e-08 5.132803554e-08 4.505763353e-08 4.661148225e-08 4.479670585e-08)
5(5.40646282e-08 5.173398401e-08 5.287769192e-08 5.024451857e-08 5.387145539e-08)
5(5.411370926e-08 5.064595105e-08 5.382381436e-08 4.953522975e-08 5.304631129e-08)
5(5.101793474e-08 4.888863019e-08 4.989995245e-08 4.684794938e-08 4.704912735e-08)
5(4.784468986e-08 4.757237671e-08 4.613804965e-08 4.458215335e-08 4.287496244e-08)
5(4.649917654e-08 4.677553057e-08 4.520588204e-08 4.386503149e-08 4.231721774e-08)
5(4.638733933e-08 4.619821851e-08 4.571976225e-08 4.406995073e-08 4.345593306e-08)
5(4.632101943e-08 4.583532583e-08 4.600006029e-08 4.445157997e-08 4.440760437e-08)
5(4.599838092e-08 4.535233225e-08 4.567588311e-08 4.525657811e-08 4.507868225e-08)
5(4.534511058e-08 4.509454681e-08 4.507286215e-08 4.585903796e-08 4.525761201e-08)
5(4.455076935e-08 4.505369964e-08 4.440462569e-08 4.565878208e-08 4.505969797e-08)
5(4.39038726e-08 4.458292419e-08 4.393375207e-08 4.444977147e-08 4.515585368e-08)
5(4.315250961e-08 4.399699579e-08 4.37395602e-08 4.32368628e-08 4.564847494e-08)
5(4.2481866e-08 4.359618534e-08 4.385988623e-08 4.313665062e-08 4.649074014e-08)
5(4.194623705e-08 4.324430108e-08 4.436222287e-08 4.470107717e-08 4.77407267e-08)
5(4.145044913e-08 4.291698556e-08 4.495231712e-08 4.743718562e-08 4.988074861e-08)
5(4.09871461e-08 4.292719262e-08 4.56297658e-08 4.996112417e-08 5.258753838e-08)
5(4.05187792e-08 4.298789551e-08 4.617084907e-08 5.149976033e-08 5.549154261e-08)
5(4.021278565e-08 4.306906045e-08 4.693852839e-08 5.281753384e-08 5.887279203e-08)
5(3.990882096e-08 4.345393557e-08 4.839485488e-08 5.472640176e-08 6.313742738e-08)
5(3.964024229e-08 4.406158473e-08 5.0197403e-08 5.784556513e-08 6.822289504e-08)
5(3.960594021e-08 4.524815197e-08 5.284713008e-08 6.232005457e-08 7.343395714e-08)
5(3.954745722e-08 4.702889344e-08 5.610202412e-08 6.747454211e-08 7.837063236e-08)
5(3.969857699e-08 4.888469812e-08 6.001332668e-08 7.276883961e-08 8.308790364e-08)
5(4.02150003e-08 5.15216873e-08 6.490686431e-08 7.862414161e-08 8.818872526e-08)
5(4.070627116e-08 5.489447994e-08 7.009337065e-08 8.552385874e-08 9.629313657e-08)
5(4.248878236e-08 5.850381888e-08 7.660354971e-08 9.325859854e-08 1.092898422e-07)
5(4.509732594e-08 6.292797468e-08 8.419622602e-08 1.01730867e-07 1.233924521e-07)
5(4.783266489e-08 6.852105844e-08 9.154317063e-08 1.103617912e-07 1.265024869e-07)
5(5.15909053e-08 7.547327609e-08 9.924096176e-08 1.187478228e-07 1.088927487e-07)
5(5.607904037e-08 8.313840618e-08 1.074324179e-07 1.254038916e-07 7.442219979e-08)
5(6.210935095e-08 9.169208955e-08 1.179954189e-07 1.237695101e-07 4.298882479e-08)
5(7.010747784e-08 1.004721888e-07 1.336576729e-07 1.082094883e-07 3.175082735e-08)
5(8.029025796e-08 1.094030446e-07 1.525173757e-07 8.069149219e-08 4.175953643e-08)
5(9.22254906e-08 1.209290213e-07 1.634682735e-07 5.586094112e-08 6.332249e-08)
5(1.048574466e-07 1.37749263e-07 1.55773625e-07 4.929949289e-08 8.522848273e-08)
5(1.186438574e-07 1.590531585e-07 1.302616149e-07 6.370618741e-08 1.053837198e-07)
5(1.336998668e-07 1.734413719e-07 1.031845546e-07 8.991839841e-08 1.287141168e-07)
5(1.496871532e-07 1.677927646e-07 9.123824078e-08 1.178967957e-07 1.620508255e-07)
5(1.659580629e-07 1.412811473e-07 9.780332612e-08 1.478833751e-07 2.093337389e-07)
5(1.754997777e-07 1.118345785e-07 1.201686384e-07 1.841243181e-07 2.712725785e-07)
5(1.698294662e-07 1.010641609e-07 1.525797498e-07 2.294034942e-07 3.404146544e-07)
5(1.468990478e-07 1.148656436e-07 1.890010896e-07 2.853059701e-07 4.178850261e-07)
5(1.173992531e-07 1.451378398e-07 2.323678858e-07 3.540346233e-07 5.145423683e-07)
5(9.551659109e-08 1.799012588e-07 2.848390116e-07 4.363831613e-07 6.337052068e-07)
5(8.605571417e-08 2.157338043e-07 3.435452845e-07 5.336733793e-07 7.76033765e-07)
5(8.901748648e-08 2.520638538e-07 4.096203215e-07 6.48019935e-07 9.421293537e-07)
5(1.036057544e-07 2.886002191e-07 4.821290466e-07 7.819275515e-07 1.132747436e-06)
5(1.273222245e-07 3.212359267e-07 5.593613661e-07 9.264419054e-07 1.341781209e-06)
5(1.146151709e-07 3.057707059e-07 5.627588503e-07 1.0101402e-06 1.529044848e-06)
5(9.025462281e-08 2.775863357e-07 5.276760141e-07 1.021625046e-06 1.610173355e-06)
)


60
(
5(2.586187834e-09 2.098908459e-07 -1.967942331e-07 -8.71580674e-08 -3.528562714e-07)
5(1.509355151e-08 1.853337996e-07 -1.257649105e-07 -4.585147053e-08 -2.555514692e-07)
5(4.846235287e-08 1.269680601e-07 1.845832512e-08 3.753054168e-08 -4.786569865e-08)
5(9.641777911e-08 1.05179119e-07 1.136419181e-07 9.457345364e-08 1.000791191e-07)
5(1.341002766e-07 1.057723571e-07 1.469350076e-07 1.169345105e-07 1.662120308e-07)
5(1.275898522e-07 9.902189262e-08 1.231502588e-07 1.034040616e-07 1.4206207e-07)
5(9.444832747e-08 8.61145848e-08 8.277609729e-08 7.815701153e-08 8.209057488e-08)
5(7.306935888e-08 7.896294487e-08 5.962128501e-08 6.443407539e-08 4.981224043e-08)
5(7.068371233e-08 7.647417681e-08 5.895339149e-08 6.424983583e-08 5.227200903e-08)
5(7.589240888e-08 7.664855684e-08 6.935465486e-08 6.995969212e-08 6.786242054e-08)
5(7.915049294e-08 7.637882163e-08 7.653826499e-08 7.302780447e-08 7.637294351e-08)
5(7.851155841e-08 7.474583119e-08 7.696768998e-08 7.189643795e-08 7.496996972e-08)
5(7.494222763e-08 7.248633621e-08 7.262259666e-08 6.875275197e-08 6.860270472e-08)
5(7.140599901e-08 7.07108231e-08 6.853302725e-08 6.633437895e-08 6.420786006e-08)
5(6.964230215e-08 6.937005619e-08 6.727022826e-08 6.514156722e-08 6.322837532e-08)
5(6.909481598e-08 6.839435517e-08 6.740885052e-08 6.478633942e-08 6.404079319e-08)
5(6.866303609e-08 6.780149795e-08 6.737863297e-08 6.466110947e-08 6.481011122e-08)
5(6.791880285e-08 6.706510867e-08 6.665668342e-08 6.535867598e-08 6.481479918e-08)
5(6.689519243e-08 6.635721946e-08 6.567280239e-08 6.596093734e-08 6.45248312e-08)
5(6.579978341e-08 6.589744146e-08 6.479078894e-08 6.513266092e-08 6.410352154e-08)
5(6.470488075e-08 6.51541358e-08 6.400659919e-08 6.386655869e-08 6.422695702e-08)
5(6.378258888e-08 6.431254163e-08 6.353838861e-08 6.240140177e-08 6.487010463e-08)
5(6.298465404e-08 6.339857966e-08 6.350653604e-08 6.188418998e-08 6.538560512e-08)
5(6.204623152e-08 6.270594318e-08 6.357466714e-08 6.320629189e-08 6.642312128e-08)
5(6.121175062e-08 6.237150236e-08 6.377890115e-08 6.551660571e-08 6.804791069e-08)
5(6.058224847e-08 6.197269129e-08 6.435610238e-08 6.796818288e-08 7.010456137e-08)
5(5.985497367e-08 6.177411629e-08 6.468804562e-08 6.948413242e-08 7.286534508e-08)
5(5.916675375e-08 6.170334382e-08 6.51276441e-08 7.047415144e-08 7.605542212e-08)
5(5.857688176e-08 6.187459186e-08 6.616814843e-08 7.204341095e-08 7.9918607e-08)
5(5.802960643e-08 6.242934564e-08 6.77683344e-08 7.505236169e-08 8.450047498e-08)
5(5.759132107e-08 6.337508688e-08 7.035626505e-08 7.926180372e-08 8.951081545e-08)
5(5.725784456e-08 6.467835981e-08 7.321280745e-08 8.426987581e-08 9.469989637e-08)
5(5.70363573e-08 6.65219576e-08 7.664539405e-08 8.915547564e-08 9.919316097e-08)
5(5.726230724e-08 6.872708673e-08 8.119170282e-08 9.440826293e-08 1.037810215e-07)
5(5.820932669e-08 7.15554054e-08 8.608079946e-08 1.011565864e-07 1.114389756e-07)
5(5.962211447e-08 7.494950582e-08 9.236610191e-08 1.084403987e-07 1.23915686e-07)
5(6.150915114e-08 7.907043239e-08 9.94496171e-08 1.165830916e-07 1.375052774e-07)
5(6.411939593e-08 8.445532281e-08 1.06772006e-07 1.250744117e-07 1.404701822e-07)
5(6.753899408e-08 9.074780675e-08 1.14342239e-07 1.33147388e-07 1.231743064e-07)
5(7.195818123e-08 9.847687666e-08 1.219730694e-07 1.393938638e-07 8.938050799e-08)
5(7.780552198e-08 1.067624223e-07 1.323355357e-07 1.377290759e-07 5.864777045e-08)
5(8.548380344e-08 1.149772717e-07 1.474187452e-07 1.220803964e-07 4.775500439e-08)
5(9.513154295e-08 1.237239817e-07 1.651957013e-07 9.432344326e-08 5.773247471e-08)
5(1.065828929e-07 1.349359081e-07 1.756984906e-07 7.04442567e-08 7.893262403e-08)
5(1.191106697e-07 1.510831004e-07 1.682491389e-07 6.473164766e-08 9.984404174e-08)
5(1.323075679e-07 1.711013156e-07 1.433999795e-07 7.792390148e-08 1.185417749e-07)
5(1.465253479e-07 1.851916267e-07 1.160927824e-07 1.034064156e-07 1.409498643e-07)
5(1.619294571e-07 1.800440415e-07 1.045833169e-07 1.322718479e-07 1.740683831e-07)
5(1.773322668e-07 1.535271893e-07 1.131646431e-07 1.618416123e-07 2.198945204e-07)
5(1.853884162e-07 1.240944497e-07 1.343311556e-07 1.95267711e-07 2.778156821e-07)
5(1.789760907e-07 1.136177563e-07 1.638898609e-07 2.388743222e-07 3.46487724e-07)
5(1.566363446e-07 1.264710353e-07 1.997015746e-07 2.921796373e-07 4.246131396e-07)
5(1.272101253e-07 1.546513629e-07 2.405045815e-07 3.569139183e-07 5.163612149e-07)
5(1.054065466e-07 1.877416313e-07 2.905640607e-07 4.384063438e-07 6.30207245e-07)
5(9.564473701e-08 2.220085131e-07 3.47666415e-07 5.343978681e-07 7.701312067e-07)
5(9.740246923e-08 2.56738185e-07 4.098800741e-07 6.451293979e-07 9.290672461e-07)
5(1.104160833e-07 2.900079894e-07 4.786560604e-07 7.704538989e-07 1.108925069e-06)
5(1.301996027e-07 3.180511775e-07 5.496557048e-07 9.034022513e-07 1.313731621e-06)
5(1.11953016e-07 2.721900136e-07 5.410276615e-07 9.866592622e-07 1.474288368e-06)
5(8.510725668e-08 2.166161305e-07 4.984811352e-07 1.002371808e-06 1.526522652e-06)
)


60
(
5(9.675401048e-08 3.026415466e-07 -1.241090248e-07 -3.228211825e-08 -2.865391657e-07)
5(9.572089861e-08 2.654309993e-07 -5.943038784e-08 5.312226334e-09 -1.964105072e-07)
5(9.841889115e-08 1.762481791e-07 6.766221944e-08 7.722132241e-08 -4.990560716e-09)
5(1.315066926e-07 1.391671361e-07 1.498042503e-07 1.260901742e-07 1.319049281e-07)
5(1.655045975e-07 1.364240688e-07 1.754232197e-07 1.442407679e-07 1.926567608e-07)
5(1.573001378e-07 1.284570058e-07 1.497061183e-07 1.293270478e-07 1.672346368e-07)
5(1.226226485e-07 1.138723483e-07 1.095286524e-07 1.034144942e-07 1.071607678e-07)
5(1.004708133e-07 1.057329673e-07 8.565996332e-08 8.904588554e-08 7.44632628e-08)
5(9.7286374e-08 1.023012377e-07 8.386330925e-08 8.804488146e-08 7.60509445e-08)
5(1.015125796e-07 1.01697786e-07 9.339981112e-08 9.305802432e-08 9.074744665e-08)
5(1.039334093e-07 1.007398669e-07 1.000333473e-07 9.554547611e-08 9.85120715e-08)
5(1.027446665e-07 9.851313144e-08 9.988891308e-08 9.390055607e-08 9.671189401e-08)
5(9.86783945e-08 9.578592236e-08 9.514393169e-08 9.046023826e-08 9.012222762e-08)
5(9.466192779e-08 9.35543001e-08 9.065927109e-08 8.769325108e-08 8.524868168e-08)
5(9.254199739e-08 9.181346634e-08 8.902829841e-08 8.615233965e-08 8.394157634e-08)
5(9.15715862e-08 9.04932828e-08 8.886149554e-08 8.541879787e-08 8.448656786e-08)
5(9.073267734e-08 8.937348713e-08 8.83726399e-08 8.524814018e-08 8.484847395e-08)
5(8.964295701e-08 8.820150722e-08 8.744960423e-08 8.535684513e-08 8.450863803e-08)
5(8.825657999e-08 8.734409194e-08 8.615970638e-08 8.522395008e-08 8.401994447e-08)
5(8.68382497e-08 8.65531393e-08 8.49473619e-08 8.44112791e-08 8.355863896e-08)
5(8.551476177e-08 8.54611045e-08 8.395452519e-08 8.301847747e-08 8.314371197e-08)
5(8.423271245e-08 8.430797684e-08 8.314851405e-08 8.148251264e-08 8.310563928e-08)
5(8.300643112e-08 8.32306997e-08 8.260349654e-08 8.049682129e-08 8.339956421e-08)
5(8.186731706e-08 8.210284304e-08 8.249132141e-08 8.129596608e-08 8.421671304e-08)
5(8.071042733e-08 8.154602253e-08 8.275368093e-08 8.352689727e-08 8.59878453e-08)
5(7.970365591e-08 8.088531916e-08 8.288457907e-08 8.579157622e-08 8.815585033e-08)
5(7.891074145e-08 8.031134286e-08 8.284823266e-08 8.710842641e-08 9.03388951e-08)
5(7.804551032e-08 8.016106739e-08 8.310141215e-08 8.787777923e-08 9.3116433e-08)
5(7.708707044e-08 7.995435948e-08 8.38120179e-08 8.907854506e-08 9.673092606e-08)
5(7.621250123e-08 8.038032418e-08 8.520832137e-08 9.171519368e-08 1.009354095e-07)
5(7.553551259e-08 8.101812309e-08 8.72146245e-08 9.572653738e-08 1.055721227e-07)
5(7.496788051e-08 8.196030254e-08 8.993490609e-08 1.002636723e-07 1.102937519e-07)
5(7.449084807e-08 8.337711475e-08 9.343278249e-08 1.050438321e-07 1.145912319e-07)
5(7.444082909e-08 8.536717838e-08 9.715619361e-08 1.102679543e-07 1.190441603e-07)
5(7.515787607e-08 8.806838221e-08 1.017633655e-07 1.164045955e-07 1.262266158e-07)
5(7.637165518e-08 9.109726649e-08 1.078869789e-07 1.23306421e-07 1.38109931e-07)
5(7.795029607e-08 9.482106893e-08 1.147732305e-07 1.311065386e-07 1.512277186e-07)
5(8.025801447e-08 9.996213849e-08 1.218268294e-07 1.392217275e-07 1.540304439e-07)
5(8.340127673e-08 1.060825984e-07 1.285918472e-07 1.470772805e-07 1.372957246e-07)
5(8.746634084e-08 1.132478088e-07 1.360427201e-07 1.53322499e-07 1.04411529e-07)
5(9.296483331e-08 1.210740435e-07 1.464335522e-07 1.513462713e-07 7.406079529e-08)
5(1.002187379e-07 1.29079151e-07 1.607666883e-07 1.357351581e-07 6.29873441e-08)
5(1.093639168e-07 1.378404887e-07 1.778084755e-07 1.088240598e-07 7.236591797e-08)
5(1.203476957e-07 1.486461343e-07 1.879417557e-07 8.512028506e-08 9.287476448e-08)
5(1.324529947e-07 1.641546916e-07 1.808016384e-07 7.936905478e-08 1.131424815e-07)
5(1.450435052e-07 1.838639415e-07 1.561087645e-07 9.219340091e-08 1.311952891e-07)
5(1.584319162e-07 1.968004352e-07 1.294030915e-07 1.162400595e-07 1.531177077e-07)
5(1.727943014e-07 1.910993903e-07 1.177015414e-07 1.43914039e-07 1.855116937e-07)
5(1.871107511e-07 1.64356728e-07 1.245922637e-07 1.721731746e-07 2.301990307e-07)
5(1.948799316e-07 1.344436749e-07 1.451945743e-07 2.047203465e-07 2.858851213e-07)
5(1.882006663e-07 1.241906552e-07 1.731622759e-07 2.465768456e-07 3.515319792e-07)
5(1.653258746e-07 1.363689541e-07 2.077877483e-07 2.993202403e-07 4.271415711e-07)
5(1.353968553e-07 1.627418126e-07 2.489854834e-07 3.633888589e-07 5.169477545e-07)
5(1.12979548e-07 1.942183203e-07 2.973380404e-07 4.407189069e-07 6.277952015e-07)
5(1.030034204e-07 2.265398145e-07 3.501207738e-07 5.323374144e-07 7.618619824e-07)
5(1.039839591e-07 2.587260926e-07 4.086395915e-07 6.37772998e-07 9.164933265e-07)
5(1.149681384e-07 2.899537347e-07 4.738704165e-07 7.586747095e-07 1.092248738e-06)
5(1.328975801e-07 3.147239434e-07 5.39190614e-07 8.891964967e-07 1.288124709e-06)
5(1.11532361e-07 2.706958228e-07 5.170003446e-07 9.511314849e-07 1.419375163e-06)
5(8.231233332e-08 2.192483063e-07 4.645679309e-07 9.462908756e-07 1.44584789e-06)
)


60
(
5(1.903809916e-07 3.942614715e-07 -5.180048308e-08 2.207137488e-08 -2.205768194e-07)
5(1.761395699e-07 3.447052006e-07 6.858300278e-09 5.6117153e-08 -1.37091355e-07)
5(1.482305287e-07 2.249992064e-07 1.167128125e-07 1.16582016e-07 3.789961091e-08)
5(1.664072767e-07 1.727831013e-07 1.856989669e-07 1.572824124e-07 1.63498567e-07)
5(1.966768726e-07 1.667827508e-07 2.036148493e-07 1.712549515e-07 2.187944623e-07)
5(1.867872448e-07 1.575926151e-07 1.760363242e-07 1.549805046e-07 1.9213928e-07)
5(1.505927533e-07 1.41313968e-07 1.36048242e-07 1.283917141e-07 1.320132055e-07)
5(1.276701907e-07 1.322654179e-07 1.114674385e-07 1.133950246e-07 9.893408627e-08)
5(1.236817515e-07 1.278427656e-07 1.086009613e-07 1.1168179e-07 9.966385428e-08)
5(1.269272409e-07 1.264535909e-07 1.172464977e-07 1.158539245e-07 1.133706424e-07)
5(1.28551944e-07 1.248369206e-07 1.232176938e-07 1.177617055e-07 1.204877771e-07)
5(1.267307358e-07 1.22039281e-07 1.226433377e-07 1.157593888e-07 1.181673402e-07)
5(1.22200396e-07 1.18820102e-07 1.173978239e-07 1.118487414e-07 1.113321731e-07)
5(1.178018915e-07 1.160865048e-07 1.125585443e-07 1.088042997e-07 1.063039193e-07)
5(1.151522281e-07 1.140456157e-07 1.10616295e-07 1.069387853e-07 1.045515991e-07)
5(1.137794751e-07 1.122403913e-07 1.100172681e-07 1.05872741e-07 1.046608115e-07)
5(1.126139096e-07 1.107449715e-07 1.092761155e-07 1.053302267e-07 1.046688227e-07)
5(1.1111534e-07 1.093771787e-07 1.079143348e-07 1.051612629e-07 1.041807374e-07)
5(1.094289927e-07 1.08022141e-07 1.063884035e-07 1.048599882e-07 1.033541135e-07)
5(1.076942816e-07 1.068263184e-07 1.049918548e-07 1.037671108e-07 1.024378714e-07)
5(1.060248242e-07 1.054553708e-07 1.03505573e-07 1.019783578e-07 1.018913074e-07)
5(1.044310482e-07 1.040891744e-07 1.025114529e-07 9.97572476e-08 1.01702895e-07)
5(1.029306461e-07 1.028052325e-07 1.019167157e-07 9.862573054e-08 1.017485804e-07)
5(1.015216695e-07 1.012784546e-07 1.012566191e-07 9.962735904e-08 1.023358992e-07)
5(1.001605513e-07 1.000788061e-07 1.011907957e-07 1.015044005e-07 1.034906605e-07)
5(9.886127487e-08 9.967830639e-08 1.011931103e-07 1.032563745e-07 1.050657635e-07)
5(9.764172491e-08 9.912774024e-08 1.008356052e-07 1.044269558e-07 1.069879419e-07)
5(9.651399062e-08 9.82755254e-08 1.007359581e-07 1.049829058e-07 1.097331173e-07)
5(9.540182195e-08 9.791012169e-08 1.013411231e-07 1.060041815e-07 1.134120408e-07)
5(9.427529572e-08 9.805573996e-08 1.024584851e-07 1.08316509e-07 1.174344095e-07)
5(9.319314976e-08 9.835509449e-08 1.041729434e-07 1.119800247e-07 1.216269423e-07)
5(9.238058526e-08 9.915603307e-08 1.065016343e-07 1.162951853e-07 1.258902043e-07)
5(9.176814674e-08 1.003196495e-07 1.096276559e-07 1.207783551e-07 1.298100253e-07)
5(9.148406709e-08 1.018087067e-07 1.13249005e-07 1.255924812e-07 1.339983394e-07)
5(9.19839102e-08 1.041547154e-07 1.173490221e-07 1.31288919e-07 1.409362918e-07)
5(9.288137051e-08 1.07053896e-07 1.230736258e-07 1.379613361e-07 1.52441674e-07)
5(9.414891059e-08 1.106985642e-07 1.29597039e-07 1.452235518e-07 1.650371736e-07)
5(9.617124388e-08 1.153583008e-07 1.363377079e-07 1.529245824e-07 1.674838899e-07)
5(9.897689847e-08 1.209599105e-07 1.430784965e-07 1.606265811e-07 1.509659611e-07)
5(1.026978229e-07 1.278820295e-07 1.49984069e-07 1.666313073e-07 1.186569908e-07)
5(1.077637444e-07 1.353408499e-07 1.598249058e-07 1.646172378e-07 8.88033286e-08)
5(1.145281216e-07 1.427007835e-07 1.737491263e-07 1.49174064e-07 7.759943196e-08)
5(1.232013739e-07 1.509714321e-07 1.902530478e-07 1.226292008e-07 8.653194439e-08)
5(1.337346216e-07 1.615177866e-07 1.999617086e-07 9.943305016e-08 1.065923519e-07)
5(1.452618307e-07 1.764218727e-07 1.927438529e-07 9.36593106e-08 1.26483153e-07)
5(1.570801562e-07 1.952171074e-07 1.687104206e-07 1.063527801e-07 1.439642562e-07)
5(1.697138824e-07 2.07560518e-07 1.418236309e-07 1.294315607e-07 1.64767232e-07)
5(1.834428216e-07 2.011849351e-07 1.300911328e-07 1.553213537e-07 1.957920241e-07)
5(1.970035617e-07 1.745431944e-07 1.363823284e-07 1.830130415e-07 2.386875359e-07)
5(2.040150049e-07 1.458840198e-07 1.554190699e-07 2.140882956e-07 2.926716288e-07)
5(1.96584969e-07 1.340000508e-07 1.820076786e-07 2.535528237e-07 3.56744281e-07)
5(1.733267226e-07 1.444928929e-07 2.140914441e-07 3.044788306e-07 4.305494686e-07)