/*--------------------------------*- C++ -*----------------------------------*\
| =========                 |                                                 |
| \\      /  F ield         | OpenFOAM: The Open Source CFD Toolbox           |
|  \\    /   O peration     | Version:  2.3.1                                 |
|   \\  /    A nd           | Web:      www.OpenFOAM.org                      |
|    \\/     M anipulation  |                                                 |
\*---------------------------------------------------------------------------*/
FoamFile
{
    version     2.0;
    format      ascii;
    class       dictionary;
    location    "constant";
    object      DPSI2;
}
// * * * * * * * * * * * * * * * * * * * * * * * * * * * * * * * * * * * * * //

DPSI2_table
60
(

60
(
5(1.086766845e-07 1.283784272e-07 2.879537853e-07 2.591046935e-07 6.213719066e-07)
5(1.252155962e-07 4.59898642e-08 2.212433438e-07 2.198567999e-07 6.493181121e-07)
5(6.763791017e-08 -2.815814121e-08 6.924373777e-08 1.451935976e-07 1.074822667e-07)
5(0 -1.881998408e-09 -8.900106096e-09 2.05940746e-09 -1.79418546e-07)
5(-3.874239724e-08 1.2328447e-08 5.405050598e-08 -6.539741223e-08 1.185717233e-07)
5(-4.777537905e-08 1.15344675e-08 4.549272705e-08 2.849938285e-08 -4.528809752e-08)
5(1.545517319e-08 5.058455963e-09 -4.055428897e-08 1.788699393e-08 4.387679304e-08)
5(-5.081993578e-09 -2.895894762e-09 -1.688663142e-08 -2.095438108e-08 9.214836776e-08)
5(-3.195979463e-08 -7.68224622e-09 -4.581246125e-09 3.636847763e-09 -6.743461173e-08)
5(-9.178916276e-09 -5.48365346e-09 -1.786763968e-08 4.911138926e-09 -1.631535716e-08)
5(8.836204506e-09 -4.394125559e-10 1.38343717e-08 -5.759981537e-09 1.176176783e-08)
5(3.069493964e-08 -1.710688629e-09 1.53378781e-08 -1.386511197e-08 2.402105587e-09)
5(9.590969342e-09 -4.685697095e-09 -1.352496208e-09 1.165527165e-09 -3.788144182e-09)
5(-2.780062677e-09 -3.400346124e-10 -1.415068543e-10 3.694821764e-09 1.087413736e-08)
5(-1.888643974e-10 -2.705573223e-09 -2.811626408e-09 -1.533555596e-08 -5.02299e-09)
5(-6.596638758e-09 -5.767827741e-09 -9.809289605e-09 -7.866263031e-09 -1.890436228e-08)
5(-1.200566629e-09 -1.741100837e-09 -4.527001678e-09 -1.237583271e-08 -2.166145256e-08)
5(3.401969855e-10 -3.29544592e-09 -5.16957771e-09 -1.190740681e-08 -1.504276243e-08)
5(-4.396072957e-09 -9.541550024e-09 -1.272529196e-08 -2.084600419e-08 -1.025490951e-08)
5(-5.992905478e-09 -7.141157252e-09 -7.831215867e-09 -2.123037575e-08 -8.207650512e-09)
5(-4.324786544e-09 -2.998336431e-09 -7.262185472e-09 1.680819791e-08 8.928762258e-09)
5(-9.391270013e-09 -1.045871269e-08 -1.400820134e-08 -6.447686528e-09 -1.85393022e-08)
5(-8.746642114e-09 -1.859082906e-08 -1.413708725e-08 -3.717171926e-08 -4.19249049e-08)
5(-9.032952427e-09 -2.042317115e-08 -2.293170213e-08 -3.321450629e-08 -3.4391525e-08)
5(-1.28923491e-08 -1.838448495e-08 -3.604134538e-08 -5.283030012e-08 -4.370363053e-08)
5(-1.419053789e-08 -1.674467412e-08 -2.775133533e-08 -5.549736178e-08 -4.196957856e-08)
5(-1.505417544e-08 -1.793551199e-08 -2.917293435e-08 -5.082963819e-08 -4.767548656e-08)
5(-2.215975202e-08 -2.91784405e-08 -3.788697328e-08 -4.421384962e-08 -5.544779833e-08)
5(-2.849547114e-08 -4.164309469e-08 -3.347118486e-08 -2.941447783e-08 -5.333157072e-08)
5(-3.210400405e-08 -4.883081059e-08 -5.569857936e-08 -5.638573827e-08 -6.041517717e-08)
5(-3.734330453e-08 -4.670415796e-08 -5.450309046e-08 -5.196122907e-08 -4.220878936e-09)
5(-3.80089876e-08 -5.198688901e-08 -5.719735849e-08 -4.209578037e-08 -6.830968039e-08)
5(-4.619735531e-08 -6.894489391e-08 -9.038294158e-08 -6.528274954e-08 -5.551754847e-08)
5(-5.737718572e-08 -7.056737306e-08 -8.477269554e-08 -6.619611786e-08 2.091410252e-08)
5(-6.384246451e-08 -8.86353763e-08 -1.200501519e-07 -8.559419138e-08 -6.314261001e-08)
5(-7.074288702e-08 -7.306568713e-08 -5.887412066e-08 -4.742788131e-08 -8.066727015e-08)
5(-7.839053125e-08 -8.031682117e-08 -1.544860728e-08 -5.91154477e-08 1.350281637e-07)
5(-9.217975678e-08 -1.079990896e-07 -1.148231937e-07 -7.510099148e-08 -4.813618449e-08)
5(-1.224967114e-07 -1.025776556e-07 -1.576198488e-07 -7.242551118e-08 5.693673105e-07)
5(-1.250039816e-07 -8.538211368e-08 -7.037096493e-08 -5.30918129e-08 7.826648177e-07)
5(-9.73397151e-08 -7.150519101e-08 -7.78175004e-10 2.41831537e-07 -2.378028907e-08)
5(-1.001767334e-07 -5.416866283e-08 -1.294431924e-08 8.112272941e-07 -2.183420726e-08)
5(-1.23036626e-07 -8.113931392e-08 -2.367807787e-07 5.506567463e-07 -1.006114784e-07)
5(-1.313263619e-07 -8.711947044e-08 -2.031508803e-07 -5.947111057e-08 -9.240446345e-08)
5(-7.993159141e-08 -7.271862843e-08 1.649106815e-07 -7.913861366e-08 -7.84642203e-08)
5(-3.486154742e-08 -3.087670563e-08 7.099951191e-07 -1.083105826e-07 -1.423320179e-07)
5(-1.774705554e-08 2.305838541e-07 7.631896309e-07 -1.334812593e-07 -1.908987117e-07)
5(-1.88728147e-08 1.390610117e-07 1.362152324e-07 -1.663631754e-07 -2.442803193e-07)
5(-1.702949154e-08 5.175995976e-07 -1.147864837e-07 -2.135885115e-07 -3.060964584e-07)
5(6.381846857e-08 5.313032799e-07 -1.762842027e-07 -2.689933055e-07 -3.814977813e-07)
5(5.208614963e-07 -1.372885596e-07 -2.224766255e-07 -3.353228778e-07 -4.726794923e-07)
5(5.924178739e-07 -1.847852006e-07 -2.761419032e-07 -4.124640731e-07 -5.796253675e-07)
5(7.834212003e-08 -2.272517679e-07 -3.411165022e-07 -5.034591257e-07 -7.095548281e-07)
5(-1.506843186e-07 -2.774870779e-07 -4.180250027e-07 -6.122436198e-07 -8.596242743e-07)
5(-2.573337691e-07 -3.389554575e-07 -5.085920085e-07 -7.353950812e-07 -1.027721329e-06)
5(-4.022718298e-07 -4.146137694e-07 -6.175228099e-07 -8.748926596e-07 -1.198979821e-06)
5(-4.89223229e-07 -5.666734311e-07 -7.524600757e-07 -1.03081291e-06 -1.372647557e-06)
5(-4.810270966e-07 -7.504417863e-07 -1.007405029e-06 -8.52978873e-07 -1.553485817e-06)
5(-4.938501104e-07 -9.596024513e-07 -1.510700835e-06 -2.390695809e-06 -2.926154504e-06)
5(-5.17350222e-07 -1.102472702e-06 -1.847106148e-06 -4.247169478e-06 -4.25274995e-06)
)


60
(
5(6.174705063e-08 -1.007900146e-08 1.927051795e-07 1.40592726e-07 4.506646526e-07)
5(4.743880789e-08 -1.108357746e-08 1.467568741e-07 1.073663452e-07 3.458884781e-07)
5(1.591916998e-08 -1.373064122e-08 4.696393549e-08 3.183436876e-08 1.250644513e-07)
5(-9.91876415e-09 -1.839193484e-08 -2.604622001e-08 -2.4738478e-08 -3.95024111e-08)
5(-2.535216365e-08 -2.19605808e-08 -5.448733084e-08 -4.826916451e-08 -1.14704336e-07)
5(-2.533664054e-08 -2.191073578e-08 -4.493285002e-08 -4.533357307e-08 -9.551863785e-08)
5(-1.649898858e-08 -1.975411047e-08 -2.573764355e-08 -3.296426491e-08 -4.189921223e-08)
5(-1.110841551e-08 -1.852274996e-08 -1.629153401e-08 -2.5312126e-08 -1.526430695e-08)
5(-1.224683632e-08 -1.9991409e-08 -1.797368816e-08 -2.782274556e-08 -2.167397969e-08)
5(-1.594244432e-08 -2.311080535e-08 -2.637997819e-08 -3.567045642e-08 -4.196760915e-08)
5(-1.914249027e-08 -2.571516374e-08 -3.434310919e-08 -4.180515798e-08 -5.663978146e-08)
5(-2.131812304e-08 -2.798024664e-08 -3.859023004e-08 -4.573224113e-08 -6.016902239e-08)
5(-2.242038876e-08 -3.03826187e-08 -4.011945455e-08 -4.954090214e-08 -5.927565226e-08)
5(-2.387620712e-08 -3.296267024e-08 -4.216362038e-08 -5.316917319e-08 -6.178678199e-08)
5(-2.632000504e-08 -3.650013679e-08 -4.657190742e-08 -5.765891404e-08 -6.779888506e-08)
5(-2.953474235e-08 -4.088818284e-08 -5.282995907e-08 -6.480161203e-08 -7.657106214e-08)
5(-3.315957354e-08 -4.577778076e-08 -5.934438191e-08 -7.283355178e-08 -8.614454232e-08)
5(-3.734380929e-08 -5.115101265e-08 -6.614223168e-08 -8.181563863e-08 -9.62463784e-08)
5(-4.204110096e-08 -5.757214337e-08 -7.399845743e-08 -9.235976363e-08 -1.086786106e-07)
5(-4.757965851e-08 -6.539287049e-08 -8.343499391e-08 -1.036096146e-07 -1.213710997e-07)
5(-5.407870115e-08 -7.410881682e-08 -9.411296683e-08 -1.161212732e-07 -1.350615195e-07)
5(-6.120125122e-08 -8.396387799e-08 -1.064985384e-07 -1.297273804e-07 -1.529761267e-07)
5(-7.011865933e-08 -9.578138233e-08 -1.213785816e-07 -1.449307419e-07 -1.716805791e-07)
5(-8.093027052e-08 -1.094466626e-07 -1.378245857e-07 -1.647911593e-07 -1.925924079e-07)
5(-9.298717411e-08 -1.248879688e-07 -1.576879838e-07 -1.888712075e-07 -2.170422931e-07)
5(-1.072216793e-07 -1.423123342e-07 -1.797085001e-07 -2.141906438e-07 -2.420988642e-07)
5(-1.234942733e-07 -1.628550602e-07 -2.023909995e-07 -2.39478338e-07 -2.669203472e-07)
5(-1.42545126e-07 -1.865343314e-07 -2.290068099e-07 -2.655358464e-07 -2.958874443e-07)
5(-1.646076441e-07 -2.118450423e-07 -2.583163284e-07 -2.942842539e-07 -3.24135661e-07)
5(-1.897620824e-07 -2.401761505e-07 -2.895460682e-07 -3.251905572e-07 -3.511838076e-07)
5(-2.183700832e-07 -2.720303323e-07 -3.225510086e-07 -3.569471e-07 -3.777979072e-07)
5(-2.499484445e-07 -3.063181996e-07 -3.579016196e-07 -3.878908938e-07 -3.992566942e-07)
5(-2.851270543e-07 -3.432321396e-07 -3.950850091e-07 -4.171499333e-07 -4.147640898e-07)
5(-3.242838763e-07 -3.830177183e-07 -4.323972742e-07 -4.441829725e-07 -4.248728361e-07)
5(-3.681399757e-07 -4.242609938e-07 -4.697493396e-07 -4.675989963e-07 -4.315509637e-07)
5(-4.141817039e-07 -4.653838134e-07 -5.045800985e-07 -4.83797147e-07 -4.362389764e-07)
5(-4.624433309e-07 -5.060199897e-07 -5.333053617e-07 -4.94203049e-07 -4.364303239e-07)
5(-5.132872655e-07 -5.432940969e-07 -5.550120005e-07 -4.988611858e-07 -4.040149663e-07)
5(-5.616314995e-07 -5.778779418e-07 -5.681959836e-07 -4.867707365e-07 -3.140653174e-07)
5(-6.066672537e-07 -6.036471512e-07 -5.667785202e-07 -4.52819355e-07 -1.680599688e-07)
5(-6.419680025e-07 -6.201468272e-07 -5.580602562e-07 -3.859279767e-07 -8.291762371e-09)
5(-6.72357645e-07 -6.195468174e-07 -5.403889836e-07 -2.729451716e-07 1.197839707e-07)
5(-6.91592066e-07 -5.905066784e-07 -5.041173668e-07 -1.228701942e-07 1.983836957e-07)
5(-6.82442368e-07 -5.545700665e-07 -4.346713734e-07 3.524448015e-08 2.493412795e-07)
5(-6.471012495e-07 -5.087385886e-07 -3.080076726e-07 1.668793794e-07 3.003239712e-07)
5(-5.843524806e-07 -4.379179249e-07 -1.247814536e-07 2.541330836e-07 3.384985129e-07)
5(-4.98038649e-07 -3.285452334e-07 7.478734417e-08 3.047302812e-07 3.495565832e-07)
5(-3.890770284e-07 -1.654647356e-07 2.425232841e-07 3.345908437e-07 3.229790592e-07)
5(-2.483072155e-07 4.778998526e-08 3.610522295e-07 3.451545007e-07 2.56425624e-07)
5(-7.5204707e-08 2.730768073e-07 4.308503572e-07 3.253995421e-07 1.619346341e-07)
5(1.364414541e-07 4.499915194e-07 4.593845988e-07 2.678513589e-07 4.330975063e-08)
5(3.785319896e-07 5.501357113e-07 4.482864535e-07 1.827461979e-07 -9.079524131e-08)
5(6.120180115e-07 5.867844313e-07 4.041227821e-07 8.009183617e-08 -2.464391502e-07)
5(7.970854962e-07 5.777639065e-07 3.331497923e-07 -5.43815299e-08 -4.307902173e-07)
5(9.026880115e-07 5.417099084e-07 2.418543838e-07 -2.13346453e-07 -6.387529413e-07)
5(9.325070522e-07 4.953530902e-07 1.343381392e-07 -3.807393031e-07 -8.700039749e-07)
5(9.008039516e-07 4.27741845e-07 1.470991527e-08 -5.63501442e-07 -1.119134204e-06)
5(8.173775864e-07 3.520473165e-07 -9.518291487e-08 -7.585434172e-07 -1.392887451e-06)
5(8.109329384e-07 3.394631026e-07 5.055562665e-08 -9.245469989e-07 -1.68603576e-06)
5(8.575726879e-07 3.619314102e-07 2.472567976e-07 -9.923344611e-07 -1.839082672e-06)
)


60
(
5(2.932923152e-08 -4.892108319e-08 1.367612043e-07 8.896337918e-08 3.572332841e-07)
5(2.012797148e-08 -4.547480525e-08 1.021364242e-07 6.342796474e-08 2.658237792e-07)
5(-1.163024025e-09 -3.621816816e-08 1.986108937e-08 2.245696786e-09 7.415962082e-08)
5(-2.203054147e-08 -3.377497036e-08 -4.485116695e-08 -4.723805631e-08 -6.57335056e-08)
5(-3.626748609e-08 -3.609940345e-08 -6.979036346e-08 -6.809077675e-08 -1.297437111e-07)
5(-3.615814636e-08 -3.618537214e-08 -6.226034228e-08 -6.481686786e-08 -1.126354594e-07)
5(-2.790364796e-08 -3.442585965e-08 -4.439863685e-08 -5.319121125e-08 -6.604392255e-08)
5(-2.331181149e-08 -3.435082262e-08 -3.500438279e-08 -4.747221795e-08 -4.327879548e-08)
5(-2.490654197e-08 -3.638449937e-08 -3.753540654e-08 -5.110216037e-08 -5.166101664e-08)
5(-2.912025141e-08 -3.976618084e-08 -4.681165296e-08 -5.95324725e-08 -7.113878251e-08)
5(-3.308412384e-08 -4.335394536e-08 -5.568798531e-08 -6.72377311e-08 -8.382240899e-08)
5(-3.617676208e-08 -4.701374735e-08 -6.121016251e-08 -7.277745717e-08 -8.970808612e-08)
5(-3.843309394e-08 -5.091394101e-08 -6.4834713e-08 -7.766961767e-08 -9.204036568e-08)
5(-4.116623166e-08 -5.5116608e-08 -6.909641984e-08 -8.32314416e-08 -9.682471171e-08)
5(-4.499056769e-08 -6.017740787e-08 -7.520231187e-08 -9.072453121e-08 -1.055131085e-07)
5(-4.973838883e-08 -6.612606059e-08 -8.31566275e-08 -1.004825129e-07 -1.173425304e-07)
5(-5.512915136e-08 -7.317757622e-08 -9.225552513e-08 -1.115652813e-07 -1.299547002e-07)
5(-6.122417025e-08 -8.13946009e-08 -1.024721876e-07 -1.237898312e-07 -1.441608671e-07)
5(-6.829514362e-08 -9.061388764e-08 -1.139066676e-07 -1.379946025e-07 -1.609627589e-07)
5(-7.608420674e-08 -1.014043029e-07 -1.267393199e-07 -1.537178742e-07 -1.79642069e-07)
5(-8.578191108e-08 -1.139089554e-07 -1.417230856e-07 -1.707572881e-07 -2.001970993e-07)
5(-9.662895924e-08 -1.28040716e-07 -1.594936734e-07 -1.911423767e-07 -2.229868934e-07)
5(-1.091888418e-07 -1.442653551e-07 -1.801971984e-07 -2.143669353e-07 -2.496459779e-07)
5(-1.239847123e-07 -1.629815877e-07 -2.032550295e-07 -2.406770434e-07 -2.792799584e-07)
5(-1.410427878e-07 -1.844772292e-07 -2.29089147e-07 -2.717213757e-07 -3.110647746e-07)
5(-1.611583961e-07 -2.088343954e-07 -2.579689416e-07 -3.05311649e-07 -3.4747429e-07)
5(-1.834222841e-07 -2.371099714e-07 -2.909450221e-07 -3.413803995e-07 -3.847940706e-07)
5(-2.098096584e-07 -2.684954744e-07 -3.271542854e-07 -3.791098985e-07 -4.249145852e-07)
5(-2.399914822e-07 -3.030060451e-07 -3.671456125e-07 -4.200673576e-07 -4.676772974e-07)
5(-2.733854666e-07 -3.428885474e-07 -4.111084829e-07 -4.644296835e-07 -5.091193457e-07)
5(-3.11280989e-07 -3.859395215e-07 -4.57161224e-07 -5.099222846e-07 -5.5172019e-07)
5(-3.544024008e-07 -4.318168112e-07 -5.075493753e-07 -5.580338661e-07 -5.896868868e-07)
5(-4.023564084e-07 -4.838882457e-07 -5.612030767e-07 -6.058870939e-07 -6.255406721e-07)
5(-4.542551541e-07 -5.394260882e-07 -6.147354771e-07 -6.515147428e-07 -6.565163943e-07)
5(-5.091490613e-07 -5.964566033e-07 -6.709557305e-07 -6.95321349e-07 -6.839356115e-07)
5(-5.740672763e-07 -6.55720559e-07 -7.271029036e-07 -7.357237792e-07 -7.112205596e-07)
5(-6.393830778e-07 -7.167177665e-07 -7.780019983e-07 -7.70295056e-07 -7.28511746e-07)
5(-7.05481578e-07 -7.778181627e-07 -8.229330835e-07 -7.951048744e-07 -7.124844131e-07)
5(-7.74744286e-07 -8.330106428e-07 -8.601462583e-07 -8.043503888e-07 -6.442703329e-07)
5(-8.346745169e-07 -8.817265013e-07 -8.888424514e-07 -7.921561141e-07 -5.238691087e-07)
5(-8.990166536e-07 -9.232682873e-07 -9.029803173e-07 -7.472780524e-07 -3.808629731e-07)
5(-9.509941202e-07 -9.473441899e-07 -9.010068268e-07 -6.537671994e-07 -2.478839482e-07)
5(-9.831086609e-07 -9.475435298e-07 -8.789382367e-07 -5.12577744e-07 -1.332101472e-07)
5(-9.991569284e-07 -9.237281818e-07 -8.154114583e-07 -3.485742642e-07 -3.339292732e-08)
5(-9.88212298e-07 -8.832601618e-07 -6.946577898e-07 -1.879749277e-07 7.124770359e-08)
5(-9.434432644e-07 -8.193608119e-07 -5.124300474e-07 -4.841009527e-08 1.820449967e-07)
5(-8.622017037e-07 -7.036895285e-07 -2.894714885e-07 7.270011388e-08 2.776175519e-07)
5(-7.482783147e-07 -5.192066994e-07 -6.703005433e-08 1.875400104e-07 3.399357771e-07)
5(-6.002775738e-07 -2.782353596e-07 1.282986588e-07 2.890654502e-07 3.580737015e-07)
5(-4.084013912e-07 -7.731644885e-09 2.908654451e-07 3.626125101e-07 3.301671319e-07)
5(-1.642218038e-07 2.493727254e-07 4.217190814e-07 3.99138523e-07 2.730081642e-07)
5(1.290170306e-07 4.543220322e-07 5.207491687e-07 3.949047453e-07 1.892080475e-07)
5(4.424174092e-07 6.027129506e-07 5.802323779e-07 3.508447022e-07 6.45228993e-08)
5(7.285121751e-07 7.118742844e-07 5.95611032e-07 2.656625184e-07 -1.016718277e-07)
5(9.573246809e-07 7.852971171e-07 5.717126535e-07 1.45384782e-07 -3.019380228e-07)
5(1.112379083e-06 8.141095611e-07 5.133991271e-07 -4.091512667e-09 -5.294523279e-07)
5(1.188023438e-06 8.091581298e-07 4.32099302e-07 -1.825229859e-07 -7.814310726e-07)
5(1.203890891e-06 7.829524748e-07 3.380327675e-07 -3.66900634e-07 -1.050282452e-06)
5(1.424880707e-06 9.374386726e-07 6.163179338e-07 -3.875033782e-07 -1.250191464e-06)
5(1.647566374e-06 1.11030142e-06 9.445926348e-07 -3.183680565e-07 -1.314310486e-06)
)


60
(
5(-1.362806074e-09 -8.477650027e-08 9.314238407e-08 4.839647335e-08 2.814190977e-07)
5(-5.841388268e-09 -7.753059154e-08 6.294549632e-08 2.618024085e-08 2.010800563e-07)
5(-1.743216501e-08 -5.762709579e-08 -7.658630679e-09 -2.503978421e-08 3.274174817e-08)
5(-3.371285194e-08 -4.843945851e-08 -6.285308262e-08 -6.674278208e-08 -8.86756891e-08)
5(-4.69891886e-08 -4.903819918e-08 -8.358126853e-08 -8.472183195e-08 -1.43955147e-07)
5(-4.686661579e-08 -4.945436227e-08 -7.660274406e-08 -8.146119932e-08 -1.285648717e-07)
5(-3.883017778e-08 -4.806535052e-08 -6.062436488e-08 -7.081014516e-08 -8.650026245e-08)
5(-3.462398912e-08 -4.813483164e-08 -5.215507158e-08 -6.642680949e-08 -6.656163403e-08)
5(-3.662131833e-08 -5.072107526e-08 -5.50199876e-08 -7.072399282e-08 -7.444763425e-08)
5(-4.14092466e-08 -5.474021044e-08 -6.42798616e-08 -7.909713986e-08 -9.276918251e-08)
5(-4.585453131e-08 -5.903433574e-08 -7.347179822e-08 -8.7091559e-08 -1.061777734e-07)
5(-4.944257491e-08 -6.338182982e-08 -8.000557527e-08 -9.394937956e-08 -1.134222786e-07)
5(-5.261673597e-08 -6.796443657e-08 -8.493390627e-08 -1.004384011e-07 -1.166045726e-07)
5(-5.639072429e-08 -7.326165578e-08 -9.06088037e-08 -1.073214353e-07 -1.235425845e-07)
5(-6.120009379e-08 -7.961534002e-08 -9.835983519e-08 -1.160812185e-07 -1.346099264e-07)
5(-6.69287286e-08 -8.70910509e-08 -1.077665422e-07 -1.275138197e-07 -1.477370268e-07)
5(-7.368143048e-08 -9.552449065e-08 -1.182126712e-07 -1.402948429e-07 -1.634425735e-07)
5(-8.130056472e-08 -1.05332246e-07 -1.302719303e-07 -1.550490523e-07 -1.798147921e-07)
5(-8.967375448e-08 -1.164629348e-07 -1.438959553e-07 -1.719764298e-07 -1.992102394e-07)
5(-9.950938182e-08 -1.29099674e-07 -1.597169092e-07 -1.909028105e-07 -2.214297021e-07)
5(-1.11331687e-07 -1.442040433e-07 -1.77955712e-07 -2.116593445e-07 -2.454946537e-07)
5(-1.245336992e-07 -1.611316309e-07 -1.9837519e-07 -2.353811253e-07 -2.732327075e-07)
5(-1.391760616e-07 -1.799633406e-07 -2.21814095e-07 -2.632963826e-07 -3.047896377e-07)
5(-1.570941223e-07 -2.020815127e-07 -2.496187324e-07 -2.944048629e-07 -3.420118784e-07)
5(-1.775750518e-07 -2.280020868e-07 -2.811789085e-07 -3.30001578e-07 -3.80605507e-07)
5(-2.006735105e-07 -2.569151684e-07 -3.153803905e-07 -3.700192587e-07 -4.206691364e-07)
5(-2.272207248e-07 -2.89111279e-07 -3.535974731e-07 -4.12963078e-07 -4.687396294e-07)
5(-2.581478693e-07 -3.259494902e-07 -3.963577013e-07 -4.584865913e-07 -5.156948578e-07)
5(-2.93476861e-07 -3.671073367e-07 -4.437352601e-07 -5.08740282e-07 -5.688933224e-07)
5(-3.321764853e-07 -4.127703139e-07 -4.951684409e-07 -5.629054347e-07 -6.244763814e-07)
5(-3.764386201e-07 -4.633271195e-07 -5.502114827e-07 -6.196229204e-07 -6.788097e-07)
5(-4.264284749e-07 -5.186314931e-07 -6.117829136e-07 -6.796355786e-07 -7.347315996e-07)
5(-4.80383522e-07 -5.790605638e-07 -6.774064837e-07 -7.413825036e-07 -7.865053759e-07)
5(-5.409320598e-07 -6.443070453e-07 -7.438412439e-07 -8.040574139e-07 -8.351526739e-07)
5(-6.070334518e-07 -7.135990773e-07 -8.131432708e-07 -8.671283777e-07 -8.832517215e-07)
5(-6.77037812e-07 -7.857093495e-07 -8.838059837e-07 -9.275976937e-07 -9.325630399e-07)
5(-7.543258688e-07 -8.605484912e-07 -9.556214366e-07 -9.826977175e-07 -9.686076864e-07)
5(-8.331424887e-07 -9.369394675e-07 -1.024917212e-06 -1.030339013e-06 -9.817652846e-07)
5(-9.119278901e-07 -1.011582171e-06 -1.086668068e-06 -1.06614363e-06 -9.440147355e-07)
5(-9.946372098e-07 -1.0835941e-06 -1.138115126e-06 -1.082803963e-06 -8.578722739e-07)
5(-1.068512029e-06 -1.147477696e-06 -1.176841233e-06 -1.066852387e-06 -7.514503275e-07)
5(-1.135623032e-06 -1.195168866e-06 -1.201511584e-06 -1.004665386e-06 -6.320693581e-07)
5(-1.192497894e-06 -1.222769956e-06 -1.204863032e-06 -8.936064449e-07 -5.215753563e-07)
5(-1.229892475e-06 -1.228930504e-06 -1.167905593e-06 -7.504771939e-07 -4.142778663e-07)
5(-1.240520687e-06 -1.210020861e-06 -1.069091561e-06 -5.96883171e-07 -2.853121566e-07)
5(-1.215190427e-06 -1.159030671e-06 -9.068400561e-07 -4.443111528e-07 -1.319836885e-07)
5(-1.159259776e-06 -1.065952028e-06 -6.956059491e-07 -2.930153347e-07 2.453914853e-08)
5(-1.0644867e-06 -9.080059004e-07 -4.684062121e-07 -1.335184649e-07 1.562113764e-07)
5(-9.404494604e-07 -6.740908983e-07 -2.482857099e-07 3.35241122e-08 2.5547297e-07)
5(-7.695555943e-07 -3.9386903e-07 -2.82921144e-08 1.933685224e-07 3.161174158e-07)
5(-5.350022791e-07 -1.12380624e-07 1.859312963e-07 3.232512757e-07 3.38079578e-07)
5(-2.580119746e-07 1.477655826e-07 3.798325015e-07 4.157841249e-07 3.232999306e-07)
5(6.341997196e-08 3.868754154e-07 5.442522133e-07 4.642631189e-07 2.65489216e-07)
5(4.02975828e-07 6.056976614e-07 6.666688984e-07 4.583639997e-07 1.524878289e-07)
5(7.241638544e-07 7.915566339e-07 7.411779837e-07 4.010892904e-07 -1.540727899e-08)
5(1.004241061e-06 9.332473337e-07 7.638598822e-07 2.991905627e-07 -2.137707142e-07)
5(1.23295619e-06 1.027891032e-06 7.415380596e-07 1.657464695e-07 -4.399686623e-07)
5(1.412699957e-06 1.090043339e-06 6.962782264e-07 9.679701816e-09 -6.978926126e-07)
5(1.881537512e-06 1.547368806e-06 1.088877666e-06 5.240788987e-08 -7.936674654e-07)
5(2.27400825e-06 1.97534371e-06 1.506044444e-06 1.79118062e-07 -7.532241967e-07)
)


60
(
5(-3.118943908e-08 -1.188444801e-07 5.346397197e-08 1.260943306e-08 2.156776834e-07)
5(-3.119908195e-08 -1.081049949e-07 2.681674564e-08 -7.040905336e-09 1.447134337e-07)
5(-3.326307184e-08 -7.796709056e-08 -3.312911555e-08 -4.956513484e-08 -2.643018122e-09)
5(-4.499866157e-08 -6.223149786e-08 -7.962230412e-08 -8.414827957e-08 -1.088390676e-07)
5(-5.734195576e-08 -6.124641805e-08 -9.651894186e-08 -9.917523776e-08 -1.570624633e-07)
5(-5.71066861e-08 -6.163980282e-08 -8.9485655e-08 -9.601371436e-08 -1.420961467e-07)
5(-4.913531574e-08 -6.03930833e-08 -7.487784941e-08 -8.654007099e-08 -1.035860662e-07)
5(-4.532521576e-08 -6.083901459e-08 -6.716935094e-08 -8.258714993e-08 -8.575452906e-08)
5(-4.761431504e-08 -6.349774718e-08 -7.02052913e-08 -8.680319052e-08 -9.314790105e-08)
5(-5.2638763e-08 -6.789150294e-08 -7.956017365e-08 -9.550598318e-08 -1.108393366e-07)
5(-5.750891328e-08 -7.274081761e-08 -8.906727796e-08 -1.041996413e-07 -1.243124551e-07)
5(-6.162805154e-08 -7.747063487e-08 -9.62573228e-08 -1.114279792e-07 -1.317053931e-07)
5(-6.528479705e-08 -8.291439972e-08 -1.018332271e-07 -1.183675685e-07 -1.369408287e-07)
5(-6.969890774e-08 -8.907005663e-08 -1.081129994e-07 -1.265514291e-07 -1.445406323e-07)
5(-7.539518245e-08 -9.614000244e-08 -1.164988245e-07 -1.36606778e-07 -1.559670259e-07)
5(-8.204439628e-08 -1.043161915e-07 -1.272666528e-07 -1.487348214e-07 -1.71488222e-07)
5(-8.957880728e-08 -1.137819729e-07 -1.396508666e-07 -1.62468322e-07 -1.883892432e-07)
5(-9.813786346e-08 -1.248161319e-07 -1.526688163e-07 -1.794119002e-07 -2.068919298e-07)
5(-1.078772844e-07 -1.371640867e-07 -1.676778533e-07 -1.984004241e-07 -2.282066843e-07)
5(-1.189490881e-07 -1.513304166e-07 -1.853829353e-07 -2.186398083e-07 -2.528410757e-07)
5(-1.319593735e-07 -1.678254236e-07 -2.053170704e-07 -2.420259472e-07 -2.797370531e-07)
5(-1.464639417e-07 -1.864714141e-07 -2.2797867e-07 -2.680429658e-07 -3.10390023e-07)
5(-1.633204232e-07 -2.077924963e-07 -2.543956477e-07 -2.97851673e-07 -3.467114118e-07)
5(-1.835044605e-07 -2.322133109e-07 -2.847096433e-07 -3.330427358e-07 -3.856139466e-07)
5(-2.054697663e-07 -2.595348845e-07 -3.18582929e-07 -3.729247513e-07 -4.281870241e-07)
5(-2.311792785e-07 -2.915129133e-07 -3.562918883e-07 -4.164771152e-07 -4.772362619e-07)
5(-2.611864136e-07 -3.274112957e-07 -3.985350953e-07 -4.638557091e-07 -5.294219848e-07)
5(-2.950462552e-07 -3.666537861e-07 -4.456413466e-07 -5.15589346e-07 -5.838368926e-07)
5(-3.3179644e-07 -4.115924316e-07 -4.975429438e-07 -5.715581292e-07 -6.427747511e-07)
5(-3.74251238e-07 -4.622315816e-07 -5.543198327e-07 -6.321418172e-07 -7.05774744e-07)
5(-4.23971688e-07 -5.177358617e-07 -6.163806998e-07 -6.974509206e-07 -7.705090795e-07)
5(-4.76627431e-07 -5.782049312e-07 -6.842186254e-07 -7.668770039e-07 -8.395036274e-07)
5(-5.347861823e-07 -6.437722007e-07 -7.574610434e-07 -8.39307809e-07 -9.075440294e-07)
5(-5.998153116e-07 -7.153864141e-07 -8.343207289e-07 -9.140003289e-07 -9.710951543e-07)
5(-6.716845882e-07 -7.929345614e-07 -9.150447488e-07 -9.902229458e-07 -1.037026486e-06)
5(-7.50247061e-07 -8.740174387e-07 -9.989464453e-07 -1.066211489e-06 -1.104159468e-06)
5(-8.314342063e-07 -9.593236907e-07 -1.08398467e-06 -1.141270451e-06 -1.1648742e-06)
5(-9.177639992e-07 -1.049127627e-06 -1.168866539e-06 -1.212032301e-06 -1.204142226e-06)
5(-1.008150369e-06 -1.138647324e-06 -1.249768644e-06 -1.273499912e-06 -1.203240719e-06)
5(-1.09721235e-06 -1.22484599e-06 -1.324475725e-06 -1.318762034e-06 -1.156350791e-06)
5(-1.183794479e-06 -1.304767553e-06 -1.39068176e-06 -1.334959229e-06 -1.079051264e-06)
5(-1.263139359e-06 -1.373984812e-06 -1.442934559e-06 -1.310071594e-06 -1.000932292e-06)
5(-1.327846493e-06 -1.428687427e-06 -1.475468624e-06 -1.239255839e-06 -9.22374705e-07)
5(-1.375771551e-06 -1.462256746e-06 -1.472304733e-06 -1.133409724e-06 -8.218523889e-07)
5(-1.40711405e-06 -1.471872494e-06 -1.413366954e-06 -1.009487759e-06 -6.923292481e-07)
5(-1.402381895e-06 -1.452069822e-06 -1.288968006e-06 -8.732709649e-07 -5.355993035e-07)
5(-1.365870318e-06 -1.385632047e-06 -1.110489365e-06 -7.225612616e-07 -3.628447901e-07)
5(-1.300933145e-06 -1.254754198e-06 -9.043344662e-07 -5.532688475e-07 -1.888395221e-07)
5(-1.198830206e-06 -1.05413779e-06 -6.875044091e-07 -3.569395997e-07 -2.906438855e-08)
5(-1.06217186e-06 -8.082659287e-07 -4.576462144e-07 -1.461074902e-07 1.105719112e-07)
5(-8.760540634e-07 -5.493556986e-07 -2.107635329e-07 5.521360155e-08 2.248178889e-07)
5(-6.390518941e-07 -2.881923172e-07 4.180574174e-08 2.339218995e-07 2.965365961e-07)
5(-3.595900953e-07 -2.319695365e-08 2.851544195e-07 3.755698013e-07 3.22972813e-07)
5(-5.728758002e-08 2.471298437e-07 5.090391755e-07 4.710751808e-07 2.916698421e-07)
5(2.750947094e-07 5.212442167e-07 6.970023401e-07 5.154226378e-07 1.921427014e-07)
5(6.1783505e-07 7.852001452e-07 8.330554317e-07 5.006795986e-07 4.984266717e-08)
5(9.507313527e-07 1.019218134e-06 9.159285265e-07 4.266958151e-07 -1.363364357e-07)
5(1.324348597e-06 1.247716752e-06 9.57121975e-07 3.126957856e-07 -3.66277237e-07)
5(2.15232434e-06 1.919434989e-06 1.621101214e-06 6.054742784e-07 -2.29829229e-07)
5(2.775694878e-06 2.467536866e-06 2.266940438e-06 9.618815354e-07 3.093162466e-08)
)


60
(
5(-6.033674712e-08 -1.512696079e-07 1.689121357e-08 -1.975783981e-08 1.577341877e-07)
5(-5.599004264e-08 -1.371792912e-07 -6.730763239e-09 -3.715995821e-08 9.479672827e-08)
5(-4.869685571e-08 -9.750315843e-08 -5.710421782e-08 -7.190913452e-08 -3.388564211e-08)
5(-5.599548359e-08 -7.5626735e-08 -9.54947452e-08 -1.000729623e-07 -1.265239246e-07)
5(-6.73277354e-08 -7.263301884e-08 -1.085362597e-07 -1.121826971e-07 -1.686933992e-07)
5(-6.697167263e-08 -7.283493867e-08 -1.011129427e-07 -1.087927706e-07 -1.541212466e-07)
5(-5.899883349e-08 -7.180183913e-08 -8.766162117e-08 -1.000486029e-07 -1.181306468e-07)
5(-5.539323896e-08 -7.242010229e-08 -8.06499873e-08 -9.6643507e-08 -1.016724746e-07)
5(-5.793703248e-08 -7.536305892e-08 -8.372217923e-08 -1.009004597e-07 -1.090982339e-07)
5(-6.310948421e-08 -7.980181971e-08 -9.293275964e-08 -1.094902207e-07 -1.258801968e-07)
5(-6.822230144e-08 -8.486713647e-08 -1.025039865e-07 -1.182953917e-07 -1.391333742e-07)
5(-7.272421316e-08 -9.018703218e-08 -1.100700396e-07 -1.259731968e-07 -1.469433293e-07)
5(-7.705443336e-08 -9.588211668e-08 -1.16300134e-07 -1.33526883e-07 -1.530032575e-07)
5(-8.193315971e-08 -1.025468112e-07 -1.234055648e-07 -1.423377434e-07 -1.617265863e-07)
5(-8.795920797e-08 -1.10262869e-07 -1.325171435e-07 -1.531480779e-07 -1.743541229e-07)
5(-9.526262038e-08 -1.192370644e-07 -1.436953455e-07 -1.660128047e-07 -1.901166276e-07)
5(-1.036047853e-07 -1.293618052e-07 -1.564226789e-07 -1.811588327e-07 -2.076714514e-07)
5(-1.130121897e-07 -1.409585978e-07 -1.708426903e-07 -1.985388895e-07 -2.283393559e-07)
5(-1.235564604e-07 -1.543585578e-07 -1.870539425e-07 -2.181566563e-07 -2.506696379e-07)
5(-1.357239669e-07 -1.695101467e-07 -2.055449796e-07 -2.403352246e-07 -2.766292536e-07)
5(-1.494133929e-07 -1.869758121e-07 -2.270649725e-07 -2.647936359e-07 -3.061451088e-07)
5(-1.651230669e-07 -2.069045915e-07 -2.512898346e-07 -2.925772343e-07 -3.391300653e-07)
5(-1.836185777e-07 -2.293599259e-07 -2.790332267e-07 -3.247511255e-07 -3.76795572e-07)
5(-2.046538834e-07 -2.550735034e-07 -3.110393399e-07 -3.617172451e-07 -4.189591461e-07)
5(-2.283177508e-07 -2.845129257e-07 -3.466721889e-07 -4.037789007e-07 -4.649328226e-07)
5(-2.555237557e-07 -3.177023891e-07 -3.865217856e-07 -4.502931986e-07 -5.155510854e-07)
5(-2.868806083e-07 -3.552759461e-07 -4.315271161e-07 -5.004156043e-07 -5.708940726e-07)
5(-3.228592008e-07 -3.977340077e-07 -4.81532221e-07 -5.553411009e-07 -6.321232963e-07)
5(-3.625808905e-07 -4.451419121e-07 -5.363016841e-07 -6.160753946e-07 -6.983743345e-07)
5(-4.076599168e-07 -4.973699335e-07 -5.966280842e-07 -6.815293354e-07 -7.668823192e-07)
5(-4.581742798e-07 -5.552200644e-07 -6.635333152e-07 -7.521377324e-07 -8.399981182e-07)
5(-5.135742019e-07 -6.199582833e-07 -7.359715186e-07 -8.282450456e-07 -9.165422976e-07)
5(-5.758878656e-07 -6.903223322e-07 -8.133962578e-07 -9.088171906e-07 -9.93631423e-07)
5(-6.441352752e-07 -7.656070388e-07 -8.961707065e-07 -9.929134841e-07 -1.073062011e-06)
5(-7.198514325e-07 -8.469810727e-07 -9.846016116e-07 -1.079538909e-06 -1.153594739e-06)
5(-7.990014737e-07 -9.345778723e-07 -1.078516043e-06 -1.168841434e-06 -1.235919359e-06)
5(-8.852316735e-07 -1.028021077e-06 -1.174847501e-06 -1.259690043e-06 -1.318128663e-06)