/*--------------------------------*- C++ -*----------------------------------*\
| =========                 |                                                 |
| \\      /  F ield         | OpenFOAM: The Open Source CFD Toolbox           |
|  \\    /   O peration     | Version:  2.3.1                                 |
|   \\  /    A nd           | Web:      www.OpenFOAM.org                      |
|    \\/     M anipulation  |                                                 |
\*---------------------------------------------------------------------------*/
FoamFile
{
    version     2.0;
    format      ascii;
    class       dictionary;
    location    "constant";
    object      DPSI34;
}
// * * * * * * * * * * * * * * * * * * * * * * * * * * * * * * * * * * * * * //

DPSI34_table
60
(

60
(
5(-3.236937314e-17 -2.833061717e-17 -4.678174925e-17 -3.979155342e-17 -5.34217872e-17)
5(-3.326559855e-17 -4.22947131e-17 -3.95664612e-17 -3.926461785e-17 -3.742195073e-17)
5(8.152085505e-15 -4.971830373e-17 -4.39959637e-17 -4.658419633e-17 -3.512651401e-17)
5(2.469399937e-14 -6.356907139e-17 -5.445316637e-17 -6.252955754e-17 -4.518027783e-17)
5(3.425599013e-14 -8.773357841e-17 -7.801869202e-17 -8.53673419e-17 -6.959275378e-17)
5(3.147615724e-14 -1.238789688e-16 -1.220849537e-16 -1.250117404e-16 -1.113423421e-16)
5(-1.346387567e-16 -1.74470931e-16 -1.726405811e-16 -1.82059561e-16 -1.655784623e-16)
5(-1.96329305e-16 -2.442176996e-16 -2.369230802e-16 -2.58038241e-16 -2.411635353e-16)
5(4.230471428e-14 -3.414180388e-16 -3.265175913e-16 -3.665213398e-16 -3.417066737e-16)
5(7.648335788e-14 -4.25990564e-16 -4.528513084e-16 -5.217645542e-16 -4.938814164e-16)
5(8.78322008e-14 -5.754737362e-16 -6.526196305e-16 -7.411434196e-16 -7.086871912e-16)
5(2.611646495e-14 -9.442756413e-16 -9.479526148e-16 -1.057940861e-15 -1.007892747e-15)
5(-1.035432779e-15 -1.322094462e-15 -1.350875748e-15 -1.488260266e-15 -1.433565829e-15)
5(-1.43842107e-15 -1.843284822e-15 -1.897009887e-15 -2.09038086e-15 -2.002487447e-15)
5(-2.023967342e-15 -2.575143744e-15 -2.656677519e-15 -2.901062772e-15 -2.778809267e-15)
5(-4.614730139e-16 -3.307708239e-15 -3.593024503e-15 -3.981064081e-15 -3.843724549e-15)
5(-1.745074735e-15 -4.692760524e-15 -4.959552634e-15 -5.542111395e-15 -5.343372203e-15)
5(-4.547029147e-15 -6.62896442e-15 -7.083313067e-15 -7.695936695e-15 -7.394945409e-15)
5(-7.524146805e-15 -9.332410961e-15 -9.848048379e-15 -1.07088999e-14 -1.024345863e-14)
5(-1.037796796e-14 -1.298129105e-14 -1.365786127e-14 -1.490752042e-14 -1.439135263e-14)
5(-1.441528036e-14 -1.806304258e-14 -1.91550447e-14 -2.102787983e-14 -2.061707833e-14)
5(-2.004425343e-14 -2.523802777e-14 -2.684177418e-14 -3.017488458e-14 -2.971350152e-14)
5(-2.774540264e-14 -3.545252936e-14 -3.8305798e-14 -4.334692808e-14 -4.333221546e-14)
5(-3.879456449e-14 -5.025719298e-14 -5.548983325e-14 -6.387159751e-14 -6.473258609e-14)
5(-5.478622834e-14 -7.118903829e-14 -8.147660012e-14 -9.573878342e-14 -9.892694003e-14)
5(-7.835966774e-14 -1.023451007e-13 -1.21761579e-13 -1.468223102e-13 -1.553865081e-13)
5(-1.145188967e-13 -1.567224022e-13 -1.883460896e-13 -2.309371008e-13 -2.488972694e-13)
5(-1.704740238e-13 -2.471182257e-13 -2.955243809e-13 -3.704063839e-13 -4.034555877e-13)
5(-2.581912456e-13 -3.865314741e-13 -4.756063766e-13 -6.039241344e-13 -6.620583244e-13)
5(-3.995488688e-13 -6.128388231e-13 -7.731329943e-13 -9.939612768e-13 -1.092102406e-12)
5(-6.300722173e-13 -9.813800469e-13 -1.25600093e-12 -1.615612565e-12 -1.778055779e-12)
5(-1.00594025e-12 -1.586073383e-12 -2.050483865e-12 -2.633514129e-12 -2.89167406e-12)
5(-1.611755436e-12 -2.530786371e-12 -3.286239317e-12 -4.181845167e-12 -4.512003815e-12)
5(-2.562090555e-12 -3.988880393e-12 -5.158258322e-12 -6.510739361e-12 -6.973695385e-12)
5(-4.037276182e-12 -6.225714667e-12 -7.991996183e-12 -9.825613033e-12 -1.033011031e-11)
5(-6.270526315e-12 -9.378293813e-12 -1.18280912e-11 -1.432111368e-11 -1.466880881e-11)
5(-9.542109798e-12 -1.404869464e-11 -1.761159246e-11 -2.028173605e-11 -1.996330132e-11)
5(-1.413026746e-11 -1.999134261e-11 -2.4669637e-11 -2.722209286e-11 -2.62649832e-11)
5(-2.02362551e-11 -2.765669114e-11 -3.292727779e-11 -3.506870588e-11 -3.172178738e-11)
5(-2.778146974e-11 -3.665513008e-11 -4.182902785e-11 -4.246943988e-11 -3.632096668e-11)
5(-3.70084736e-11 -4.668895904e-11 -5.126532064e-11 -4.847193313e-11 -3.763537255e-11)
5(-4.71615865e-11 -5.625788031e-11 -5.871323078e-11 -5.122317723e-11 -3.54796974e-11)
5(-5.692071595e-11 -6.407436594e-11 -6.282797727e-11 -4.974729664e-11 -3.024840347e-11)
5(-6.459253229e-11 -6.712970467e-11 -6.064613728e-11 -4.306956006e-11 -2.313810652e-11)
5(-6.832792764e-11 -6.578031954e-11 -5.478301977e-11 -3.323570444e-11 -1.561583316e-11)
5(-6.728822041e-11 -5.855792725e-11 -4.443086584e-11 -2.260867935e-11 -9.105834648e-12)
5(-6.034447021e-11 -4.725673119e-11 -3.107378092e-11 -1.340669495e-11 -4.510905891e-12)
5(-4.798991441e-11 -3.383023046e-11 -1.871587049e-11 -6.810801023e-12 -1.886932877e-12)
5(-3.43690195e-11 -2.06963365e-11 -9.508413606e-12 -2.909707562e-12 -6.716758692e-13)
5(-2.081716922e-11 -1.053073568e-11 -4.041962448e-12 -1.024726157e-12 -2.109045496e-13)
5(-1.054919816e-11 -4.363476257e-12 -1.375138187e-12 -3.102152964e-13 -5.85351662e-14)
5(-4.15774856e-12 -1.431827986e-12 -3.844684707e-13 -8.117574701e-14 -1.466092206e-14)
5(-1.320017779e-12 -3.678827345e-13 -9.007281083e-14 -1.854072008e-14 -3.268717733e-15)
5(-2.816320948e-13 -6.893041751e-14 -1.639481164e-14 -3.610780356e-15 -6.5015544e-16)
5(-4.134803915e-14 -1.048462228e-14 -2.429116963e-15 -5.730961906e-16 -1.041660447e-16)
5(-3.591256868e-15 -9.704953701e-16 -2.758323671e-16 -6.726988975e-17 -1.340826389e-17)
5(-2.08599501e-16 -7.303623518e-17 -1.64554108e-17 -5.221491045e-18 -9.902805205e-19)
5(-5.99609092e-18 -2.263405054e-18 -5.558670714e-19 -3.837731631e-19 -3.40451916e-20)
5(-2.57516854e-20 2.429296039e-19 -5.764532464e-19 3.144621618e-19 -3.136742045e-22)
5(-1.537925056e-24 -4.770911676e-24 -3.319768757e-15 -1.789202594e-23 -5.981688226e-23)
)


60
(
5(-4.279986406e-17 -3.74576502e-17 -6.625158936e-17 -5.991842214e-17 -7.787378625e-17)
5(-4.701818232e-17 -5.517866406e-17 -5.924128663e-17 -6.09229746e-17 -6.034444982e-17)
5(4.552989346e-15 -7.004311924e-17 -6.667673342e-17 -7.330170913e-17 -6.378975491e-17)
5(1.451810599e-14 -9.348936626e-17 -8.666400517e-17 -9.983617577e-17 -8.190659127e-17)
5(1.904750819e-14 -1.314518053e-16 -1.270635232e-16 -1.418810118e-16 -1.26054403e-16)
5(1.649496134e-14 -1.889665905e-16 -1.965389689e-16 -2.107331574e-16 -2.015204599e-16)
5(-2.114176837e-16 -2.713039753e-16 -2.851379571e-16 -3.092742656e-16 -2.994502383e-16)
5(-3.066567601e-16 -3.870571745e-16 -4.022047852e-16 -4.434710369e-16 -4.373477141e-16)
5(2.167590652e-14 -5.504977993e-16 -5.680437811e-16 -6.327969002e-16 -6.209000197e-16)
5(3.924874395e-14 -7.557205222e-16 -8.036944956e-16 -9.026681671e-16 -8.779615656e-16)
5(4.479526245e-14 -1.06348907e-15 -1.151046227e-15 -1.279144366e-15 -1.244614651e-15)
5(1.260959881e-14 -1.573706574e-15 -1.645707257e-15 -1.802939955e-15 -1.749865974e-15)
5(-1.749168476e-15 -2.204842963e-15 -2.319658737e-15 -2.503494982e-15 -2.422056586e-15)
5(-2.446050964e-15 -3.069246737e-15 -3.226688746e-15 -3.454098142e-15 -3.307429135e-15)
5(-3.431658377e-15 -4.253647747e-15 -4.459757644e-15 -4.712664386e-15 -4.500204806e-15)
5(-3.60329773e-15 -5.726082593e-15 -6.067231764e-15 -6.385482341e-15 -6.078356194e-15)
5(-5.488204123e-15 -7.899654591e-15 -8.267822523e-15 -8.65773133e-15 -8.204284542e-15)
5(-8.606632305e-15 -1.084204146e-14 -1.133928059e-14 -1.170603539e-14 -1.110246905e-14)
5(-1.241020465e-14 -1.479636708e-14 -1.53808354e-14 -1.584353484e-14 -1.502980085e-14)
5(-1.689451651e-14 -2.006293766e-14 -2.082004946e-14 -2.144310855e-14 -2.047349782e-14)
5(-2.302644254e-14 -2.712141148e-14 -2.825871766e-14 -2.919672308e-14 -2.807987331e-14)
5(-3.114323441e-14 -3.665933423e-14 -3.831575872e-14 -4.010629561e-14 -3.917348239e-14)
5(-4.197216316e-14 -4.958688427e-14 -5.227517156e-14 -5.516650583e-14 -5.465851306e-14)
5(-5.689062833e-14 -6.722574123e-14 -7.183288732e-14 -7.699084652e-14 -7.76630755e-14)
5(-7.686601115e-14 -9.11767294e-14 -9.966860312e-14 -1.089717046e-13 -1.122344903e-13)
5(-1.043610023e-13 -1.245999902e-13 -1.401139131e-13 -1.572945102e-13 -1.660980129e-13)
5(-1.430089176e-13 -1.756883776e-13 -2.015391188e-13 -2.31673013e-13 -2.511184431e-13)
5(-1.986814704e-13 -2.529355541e-13 -2.943125179e-13 -3.492989846e-13 -3.867754685e-13)
5(-2.773719406e-13 -3.667951069e-13 -4.414061063e-13 -5.381142395e-13 -6.079710254e-13)
5(-3.975473959e-13 -5.41942725e-13 -6.751839835e-13 -8.447200574e-13 -9.709266525e-13)
5(-5.7687558e-13 -8.159144283e-13 -1.043651151e-12 -1.328422208e-12 -1.536432098e-12)
5(-8.55811676e-13 -1.251387234e-12 -1.637601235e-12 -2.109771822e-12 -2.455637129e-12)
5(-1.291570368e-12 -1.924402652e-12 -2.559618177e-12 -3.30889585e-12 -3.80295544e-12)
5(-1.963400601e-12 -2.957746648e-12 -3.963289041e-12 -5.115054277e-12 -5.885004317e-12)
5(-2.98373473e-12 -4.53503673e-12 -6.084180486e-12 -7.740413711e-12 -8.767369777e-12)
5(-4.52927669e-12 -6.804191561e-12 -9.045262867e-12 -1.140020268e-11 -1.268780242e-11)
5(-6.820673817e-12 -1.015984555e-11 -1.345741808e-11 -1.63774294e-11 -1.768291568e-11)
5(-9.986091929e-12 -1.458977881e-11 -1.908906605e-11 -2.251662549e-11 -2.384488756e-11)
5(-1.437162329e-11 -2.048865318e-11 -2.600840169e-11 -2.983621426e-11 -3.009565538e-11)
5(-1.990610526e-11 -2.766672925e-11 -3.399562545e-11 -3.75672582e-11 -3.642727831e-11)
5(-2.684844234e-11 -3.611959481e-11 -4.297934367e-11 -4.493792496e-11 -4.071729859e-11)
5(-3.499415478e-11 -4.487737995e-11 -5.11796785e-11 -5.051261557e-11 -4.237978414e-11)
5(-4.334928163e-11 -5.306133028e-11 -5.746281061e-11 -5.300147816e-11 -4.077630203e-11)
5(-5.08875489e-11 -5.863256264e-11 -5.947262098e-11 -5.082405099e-11 -3.598392679e-11)
5(-5.633780471e-11 -6.077859097e-11 -5.775991347e-11 -4.455781366e-11 -2.882870354e-11)
5(-5.85308387e-11 -5.813904981e-11 -5.125754128e-11 -3.535247592e-11 -2.06175778e-11)
5(-5.598332101e-11 -5.111844602e-11 -4.06342603e-11 -2.50282836e-11 -1.300312435e-11)
5(-4.867163696e-11 -4.053575992e-11 -2.852048022e-11 -1.560024398e-11 -7.076438833e-12)
5(-3.837624504e-11 -2.828563216e-11 -1.738038392e-11 -8.443189632e-12 -3.287935472e-12)
5(-2.650324485e-11 -1.708451463e-11 -9.050248533e-12 -3.821507966e-12 -1.287278995e-12)
5(-1.571400674e-11 -8.636872351e-12 -3.913791123e-12 -1.458084167e-12 -4.186588354e-13)
5(-7.639285837e-12 -3.521866151e-12 -1.349278237e-12 -4.4528834e-13 -1.193654141e-13)
5(-2.901238212e-12 -1.118425737e-12 -3.658028257e-13 -1.114660993e-13 -2.86250068e-14)
5(-7.91223444e-13 -2.615824191e-13 -7.253877585e-14 -2.150747322e-14 -5.694626583e-15)
5(-1.512283458e-13 -4.287315842e-14 -1.101329048e-14 -3.494709498e-15 -9.855305633e-16)
5(-1.666959218e-14 -4.684215577e-15 -1.11740064e-15 -4.180945359e-16 -1.195771233e-16)
5(-1.066882982e-15 -2.49458782e-16 -7.800489063e-17 -2.953364114e-17 -8.994694636e-18)
5(-2.056147155e-17 2.027869257e-18 -2.47738178e-18 5.088458611e-18 -3.757877703e-19)
5(-1.272785374e-19 1.693321853e-15 -8.05666769e-19 1.103605317e-15 -2.091173155e-21)
5(-2.963366742e-23 -1.194031217e-23 -3.585444445e-15 -4.786295187e-23 -1.169492145e-22)
)


60
(
5(-6.678433993e-17 -6.11908738e-17 -1.139040542e-16 -1.119389181e-16 -1.378796458e-16)
5(-8.005401e-17 -8.970189901e-17 -1.108352877e-16 -1.190800047e-16 -1.195827964e-16)
5(-9.959299647e-17 -1.261190187e-16 -1.305440308e-16 -1.472701967e-16 -1.338642846e-16)
5(-1.324226175e-16 -1.760985819e-16 -1.793435761e-16 -2.034130914e-16 -1.831376579e-16)
5(-1.896785577e-16 -2.522029271e-16 -2.672248961e-16 -2.995240138e-16 -2.8027681e-16)
5(-2.826498322e-16 -3.682974227e-16 -4.04078357e-16 -4.480113193e-16 -4.411790742e-16)
5(-4.147791903e-16 -5.367602954e-16 -5.974981783e-16 -6.611950266e-16 -6.624955127e-16)
5(-5.977194282e-16 -7.785761571e-16 -8.646978382e-16 -9.582558288e-16 -9.554631544e-16)
5(-8.583338779e-16 -1.123638741e-15 -1.237731564e-15 -1.371991119e-15 -1.359787612e-15)
5(-1.241390428e-15 -1.61485876e-15 -1.769482886e-15 -1.950762648e-15 -1.914555798e-15)
5(-1.782859941e-15 -2.304710485e-15 -2.517558529e-15 -2.748545913e-15 -2.684027823e-15)
5(-2.556088871e-15 -3.259262391e-15 -3.554954588e-15 -3.824598996e-15 -3.698646807e-15)
5(-3.633410322e-15 -4.563633188e-15 -4.960822626e-15 -5.246632208e-15 -5.028660165e-15)
5(-5.077618546e-15 -6.327841264e-15 -6.827070173e-15 -7.112412836e-15 -6.767566111e-15)
5(-7.065394129e-15 -8.689045861e-15 -9.295559461e-15 -9.552445787e-15 -8.972368392e-15)
5(-9.767252775e-15 -1.181853262e-14 -1.254979628e-14 -1.274433984e-14 -1.188627696e-14)
5(-1.343178196e-14 -1.598298929e-14 -1.684956591e-14 -1.691896466e-14 -1.569205484e-14)
5(-1.818554309e-14 -2.148615312e-14 -2.251483605e-14 -2.24107919e-14 -2.073130383e-14)
5(-2.474888559e-14 -2.867111319e-14 -2.990930549e-14 -2.964737724e-14 -2.751856728e-14)
5(-3.300506934e-14 -3.809453122e-14 -3.962534821e-14 -3.914217506e-14 -3.644723035e-14)
5(-4.40832078e-14 -5.043361285e-14 -5.229081917e-14 -5.160062343e-14 -4.836230625e-14)
5(-5.916664803e-14 -6.635627646e-14 -6.882743702e-14 -6.805902107e-14 -6.50694506e-14)
5(-7.835520521e-14 -8.703660022e-14 -9.057821425e-14 -8.969256318e-14 -8.660399347e-14)
5(-1.016879894e-13 -1.137975678e-13 -1.190077248e-13 -1.182661892e-13 -1.164356617e-13)
5(-1.332975591e-13 -1.48250484e-13 -1.558352538e-13 -1.564270214e-13 -1.562509358e-13)
5(-1.73318066e-13 -1.921277915e-13 -2.040597996e-13 -2.075532814e-13 -2.123721463e-13)
5(-2.242399766e-13 -2.481246213e-13 -2.677124891e-13 -2.77116077e-13 -2.923256386e-13)
5(-2.882089379e-13 -3.199629288e-13 -3.521537957e-13 -3.733149444e-13 -4.075750736e-13)
5(-3.69639683e-13 -4.129122787e-13 -4.663230607e-13 -5.098485507e-13 -5.775125829e-13)
5(-4.727883669e-13 -5.346196947e-13 -6.248328712e-13 -7.082305528e-13 -8.337606686e-13)
5(-6.023021513e-13 -6.971486272e-13 -8.500394725e-13 -1.004214357e-12 -1.234560768e-12)
5(-7.721090958e-13 -9.208135726e-13 -1.179480217e-12 -1.454404143e-12 -1.850397467e-12)
5(-9.971290392e-13 -1.238344966e-12 -1.669684752e-12 -2.146214739e-12 -2.795343243e-12)
5(-1.301882635e-12 -1.702819979e-12 -2.408282514e-12 -3.195387766e-12 -4.225315526e-12)
5(-1.730887912e-12 -2.390049035e-12 -3.518641909e-12 -4.790953791e-12 -6.394676091e-12)
5(-2.332967634e-12 -3.420969499e-12 -5.176200765e-12 -7.158268559e-12 -9.440614227e-12)
5(-3.208638265e-12 -4.944518175e-12 -7.615299663e-12 -1.056457207e-11 -1.374705355e-11)
5(-4.537287684e-12 -7.189302704e-12 -1.10968365e-11 -1.527811345e-11 -1.944036313e-11)
5(-6.423676972e-12 -1.042098274e-11 -1.591047933e-11 -2.149803149e-11 -2.650690626e-11)
5(-9.091520185e-12 -1.484351678e-11 -2.224848574e-11 -2.923901448e-11 -3.470449997e-11)
5(-1.282459171e-11 -2.076562038e-11 -3.011856777e-11 -3.815629824e-11 -4.313843036e-11)
5(-1.778128292e-11 -2.801027959e-11 -3.902753112e-11 -4.737853182e-11 -5.067231696e-11)
5(-2.40085243e-11 -3.635635919e-11 -4.817505261e-11 -5.5503795e-11 -5.538856384e-11)
5(-3.12075261e-11 -4.500168247e-11 -5.612681057e-11 -6.066094629e-11 -5.607471349e-11)
5(-3.894119814e-11 -5.239885677e-11 -6.114465311e-11 -6.124538759e-11 -5.196653009e-11)
5(-4.589350018e-11 -5.701691332e-11 -6.149853779e-11 -5.642605574e-11 -4.3355138e-11)
5(-5.050684695e-11 -5.74234833e-11 -5.641347766e-11 -4.68895684e-11 -3.226718968e-11)
5(-5.16175853e-11 -5.275789248e-11 -4.65229692e-11 -3.450147336e-11 -2.095641967e-11)
5(-4.80170061e-11 -4.343056798e-11 -3.369123224e-11 -2.213202678e-11 -1.180492301e-11)
5(-4.017344584e-11 -3.145427175e-11 -2.079338121e-11 -1.205443389e-11 -5.611098582e-12)
5(-2.94807079e-11 -1.942669298e-11 -1.08845924e-11 -5.557218065e-12 -2.222208316e-12)
5(-1.844035718e-11 -9.76011823e-12 -4.636944437e-12 -2.039994881e-12 -7.086670702e-13)
5(-9.184327188e-12 -3.917111346e-12 -1.531919799e-12 -6.009531513e-13 -1.894702294e-13)
5(-3.509284177e-12 -1.17352752e-12 -3.671976442e-13 -1.357842218e-13 -4.035348848e-14)
5(-9.899349032e-13 -2.412382829e-13 -6.002794471e-14 -2.213524298e-14 -6.727527404e-15)
5(-1.605722594e-13 -3.010103438e-14 -6.744274715e-15 -2.531170728e-15 -8.96058075e-16)
5(-1.079594903e-14 -2.526196642e-15 -3.954597621e-16 -1.903553752e-16 -6.393307102e-17)
5(-7.132428125e-16 -1.350373175e-16 -1.306253986e-17 -5.589255843e-17 -2.455742196e-18)
5(-8.148723346e-18 -1.086779791e-14 1.099230128e-16 -1.053388134e-14 -2.306941152e-20)
5(-1.823057503e-19 -1.420967338e-21 1.62239896e-15 -1.086980324e-22 -2.092702748e-22)
)


60
(
5(-9.823286143e-17 -9.775760485e-17 -1.808950572e-16 -1.90526348e-16 -2.220208307e-16)
5(-1.279210337e-16 -1.511766263e-16 -1.918493365e-16 -2.135283895e-16 -2.123707067e-16)
5(-1.680864145e-16 -2.187405523e-16 -2.378513161e-16 -2.72732164e-16 -2.515296623e-16)
5(-2.281115192e-16 -3.094879067e-16 -3.335707929e-16 -3.821191942e-16 -3.484305673e-16)
5(-3.289264504e-16 -4.46457691e-16 -4.991292277e-16 -5.629544572e-16 -5.340272574e-16)
5(-4.906443122e-16 -6.566497025e-16 -7.522798775e-16 -8.39986146e-16 -8.311465644e-16)
5(-7.23928336e-16 -9.610908041e-16 -1.113302685e-15 -1.237023351e-15 -1.247356577e-15)
5(-1.051569156e-15 -1.3997167e-15 -1.615706357e-15 -1.792080368e-15 -1.79233817e-15)
5(-1.520428771e-15 -2.020759647e-15 -2.31117712e-15 -2.559419779e-15 -2.539363776e-15)
5(-2.194045159e-15 -2.896330724e-15 -3.289881746e-15 -3.614566655e-15 -3.54738146e-15)
5(-3.152942068e-15 -4.118617822e-15 -4.65112379e-15 -5.044302956e-15 -4.930145184e-15)
5(-4.506673301e-15 -5.792062977e-15 -6.506964855e-15 -6.941925242e-15 -6.704920781e-15)
5(-6.35059902e-15 -8.05979496e-15 -8.975375886e-15 -9.424811899e-15 -9.021103752e-15)
5(-8.921818804e-15 -1.107754641e-14 -1.222237794e-14 -1.263374573e-14 -1.19235516e-14)
5(-1.224436211e-14 -1.50642465e-14 -1.644988084e-14 -1.677522813e-14 -1.569734693e-14)
5(-1.666242402e-14 -2.02748443e-14 -2.195415332e-14 -2.212721762e-14 -2.055289227e-14)
5(-2.275584674e-14 -2.710295824e-14 -2.908884533e-14 -2.905166989e-14 -2.68748867e-14)
5(-3.059306166e-14 -3.599892137e-14 -3.83325305e-14 -3.801588265e-14 -3.499513926e-14)
5(-4.088977497e-14 -4.752336904e-14 -5.031850512e-14 -4.961258498e-14 -4.576302858e-14)
5(-5.434435408e-14 -6.247072259e-14 -6.584897209e-14 -6.469992214e-14 -6.002294494e-14)
5(-7.172667466e-14 -8.171670218e-14 -8.593069207e-14 -8.433048098e-14 -7.880447078e-14)
5(-9.417486182e-14 -1.064389945e-13 -1.118665367e-13 -1.09685334e-13 -1.037275625e-13)
5(-1.229704345e-13 -1.380941103e-13 -1.451676229e-13 -1.424871982e-13 -1.35591017e-13)
5(-1.600658782e-13 -1.78505919e-13 -1.876724222e-13 -1.845261467e-13 -1.791517318e-13)
5(-2.073248167e-13 -2.295340565e-13 -2.416441525e-13 -2.38221549e-13 -2.329514494e-13)
5(-2.651110422e-13 -2.930014887e-13 -3.097163045e-13 -3.061050086e-13 -3.050409845e-13)
5(-3.37727334e-13 -3.698729724e-13 -3.943246764e-13 -3.922361044e-13 -3.982656027e-13)
5(-4.272237716e-13 -4.639936633e-13 -4.985279062e-13 -5.001049417e-13 -5.196157272e-13)
5(-5.373570726e-13 -5.764928145e-13 -6.258502075e-13 -6.370157636e-13 -6.823380498e-13)
5(-6.6144115e-13 -7.092769463e-13 -7.819037711e-13 -8.112527059e-13 -8.990521324e-13)
5(-8.108305264e-13 -8.639515035e-13 -9.757150442e-13 -1.039719226e-12 -1.21701289e-12)
5(-9.798666798e-13 -1.040573818e-12 -1.218035404e-12 -1.353803576e-12 -1.683222731e-12)
5(-1.162934873e-12 -1.251010445e-12 -1.535182847e-12 -1.79703936e-12 -2.350062037e-12)
5(-1.363531753e-12 -1.509565054e-12 -1.972312554e-12 -2.457106443e-12 -3.36326239e-12)
5(-1.597371226e-12 -1.841444262e-12 -2.592961941e-12 -3.451065572e-12 -4.919548914e-12)
5(-1.876778143e-12 -2.306871515e-12 -3.52409787e-12 -4.964105635e-12 -7.200646878e-12)
5(-2.196995026e-12 -3.005476451e-12 -4.951483366e-12 -7.258262678e-12 -1.060352243e-11)
5(-2.712636032e-12 -4.095714666e-12 -7.129227253e-12 -1.068372035e-11 -1.549926134e-11)
5(-3.446881562e-12 -5.824895217e-12 -1.040825598e-11 -1.559578246e-11 -2.206165658e-11)
5(-4.702091197e-12 -8.520659769e-12 -1.510544219e-11 -2.231533625e-11 -3.041897293e-11)
5(-6.742024794e-12 -1.255288758e-11 -2.156693011e-11 -3.096843324e-11 -4.039869863e-11)
5(-9.781351429e-12 -1.820386429e-11 -2.992289112e-11 -4.119772616e-11 -5.092069084e-11)
5(-1.437579456e-11 -2.572347288e-11 -3.980538802e-11 -5.209345715e-11 -6.038013388e-11)
5(-2.066737171e-11 -3.483838196e-11 -5.03239402e-11 -6.198959158e-11 -6.699593907e-11)
5(-2.862052345e-11 -4.478033908e-11 -5.977805233e-11 -6.867720513e-11 -6.868697397e-11)
5(-3.76900683e-11 -5.406685239e-11 -6.626610973e-11 -7.017846727e-11 -6.456611931e-11)
5(-4.689860486e-11 -6.067874664e-11 -6.75757396e-11 -6.558809767e-11 -5.477496794e-11)
5(-5.435998006e-11 -6.292494921e-11 -6.24560909e-11 -5.500840438e-11 -4.13527514e-11)
5(-5.791029316e-11 -5.927760849e-11 -5.167553229e-11 -4.077001556e-11 -2.726103783e-11)
5(-5.630026291e-11 -4.995997146e-11 -3.748413777e-11 -2.63945908e-11 -1.534693172e-11)
5(-4.9102266e-11 -3.680372048e-11 -2.32458713e-11 -1.439857963e-11 -7.297224287e-12)
5(-3.776990928e-11 -2.281549607e-11 -1.193187577e-11 -6.50917106e-12 -2.883062272e-12)
5(-2.474923357e-11 -1.186929436e-11 -4.891977071e-12 -2.289253357e-12 -8.619745315e-13)
5(-1.321690877e-11 -4.877728724e-12 -1.501815027e-12 -6.143341189e-13 -2.194248558e-13)
5(-5.285534769e-12 -1.413119908e-12 -3.26851353e-13 -1.140816014e-13 -3.889149919e-14)
5(-1.726535316e-12 -2.792047919e-13 -4.444992252e-14 -1.455560286e-14 -4.193419913e-15)
5(-3.264543132e-13 -3.138173557e-14 -3.003335708e-15 -1.19255152e-15 -3.809387679e-16)
5(-3.017664664e-14 -2.06900238e-15 -1.296120737e-16 -8.152083112e-17 -1.411951175e-17)
5(-1.943349097e-15 -9.628142199e-15 5.438285559e-18 -6.180548965e-15 -1.204526651e-19)
5(-2.211597941e-15 -8.322076494e-18 -1.328691298e-14 -1.675056397e-22 -2.715553729e-22)
)


60
(
5(-1.371277535e-16 -1.467235764e-16 -2.681578784e-16 -2.977626995e-16 -3.306163337e-16)
5(-1.911159794e-16 -2.345879758e-16 -3.036739366e-16 -3.461687705e-16 -3.408922085e-16)
5(-2.571639598e-16 -3.446013363e-16 -3.905990299e-16 -4.502455309e-16 -4.174102796e-16)
5(-3.558373131e-16 -4.913601708e-16 -5.539985125e-16 -6.346187989e-16 -5.955148211e-16)
5(-5.171534648e-16 -7.09982899e-16 -8.243891841e-16 -9.339986203e-16 -9.078566462e-16)
5(-7.689224559e-16 -1.04304513e-15 -1.23571026e-15 -1.389809978e-15 -1.391124753e-15)
5(-1.137445872e-15 -1.52678173e-15 -1.822299873e-15 -2.03685467e-15 -2.082817816e-15)
5(-1.654221023e-15 -2.222245791e-15 -2.637049622e-15 -2.937347067e-15 -2.970172369e-15)
5(-2.396112756e-15 -3.205987347e-15 -3.76314709e-15 -4.175415495e-15 -4.181042868e-15)
5(-3.441628482e-15 -4.578963318e-15 -5.33145487e-15 -5.857720628e-15 -5.804775649e-15)
5(-4.950425225e-15 -6.472368354e-15 -7.482038788e-15 -8.109143654e-15 -7.977956189e-15)
5(-6.97411666e-15 -9.037282798e-15 -1.036527337e-14 -1.106049727e-14 -1.076163829e-14)
5(-9.802845371e-15 -1.246202801e-14 -1.415455157e-14 -1.48771747e-14 -1.432705281e-14)
5(-1.35569137e-14 -1.696386302e-14 -1.907068921e-14 -1.976270146e-14 -1.874813626e-14)
5(-1.864106758e-14 -2.286187141e-14 -2.541987859e-14 -2.599486238e-14 -2.453456063e-14)
5(-2.522624186e-14 -3.052281939e-14 -3.358095563e-14 -3.392973795e-14 -3.174313503e-14)
5(-3.37894087e-14 -4.039662497e-14 -4.403864213e-14 -4.409040686e-14 -4.125972717e-14)
5(-4.522322544e-14 -5.311413851e-14 -5.743903172e-14 -5.713344581e-14 -5.326967599e-14)
5(-5.950250449e-14 -6.945412177e-14 -7.468336839e-14 -7.395660454e-14 -6.930952186e-14)
5(-7.872751751e-14 -9.038411687e-14 -9.682991256e-14 -9.566251065e-14 -8.989055927e-14)
5(-1.032385826e-13 -1.171729379e-13 -1.252709047e-13 -1.236823244e-13 -1.169548212e-13)
5(-1.328571633e-13 -1.513962233e-13 -1.616608639e-13 -1.596900375e-13 -1.522348821e-13)
5(-1.72638107e-13 -1.949079493e-13 -2.081764283e-13 -2.058037481e-13 -1.981179812e-13)
5(-2.243296789e-13 -2.498272219e-13 -2.670226718e-13 -2.6459723e-13 -2.571434435e-13)
5(-2.8663363e-13 -3.183504643e-13 -3.412162004e-13 -3.386248925e-13 -3.347355836e-13)
5(-3.65380964e-13 -4.033790333e-13 -4.336005458e-13 -4.30425375e-13 -4.280203584e-13)
5(-4.636581085e-13 -5.076128637e-13 -5.459893014e-13 -5.426913739e-13 -5.450633648e-13)
5(-5.823581514e-13 -6.323439744e-13 -6.80858768e-13 -6.775329216e-13 -6.91222822e-13)
5(-7.217340328e-13 -7.770341847e-13 -8.387501558e-13 -8.362324978e-13 -8.695325482e-13)
5(-8.846981456e-13 -9.411493924e-13 -1.019949424e-12 -1.020558807e-12 -1.084707034e-12)
5(-1.074049882e-12 -1.121674103e-12 -1.221609108e-12 -1.232581081e-12 -1.359912877e-12)
5(-1.272932086e-12 -1.309795507e-12 -1.442262435e-12 -1.475454013e-12 -1.707808726e-12)
5(-1.475019521e-12 -1.497204488e-12 -1.680371703e-12 -1.76612284e-12 -2.168251638e-12)
5(-1.662800677e-12 -1.665834459e-12 -1.938760134e-12 -2.146256345e-12 -2.899882594e-12)
5(-1.83110986e-12 -1.810952119e-12 -2.241657605e-12 -2.674631707e-12 -3.853548689e-12)
5(-1.967723457e-12 -1.945885438e-12 -2.654972858e-12 -3.480312854e-12 -5.432283768e-12)
5(-2.022670967e-12 -2.119536174e-12 -3.294780789e-12 -4.794137709e-12 -7.797522812e-12)
5(-2.030996032e-12 -2.409766832e-12 -4.363784996e-12 -6.902457941e-12 -1.142013167e-11)
5(-2.062595764e-12 -2.995116566e-12 -6.151177117e-12 -1.025262043e-11 -1.682149576e-11)
5(-2.316307761e-12 -4.16707611e-12 -9.104920156e-12 -1.533133522e-11 -2.435349519e-11)
5(-2.912276558e-12 -6.345768853e-12 -1.374153526e-11 -2.259718636e-11 -3.393820331e-11)
5(-4.349520931e-12 -1.005645437e-11 -2.056652012e-11 -3.226341314e-11 -4.57854933e-11)
5(-7.044336727e-12 -1.582415137e-11 -2.978769654e-11 -4.405043199e-11 -5.825330769e-11)
5(-1.155542067e-11 -2.400949808e-11 -4.114820296e-11 -5.688694382e-11 -6.984542066e-11)
5(-1.834147733e-11 -3.454692049e-11 -5.355594664e-11 -6.870858691e-11 -7.785429924e-11)
5(-2.758081057e-11 -4.666325677e-11 -6.530982577e-11 -7.692574882e-11 -8.049320549e-11)
5(-3.831400036e-11 -5.860415048e-11 -7.369028463e-11 -7.911444359e-11 -7.580713424e-11)
5(-5.045327539e-11 -6.80737443e-11 -7.591347229e-11 -7.42222398e-11 -6.441188579e-11)
5(-6.089929427e-11 -7.262180674e-11 -7.110672261e-11 -6.238170506e-11 -4.843299838e-11)
5(-6.702666719e-11 -7.037338659e-11 -5.940824851e-11 -4.6081753e-11 -3.16438002e-11)
5(-6.782003217e-11 -6.085640788e-11 -4.320686151e-11 -2.934562173e-11 -1.759099671e-11)
5(-6.144649694e-11 -4.684795426e-11 -2.673824445e-11 -1.57175204e-11 -8.246023876e-12)
5(-4.903269558e-11 -3.00331348e-11 -1.385504216e-11 -6.69615204e-12 -3.021913482e-12)
5(-3.448962622e-11 -1.615790588e-11 -5.523515204e-12 -2.27659874e-12 -8.750605324e-13)
5(-1.949129065e-11 -6.907899702e-12 -1.60244067e-12 -5.42767871e-13 -1.742687916e-13)
5(-9.717596828e-12 -2.173788648e-12 -2.813037427e-13 -8.354312732e-14 -2.427078447e-14)
5(-3.497739343e-12 -5.33025533e-13 -4.089300565e-14 -7.578337414e-15 -1.743898508e-15)
5(-9.834753198e-13 -5.719723917e-14 -2.515591714e-15 -3.277077105e-16 -8.658372417e-17)
5(-2.135815742e-13 5.612023633e-15 -1.821640462e-16 1.038795062e-14 -5.751303933e-19)
5(-2.738026157e-13 -6.983673231e-15 -4.942582647e-14 -3.319741267e-20 -4.142241348e-22)
)


60
(
5(-1.839534204e-16 -2.078745717e-16 -3.76588283e-16 -4.342538908e-16 -4.673819797e-16)
5(-2.694699509e-16 -3.406782247e-16 -4.468088383e-16 -5.204994811e-16 -5.080691877e-16)
5(-3.717510096e-16 -5.069518279e-16 -5.898689101e-16 -6.847297369e-16 -6.411745903e-16)
5(-5.196370791e-16 -7.253990825e-16 -8.430405568e-16 -9.668312202e-16 -9.106676959e-16)
5(-7.596969904e-16 -1.048382552e-15 -1.252255376e-15 -1.417779527e-15 -1.394254753e-15)
5(-1.125319353e-15 -1.538099879e-15 -1.861138122e-15 -2.095428129e-15 -2.125398727e-15)
5(-1.664042974e-15 -2.246608319e-15 -2.728685031e-15 -3.05780716e-15 -3.137671075e-15)
5(-2.428922701e-15 -3.260331393e-15 -3.93480006e-15 -4.393532659e-15 -4.486321377e-15)
5(-3.492124387e-15 -4.693602725e-15 -5.595077804e-15 -6.212341052e-15 -6.269694576e-15)
5(-5.041172587e-15 -6.672464161e-15 -7.880283304e-15 -8.666009741e-15 -8.716396901e-15)
5(-7.152403601e-15 -9.368828718e-15 -1.097566502e-14 -1.190315266e-14 -1.182660425e-14)
5(-1.006030083e-14 -1.297508475e-14 -1.507593791e-14 -1.611374885e-14 -1.586034946e-14)
5(-1.40370754e-14 -1.774022513e-14 -2.041509301e-14 -2.149267633e-14 -2.089102383e-14)
5(-1.927652018e-14 -2.398136361e-14 -2.725423161e-14 -2.831284693e-14 -2.725511187e-14)
5(-2.627346406e-14 -3.206315383e-14 -3.599005291e-14 -3.692914521e-14 -3.52619032e-14)
5(-3.53005846e-14 -4.242474785e-14 -4.710129228e-14 -4.77932824e-14 -4.543559489e-14)
5(-4.695175123e-14 -5.564855635e-14 -6.127752613e-14 -6.158618427e-14 -5.84277763e-14)
5(-6.179820896e-14 -7.253498419e-14 -7.928398723e-14 -7.919240172e-14 -7.532666326e-14)
5(-8.169967674e-14 -9.410817406e-14 -1.022417453e-13 -1.017768231e-13 -9.66771126e-14)
5(-1.059138181e-13 -1.214556968e-13 -1.313975888e-13 -1.306819719e-13 -1.25294828e-13)
5(-1.376386379e-13 -1.562189789e-13 -1.686448286e-13 -1.677880516e-13 -1.609034107e-13)
5(-1.784399085e-13 -2.004829202e-13 -2.162510069e-13 -2.152802593e-13 -2.085998569e-13)
5(-2.278587863e-13 -2.565079918e-13 -2.768284028e-13 -2.75893466e-13 -2.69703485e-13)
5(-2.943761765e-13 -3.268981619e-13 -3.534066973e-13 -3.528799893e-13 -3.47199145e-13)
5(-3.737597498e-13 -4.149077255e-13 -4.495028947e-13 -4.496102774e-13 -4.475412835e-13)
5(-4.735847456e-13 -5.232287473e-13 -5.680006894e-13 -5.695108147e-13 -5.689940129e-13)
5(-6.020710412e-13 -6.574397087e-13 -7.128538652e-13 -7.14862828e-13 -7.234722995e-13)
5(-7.550482896e-13 -8.18023145e-13 -8.870458099e-13 -8.869694097e-13 -9.038639005e-13)
5(-9.243002176e-13 -1.005036965e-12 -1.088046528e-12 -1.085250415e-12 -1.112588547e-12)
5(-1.139412949e-12 -1.217514191e-12 -1.314444705e-12 -1.307770245e-12 -1.356408011e-12)
5(-1.374918018e-12 -1.451211404e-12 -1.558893695e-12 -1.542632833e-12 -1.643342101e-12)
5(-1.632338189e-12 -1.694634923e-12 -1.810240172e-12 -1.780245289e-12 -1.936848231e-12)
5(-1.886680971e-12 -1.925055875e-12 -2.047724975e-12 -2.014798773e-12 -2.277845861e-12)