/*--------------------------------*- C++ -*----------------------------------*\
| =========                 |                                                 |
| \\      /  F ield         | OpenFOAM: The Open Source CFD Toolbox           |
|  \\    /   O peration     | Version:  2.3.1                                 |
|   \\  /    A nd           | Web:      www.OpenFOAM.org                      |
|    \\/     M anipulation  |                                                 |
\*---------------------------------------------------------------------------*/
FoamFile
{
    version     2.0;
    format      ascii;
    class       dictionary;
    location    "constant";
    object      DPSI32;
}
// * * * * * * * * * * * * * * * * * * * * * * * * * * * * * * * * * * * * * //

DPSI32_table
60
(

60
(
5(-3.225305319e-10 -2.155072908e-10 -3.29376036e-10 -2.658556363e-10 -3.336503959e-10)
5(-3.14544391e-10 -3.079192607e-10 -2.803402825e-10 -2.650505212e-10 -2.663703374e-10)
5(-3.759391883e-10 -3.295258723e-10 -2.83741549e-10 -2.912212711e-10 -2.61860693e-10)
5(-3.913559765e-10 -3.648590627e-10 -3.035261334e-10 -3.373009163e-10 -2.723218457e-10)
5(-4.659590978e-10 -4.197099579e-10 -3.63957701e-10 -3.656978155e-10 -3.335054733e-10)
5(-4.703201911e-10 -4.780374609e-10 -4.607693249e-10 -4.156866939e-10 -3.999489408e-10)
5(-5.67827644e-10 -5.288705354e-10 -5.071595646e-10 -4.643241041e-10 -4.291746209e-10)
5(-6.512965591e-10 -5.734513197e-10 -5.25887823e-10 -4.916364295e-10 -4.826715762e-10)
5(-5.97187358e-10 -6.164160706e-10 -5.646123038e-10 -5.229283048e-10 -5.012871885e-10)
5(-6.000692069e-10 -6.569007147e-10 -5.899644328e-10 -5.601789777e-10 -5.327223921e-10)
5(-6.389772813e-10 -7.015895028e-10 -6.336830213e-10 -5.960587498e-10 -5.671839287e-10)
5(-7.763915973e-10 -7.511593678e-10 -6.862896068e-10 -6.344163425e-10 -6.057689174e-10)
5(-9.08978926e-10 -7.974679412e-10 -7.336757713e-10 -6.690092054e-10 -6.404182277e-10)
5(-9.576708493e-10 -8.448597847e-10 -7.768501912e-10 -7.102986817e-10 -6.758494027e-10)
5(-1.026226209e-09 -8.9830512e-10 -8.245850996e-10 -7.441891308e-10 -7.097709132e-10)
5(-1.06980594e-09 -9.418719986e-10 -8.643545964e-10 -7.800372212e-10 -7.427068993e-10)
5(-1.133722626e-09 -9.91253442e-10 -9.064289505e-10 -8.160424916e-10 -7.744780136e-10)
5(-1.202669641e-09 -1.041156985e-09 -9.516961889e-10 -8.514967227e-10 -8.07633959e-10)
5(-1.269262517e-09 -1.093075727e-09 -9.959283129e-10 -8.901850782e-10 -8.408253902e-10)
5(-1.327494949e-09 -1.138965131e-09 -1.037158918e-09 -9.236774712e-10 -8.740031819e-10)
5(-1.390600667e-09 -1.191569487e-09 -1.084803848e-09 -9.642465556e-10 -9.117811762e-10)
5(-1.453282317e-09 -1.239903157e-09 -1.126841423e-09 -1.011924586e-09 -9.540029557e-10)
5(-1.509056109e-09 -1.286184159e-09 -1.172415216e-09 -1.04534235e-09 -9.88338445e-10)
5(-1.561493203e-09 -1.327318775e-09 -1.216682179e-09 -1.090538893e-09 -1.03523523e-09)
5(-1.613039003e-09 -1.369606849e-09 -1.261628971e-09 -1.135977246e-09 -1.085177287e-09)
5(-1.659696028e-09 -1.409021753e-09 -1.302052387e-09 -1.186015868e-09 -1.148425981e-09)
5(-1.704198287e-09 -1.461931153e-09 -1.362966022e-09 -1.249126725e-09 -1.22531149e-09)
5(-1.752350201e-09 -1.519295824e-09 -1.421379558e-09 -1.327526247e-09 -1.323298382e-09)
5(-1.785278319e-09 -1.565842106e-09 -1.50003063e-09 -1.429858778e-09 -1.440540053e-09)
5(-1.820552287e-09 -1.617652378e-09 -1.591866422e-09 -1.563471212e-09 -1.596124938e-09)
5(-1.849955044e-09 -1.678933193e-09 -1.691506208e-09 -1.706009846e-09 -1.77940681e-09)
5(-1.88576639e-09 -1.763986401e-09 -1.839872514e-09 -1.9181462e-09 -2.045074847e-09)
5(-1.928086244e-09 -1.855422929e-09 -1.998912203e-09 -2.150744747e-09 -2.284171626e-09)
5(-1.966757945e-09 -1.962439653e-09 -2.180024758e-09 -2.441218199e-09 -2.666210034e-09)
5(-2.014968236e-09 -2.113063895e-09 -2.43081449e-09 -2.773014547e-09 -3.052311381e-09)
5(-2.078286702e-09 -2.253099018e-09 -2.638358071e-09 -3.141316375e-09 -3.459916479e-09)
5(-2.166388492e-09 -2.523512348e-09 -3.10362405e-09 -3.627228764e-09 -3.877446985e-09)
5(-2.283086184e-09 -2.737469176e-09 -3.486140457e-09 -4.042031948e-09 -4.491356185e-09)
5(-2.417376039e-09 -3.046963601e-09 -3.842675742e-09 -4.524535722e-09 -4.62866759e-09)
5(-2.554574816e-09 -3.360110948e-09 -4.146726968e-09 -4.857455396e-09 -5.112402567e-09)
5(-2.776907693e-09 -3.774947165e-09 -4.6430745e-09 -5.115083258e-09 -4.892920971e-09)
5(-3.05735925e-09 -4.116452088e-09 -4.939993029e-09 -5.189246254e-09 -4.40422333e-09)
5(-3.301438311e-09 -4.449370858e-09 -5.104526043e-09 -5.142297714e-09 -3.686751253e-09)
5(-3.476627187e-09 -4.427931425e-09 -4.52323879e-09 -4.334107704e-09 -2.828760422e-09)
5(-3.526635641e-09 -4.305945468e-09 -4.152060478e-09 -3.358851672e-09 -1.988871513e-09)
5(-3.486036226e-09 -3.826887149e-09 -3.520885846e-09 -2.362368611e-09 -1.240104712e-09)
5(-3.191507397e-09 -3.216665247e-09 -2.588833115e-09 -1.486731634e-09 -6.746565322e-10)
5(-2.505009186e-09 -2.496576034e-09 -1.664719399e-09 -8.266508607e-10 -3.15913442e-10)
5(-1.992626367e-09 -1.58994189e-09 -9.249515395e-10 -3.955611526e-10 -1.267118596e-10)
5(-1.309833304e-09 -8.900954379e-10 -4.398423706e-10 -1.595517102e-10 -4.388072908e-11)
5(-7.203171249e-10 -4.113123751e-10 -1.730118356e-10 -5.469704753e-11 -1.292742626e-11)
5(-3.308273942e-10 -1.558800415e-10 -5.620840848e-11 -1.574247643e-11 -3.271545786e-12)
5(-1.243615408e-10 -4.73557112e-11 -1.50382457e-11 -3.755468094e-12 -6.995381425e-13)
5(-3.218169326e-11 -1.067031665e-11 -3.026844241e-12 -7.274390009e-13 -1.307524013e-13)
5(-5.915243927e-12 -1.87050493e-12 -4.646664037e-13 -1.09906632e-13 -1.927925175e-14)
5(-6.542569781e-13 -1.891780738e-13 -5.188975703e-14 -1.201840366e-14 -2.24502319e-15)
5(-4.406516671e-14 -1.447509102e-14 -2.945487074e-15 -8.602431107e-16 -1.485789693e-16)
5(-1.339053024e-15 -4.352074691e-16 -9.367337204e-17 -2.60006666e-17 -4.56033247e-18)
5(-5.794770085e-18 -2.130854734e-18 -2.946014377e-17 4.120748823e-18 -2.903605137e-20)
5(-4.124928478e-23 -1.018489654e-22 -7.408148442e-14 -1.025037141e-22 -5.322901288e-22)
)


60
(
5(-4.257806491e-10 -2.959554805e-10 -4.429225728e-10 -3.715676149e-10 -4.465409821e-10)
5(-4.616687186e-10 -4.211167715e-10 -4.060016778e-10 -3.801111376e-10 -3.770829132e-10)
5(-5.429517973e-10 -4.833900211e-10 -4.220826955e-10 -4.16714632e-10 -3.897405841e-10)
5(-6.102593402e-10 -5.49268294e-10 -4.693952368e-10 -4.779137659e-10 -4.041365308e-10)
5(-7.014327635e-10 -6.298492927e-10 -5.560481266e-10 -5.311927294e-10 -4.837264334e-10)
5(-7.675595682e-10 -7.166118153e-10 -6.741739483e-10 -6.022996923e-10 -5.740976762e-10)
5(-8.860406708e-10 -7.986612024e-10 -7.475079006e-10 -6.710324075e-10 -6.254749804e-10)
5(-9.95536492e-10 -8.736923361e-10 -7.973855755e-10 -7.215032228e-10 -6.920618824e-10)
5(-1.018329915e-09 -9.458801338e-10 -8.586531901e-10 -7.725611668e-10 -7.301532171e-10)
5(-1.086799041e-09 -1.020115309e-09 -9.153585671e-10 -8.304793299e-10 -7.735574613e-10)
5(-1.173623524e-09 -1.100338023e-09 -9.850799711e-10 -8.886643233e-10 -8.272184426e-10)
5(-1.319856401e-09 -1.184038026e-09 -1.064349778e-09 -9.492773206e-10 -8.85629397e-10)
5(-1.456195152e-09 -1.264046377e-09 -1.139757982e-09 -1.006317694e-09 -9.374297346e-10)
5(-1.552507761e-09 -1.344398153e-09 -1.211078946e-09 -1.06813787e-09 -9.892576476e-10)
5(-1.658842015e-09 -1.4299186e-09 -1.283634249e-09 -1.123899186e-09 -1.038484673e-09)
5(-1.762346316e-09 -1.511692768e-09 -1.353676232e-09 -1.180062719e-09 -1.087011366e-09)
5(-1.861043619e-09 -1.597662384e-09 -1.42382081e-09 -1.233980671e-09 -1.131312649e-09)
5(-1.969945616e-09 -1.681316084e-09 -1.494861156e-09 -1.286079314e-09 -1.179216104e-09)
5(-2.078837863e-09 -1.761952657e-09 -1.56098293e-09 -1.339363621e-09 -1.222908973e-09)
5(-2.178267498e-09 -1.838130299e-09 -1.624137997e-09 -1.38716454e-09 -1.263655317e-09)
5(-2.288987363e-09 -1.91462153e-09 -1.68762123e-09 -1.435630658e-09 -1.299340861e-09)
5(-2.374276727e-09 -1.983456841e-09 -1.743535413e-09 -1.484747751e-09 -1.340040021e-09)
5(-2.464101144e-09 -2.045512794e-09 -1.79361867e-09 -1.518023648e-09 -1.370669233e-09)
5(-2.544190663e-09 -2.099444416e-09 -1.837427097e-09 -1.553063922e-09 -1.403056949e-09)
5(-2.618957733e-09 -2.146957072e-09 -1.874922156e-09 -1.584474884e-09 -1.433772099e-09)
5(-2.673083733e-09 -2.1844774e-09 -1.905623723e-09 -1.612497655e-09 -1.471999263e-09)
5(-2.718669883e-09 -2.219628279e-09 -1.93867797e-09 -1.643455759e-09 -1.509474999e-09)
5(-2.761893665e-09 -2.243291032e-09 -1.95945189e-09 -1.676018525e-09 -1.561012639e-09)
5(-2.762756817e-09 -2.253183269e-09 -1.983843308e-09 -1.718605768e-09 -1.619808583e-09)
5(-2.763736506e-09 -2.25245239e-09 -2.005688098e-09 -1.774080737e-09 -1.704017268e-09)
5(-2.738213232e-09 -2.24188704e-09 -2.026174808e-09 -1.834302607e-09 -1.804500444e-09)
5(-2.702859781e-09 -2.237201368e-09 -2.069442388e-09 -1.933288716e-09 -1.956096241e-09)
5(-2.651062542e-09 -2.229640807e-09 -2.115664783e-09 -2.046597888e-09 -2.101957342e-09)
5(-2.585004929e-09 -2.220407982e-09 -2.173393312e-09 -2.196668084e-09 -2.33408638e-09)
5(-2.510454585e-09 -2.23216895e-09 -2.272753294e-09 -2.37860101e-09 -2.579615638e-09)
5(-2.449060702e-09 -2.240965081e-09 -2.357040468e-09 -2.59078294e-09 -2.849422141e-09)
5(-2.37426617e-09 -2.323260253e-09 -2.585039251e-09 -2.87712693e-09 -3.138363367e-09)
5(-2.327263605e-09 -2.385908333e-09 -2.784817047e-09 -3.14097138e-09 -3.538038981e-09)
5(-2.295821084e-09 -2.512724901e-09 -2.986956054e-09 -3.451906748e-09 -3.693259091e-09)
5(-2.281026879e-09 -2.660183713e-09 -3.177605057e-09 -3.695005093e-09 -4.036726022e-09)
5(-2.33737042e-09 -2.882305577e-09 -3.480688257e-09 -3.899273702e-09 -3.991834031e-09)
5(-2.440663953e-09 -3.080818066e-09 -3.682642172e-09 -4.001011489e-09 -3.773330715e-09)
5(-2.55820458e-09 -3.285338678e-09 -3.807031853e-09 -4.015185643e-09 -3.383153435e-09)
5(-2.654177841e-09 -3.309682468e-09 -3.52506836e-09 -3.57965913e-09 -2.84207193e-09)
5(-2.700755754e-09 -3.257298908e-09 -3.306614842e-09 -2.992482122e-09 -2.235353395e-09)
5(-2.689194393e-09 -2.982657024e-09 -2.897552782e-09 -2.321978247e-09 -1.607234602e-09)
5(-2.516099818e-09 -2.591846063e-09 -2.278420497e-09 -1.648515128e-09 -1.045678826e-09)
5(-2.102146468e-09 -2.088570973e-09 -1.607441959e-09 -1.059302847e-09 -6.040520187e-10)
5(-1.719672702e-09 -1.446096526e-09 -1.006542656e-09 -6.042520629e-10 -3.053501591e-10)
5(-1.212398295e-09 -8.972613341e-10 -5.526696378e-10 -2.981926893e-10 -1.32694087e-10)
5(-7.369145328e-10 -4.74283239e-10 -2.592195501e-10 -1.263083243e-10 -4.848466566e-11)
5(-3.813452073e-10 -2.093270078e-10 -1.003530733e-10 -4.382213883e-11 -1.514787641e-11)
5(-1.578520494e-10 -7.469173004e-11 -3.128545658e-11 -1.243085525e-11 -3.88308157e-12)
5(-4.791525748e-11 -2.020013673e-11 -7.290961816e-12 -2.678996669e-12 -7.867162824e-13)
5(-1.057957146e-11 -3.938441863e-12 -1.273993701e-12 -4.570306524e-13 -1.317209748e-13)
5(-1.404321594e-12 -5.156725334e-13 -1.428512513e-13 -5.456647169e-14 -1.497168876e-14)
5(-1.095171722e-13 -3.197217409e-14 -1.03197385e-14 -3.696991707e-15 -1.036918262e-15)
5(-2.633160959e-15 -7.224154543e-16 -3.192945816e-16 -1.169468863e-16 -3.974922308e-17)
5(-1.928546987e-17 7.315020246e-15 -3.75494905e-17 5.373361317e-15 -1.896520399e-19)
5(-3.366112401e-21 -1.958358787e-22 -8.000884034e-14 -5.008512814e-22 -1.190731018e-21)
)


60
(
5(-6.452460165e-10 -4.783105532e-10 -6.957264695e-10 -6.175455643e-10 -7.047479634e-10)
5(-7.802910742e-10 -6.793616041e-10 -6.979415497e-10 -6.573137047e-10 -6.41312368e-10)
5(-9.006794979e-10 -8.47348631e-10 -7.583317931e-10 -7.283887116e-10 -6.587767492e-10)
5(-1.036410725e-09 -9.89710142e-10 -8.763733179e-10 -8.297890754e-10 -7.395128766e-10)
5(-1.214202882e-09 -1.136127059e-09 -1.032908413e-09 -9.528934216e-10 -8.671397499e-10)
5(-1.422631544e-09 -1.293435854e-09 -1.197605177e-09 -1.080499208e-09 -1.009215029e-09)
5(-1.614848404e-09 -1.445251994e-09 -1.341421927e-09 -1.201456228e-09 -1.126348568e-09)
5(-1.785393964e-09 -1.596140113e-09 -1.469314681e-09 -1.313732945e-09 -1.22139663e-09)
5(-1.958215372e-09 -1.748221405e-09 -1.591556779e-09 -1.421028254e-09 -1.31322691e-09)
5(-2.143817323e-09 -1.903107238e-09 -1.723733242e-09 -1.533939348e-09 -1.407567071e-09)
5(-2.328101043e-09 -2.065426693e-09 -1.865791052e-09 -1.653685232e-09 -1.515599861e-09)
5(-2.533903343e-09 -2.229260271e-09 -2.015179655e-09 -1.775637464e-09 -1.621935971e-09)
5(-2.740983628e-09 -2.396871558e-09 -2.164342467e-09 -1.893349411e-09 -1.72284667e-09)
5(-2.939913714e-09 -2.565706777e-09 -2.308881815e-09 -2.00949991e-09 -1.828687065e-09)
5(-3.137253236e-09 -2.736090117e-09 -2.449673572e-09 -2.125283554e-09 -1.916715261e-09)
5(-3.347215295e-09 -2.904311444e-09 -2.590090175e-09 -2.237728382e-09 -2.010133348e-09)
5(-3.563793195e-09 -3.071903373e-09 -2.731235252e-09 -2.344359941e-09 -2.096203073e-09)
5(-3.761552017e-09 -3.238117756e-09 -2.870253343e-09 -2.448496301e-09 -2.177646401e-09)
5(-3.979516759e-09 -3.395925278e-09 -3.000864978e-09 -2.547064893e-09 -2.257503686e-09)
5(-4.174089951e-09 -3.550776071e-09 -3.124462062e-09 -2.636974767e-09 -2.321088408e-09)
5(-4.367370568e-09 -3.696636649e-09 -3.232727843e-09 -2.713063274e-09 -2.374712177e-09)
5(-4.559522102e-09 -3.823827182e-09 -3.329814432e-09 -2.778020986e-09 -2.427362857e-09)
5(-4.730090836e-09 -3.939038337e-09 -3.413537763e-09 -2.823658219e-09 -2.461009401e-09)
5(-4.862972126e-09 -4.037796531e-09 -3.481254809e-09 -2.853681053e-09 -2.482484181e-09)
5(-4.984177633e-09 -4.112080585e-09 -3.519701978e-09 -2.870402079e-09 -2.475452019e-09)
5(-5.086349267e-09 -4.155507943e-09 -3.535592537e-09 -2.87051511e-09 -2.471919143e-09)
5(-5.15031826e-09 -4.170652616e-09 -3.526951248e-09 -2.850826891e-09 -2.45702167e-09)
5(-5.182930092e-09 -4.154204043e-09 -3.492853886e-09 -2.813932237e-09 -2.418220098e-09)
5(-5.160298115e-09 -4.103502375e-09 -3.430315665e-09 -2.760165322e-09 -2.394617524e-09)
5(-5.096238104e-09 -4.017682757e-09 -3.341158316e-09 -2.689436459e-09 -2.341321236e-09)
5(-4.988969478e-09 -3.897013403e-09 -3.232675321e-09 -2.611441375e-09 -2.309956493e-09)
5(-4.828827114e-09 -3.745191211e-09 -3.106729582e-09 -2.53057796e-09 -2.272765986e-09)
5(-4.615641957e-09 -3.563344512e-09 -2.96222866e-09 -2.449648772e-09 -2.258440084e-09)
5(-4.369467893e-09 -3.356112803e-09 -2.810134598e-09 -2.378780818e-09 -2.257248021e-09)
5(-4.070069005e-09 -3.135965501e-09 -2.661327714e-09 -2.322678094e-09 -2.28936621e-09)
5(-3.750585471e-09 -2.905845105e-09 -2.525869881e-09 -2.287765892e-09 -2.343356674e-09)
5(-3.412859756e-09 -2.685910667e-09 -2.411443172e-09 -2.284299279e-09 -2.432060185e-09)
5(-3.066434885e-09 -2.483426956e-09 -2.326196776e-09 -2.316018601e-09 -2.550968883e-09)
5(-2.744849131e-09 -2.313009569e-09 -2.277520318e-09 -2.382146783e-09 -2.689210517e-09)
5(-2.446642009e-09 -2.186758702e-09 -2.269536824e-09 -2.479489911e-09 -2.836266513e-09)
5(-2.193262213e-09 -2.111595818e-09 -2.304457229e-09 -2.593677412e-09 -2.96453333e-09)
5(-2.022138394e-09 -2.086259787e-09 -2.363291289e-09 -2.698925875e-09 -3.048732985e-09)
5(-1.914680196e-09 -2.10672722e-09 -2.425529352e-09 -2.765163213e-09 -3.036031861e-09)
5(-1.878332607e-09 -2.150678954e-09 -2.457825356e-09 -2.749330209e-09 -2.893444984e-09)
5(-1.891460074e-09 -2.174880234e-09 -2.421441801e-09 -2.617309823e-09 -2.600469415e-09)
5(-1.919968108e-09 -2.143050401e-09 -2.281976465e-09 -2.346372162e-09 -2.166907495e-09)
5(-1.911667464e-09 -2.020359069e-09 -2.022973359e-09 -1.948545881e-09 -1.651913854e-09)
5(-1.832222365e-09 -1.789242739e-09 -1.658635698e-09 -1.47001415e-09 -1.125454726e-09)
5(-1.641850364e-09 -1.456353345e-09 -1.226720311e-09 -9.894115156e-10 -6.769599147e-10)
5(-1.351823201e-09 -1.067495202e-09 -7.958089354e-10 -5.799547383e-10 -3.50547141e-10)
5(-9.964397703e-10 -6.833382558e-10 -4.468171397e-10 -2.916928924e-10 -1.539097052e-10)
5(-6.372746107e-10 -3.662021454e-10 -2.091120716e-10 -1.201921418e-10 -5.56700998e-11)
5(-3.305932773e-10 -1.597516251e-10 -7.762754996e-11 -4.03843622e-11 -1.66195364e-11)
5(-1.349012898e-10 -5.342410329e-11 -2.160948307e-11 -1.047644916e-11 -3.904991746e-12)
5(-4.132783849e-11 -1.258760194e-11 -4.195394664e-12 -1.953962983e-12 -6.863644705e-13)
5(-7.618449289e-12 -1.857649879e-12 -5.565327491e-13 -2.45523693e-13 -9.118719992e-14)
5(-6.129923107e-13 -1.762511617e-13 -3.714462527e-14 -1.905109805e-14 -6.207752523e-15)
5(-4.50220976e-14 -7.592413829e-15 -1.352138973e-15 -9.300040065e-16 -2.221080464e-16)
5(-6.205054559e-16 -3.928642686e-14 5.017162389e-16 -4.305639911e-14 -1.914858356e-18)
5(-1.438151995e-17 -1.683186696e-12 3.62003453e-14 -2.797715956e-14 -1.913420063e-21)
)


60
(
5(-8.998416473e-10 -7.149223843e-10 -1.005630467e-09 -9.41615897e-10 -1.036924475e-09)
5(-1.173958953e-09 -1.060318577e-09 -1.089781234e-09 -1.052939054e-09 -1.018159043e-09)
5(-1.411965541e-09 -1.348322538e-09 -1.235650603e-09 -1.198526709e-09 -1.089608277e-09)
5(-1.643947253e-09 -1.589768122e-09 -1.446582183e-09 -1.380214587e-09 -1.236867628e-09)
5(-1.929433459e-09 -1.831659446e-09 -1.70328687e-09 -1.588010254e-09 -1.449688125e-09)
5(-2.249162715e-09 -2.087164782e-09 -1.965243024e-09 -1.802671974e-09 -1.680577643e-09)
5(-2.555717323e-09 -2.33784093e-09 -2.204649301e-09 -2.007110046e-09 -1.880546699e-09)
5(-2.836954944e-09 -2.589996291e-09 -2.424536502e-09 -2.199163858e-09 -2.0445333e-09)
5(-3.12148925e-09 -2.845435684e-09 -2.638386273e-09 -2.390379688e-09 -2.204913086e-09)
5(-3.420916284e-09 -3.109984934e-09 -2.863562515e-09 -2.587664829e-09 -2.379601264e-09)
5(-3.72334823e-09 -3.376548864e-09 -3.103714529e-09 -2.792410215e-09 -2.562495572e-09)
5(-4.04911403e-09 -3.651914422e-09 -3.351881706e-09 -2.997515706e-09 -2.743511141e-09)
5(-4.378362984e-09 -3.93351189e-09 -3.599670787e-09 -3.202886279e-09 -2.92527218e-09)
5(-4.732164616e-09 -4.212792815e-09 -3.846914794e-09 -3.405035111e-09 -3.092798332e-09)
5(-5.046769447e-09 -4.492932111e-09 -4.092400304e-09 -3.603948318e-09 -3.26332091e-09)
5(-5.368347364e-09 -4.771995863e-09 -4.337588746e-09 -3.797693316e-09 -3.425899509e-09)
5(-5.722047569e-09 -5.052123875e-09 -4.572080448e-09 -3.989740125e-09 -3.575600279e-09)
5(-6.060670827e-09 -5.326107329e-09 -4.798852774e-09 -4.174298439e-09 -3.716948649e-09)
5(-6.392950511e-09 -5.592725372e-09 -5.022585262e-09 -4.33802276e-09 -3.844818242e-09)
5(-6.724471033e-09 -5.852345111e-09 -5.228355447e-09 -4.488485962e-09 -3.964057742e-09)
5(-7.030393734e-09 -6.096415672e-09 -5.414199299e-09 -4.620490361e-09 -4.056497919e-09)
5(-7.326379627e-09 -6.318219389e-09 -5.580748109e-09 -4.731769551e-09 -4.142531163e-09)
5(-7.605534447e-09 -6.517459621e-09 -5.725589255e-09 -4.820132814e-09 -4.189831069e-09)
5(-7.860863146e-09 -6.682868242e-09 -5.834040667e-09 -4.877638241e-09 -4.213277292e-09)
5(-8.051631984e-09 -6.810709281e-09 -5.902025159e-09 -4.899918174e-09 -4.206438623e-09)
5(-8.226157964e-09 -6.898808881e-09 -5.931595819e-09 -4.890340177e-09 -4.179047595e-09)
5(-8.32030933e-09 -6.924720004e-09 -5.917792586e-09 -4.844066087e-09 -4.109538281e-09)
5(-8.367735695e-09 -6.906138037e-09 -5.856831706e-09 -4.762142206e-09 -4.014433044e-09)
5(-8.354604995e-09 -6.833110915e-09 -5.741432327e-09 -4.636362633e-09 -3.901528477e-09)
5(-8.280406048e-09 -6.69196422e-09 -5.579586161e-09 -4.476902245e-09 -3.763980864e-09)
5(-8.105347491e-09 -6.485393141e-09 -5.371911265e-09 -4.285678433e-09 -3.608834961e-09)
5(-7.83577515e-09 -6.219898904e-09 -5.117075413e-09 -4.069306592e-09 -3.453652354e-09)
5(-7.499772923e-09 -5.893464759e-09 -4.819155578e-09 -3.833747972e-09 -3.270181136e-09)
5(-7.085523568e-09 -5.52515579e-09 -4.489065795e-09 -3.591614453e-09 -3.109734763e-09)
5(-6.612558397e-09 -5.105011975e-09 -4.14385008e-09 -3.350966645e-09 -2.967129264e-09)
5(-6.056590465e-09 -4.651022488e-09 -3.793761008e-09 -3.125855829e-09 -2.854951592e-09)
5(-5.460144328e-09 -4.196204798e-09 -3.454763935e-09 -2.930452098e-09 -2.781594677e-09)
5(-4.839929556e-09 -3.743108392e-09 -3.144980645e-09 -2.773469266e-09 -2.758213912e-09)
5(-4.216886735e-09 -3.30943359e-09 -2.880314594e-09 -2.66821185e-09 -2.777020081e-09)
5(-3.627292372e-09 -2.935355319e-09 -2.675894095e-09 -2.621281999e-09 -2.837533485e-09)
5(-3.099515861e-09 -2.6321026e-09 -2.540361272e-09 -2.628007509e-09 -2.919639855e-09)
5(-2.664536253e-09 -2.418467089e-09 -2.473601222e-09 -2.672946258e-09 -3.014220699e-09)
5(-2.337345041e-09 -2.297504368e-09 -2.463220375e-09 -2.728969584e-09 -3.058886652e-09)
5(-2.147310659e-09 -2.250814719e-09 -2.480253666e-09 -2.757891124e-09 -3.026267381e-09)
5(-2.062112525e-09 -2.257916134e-09 -2.476443536e-09 -2.711555856e-09 -2.866866658e-09)
5(-2.068732258e-09 -2.275500278e-09 -2.422569688e-09 -2.553431371e-09 -2.568726683e-09)
5(-2.11775329e-09 -2.24297682e-09 -2.265405915e-09 -2.269397786e-09 -2.136898681e-09)
5(-2.142853428e-09 -2.126434167e-09 -1.983913678e-09 -1.864864226e-09 -1.625728346e-09)
5(-2.082010582e-09 -1.889283259e-09 -1.600521661e-09 -1.388910401e-09 -1.107809069e-09)
5(-1.901666872e-09 -1.539297737e-09 -1.159733341e-09 -9.25400602e-10 -6.610855323e-10)
5(-1.591583821e-09 -1.121241757e-09 -7.368080813e-10 -5.319357867e-10 -3.400914956e-10)
5(-1.19657838e-09 -7.061952546e-10 -3.972159294e-10 -2.59688787e-10 -1.483627696e-10)
5(-7.808287984e-10 -3.775958783e-10 -1.748210313e-10 -1.013869003e-10 -4.98798658e-11)
5(-4.218636618e-10 -1.62652875e-10 -5.919348227e-11 -3.086286323e-11 -1.431222623e-11)
5(-1.745643359e-10 -5.069684212e-11 -1.455577661e-11 -6.631874743e-12 -2.861033898e-12)
5(-5.843716028e-11 -1.09032058e-11 -2.273762087e-12 -9.764376349e-13 -3.38297781e-13)
5(-1.186622558e-11 -1.360578954e-12 -1.770212829e-13 -8.899137559e-14 -3.147206657e-14)
5(-1.207755745e-12 -9.060901513e-14 -8.094692723e-15 -3.276281937e-15 -1.135568696e-15)
5(-8.362079695e-14 -3.500301358e-14 1.712439395e-16 -2.38695767e-14 -9.177730007e-18)
5(-8.923792384e-14 2.056054488e-15 -2.965193921e-13 5.13701687e-17 -2.143754608e-21)
)


60
(
5(-1.18385244e-09 -9.924419309e-10 -1.366038309e-09 -1.338318807e-09 -1.437005245e-09)
5(-1.630641858e-09 -1.512942674e-09 -1.564631167e-09 -1.548541972e-09 -1.497977545e-09)
5(-2.00441843e-09 -1.948473239e-09 -1.826385796e-09 -1.794664639e-09 -1.651479753e-09)
5(-2.3566566e-09 -2.306215007e-09 -2.154870017e-09 -2.079647815e-09 -1.8988268e-09)
5(-2.767265935e-09 -2.660013039e-09 -2.527593391e-09 -2.393864623e-09 -2.215009543e-09)
5(-3.221465461e-09 -3.036718674e-09 -2.905698976e-09 -2.718057288e-09 -2.55294729e-09)
5(-3.650303916e-09 -3.409766397e-09 -3.264062473e-09 -3.026979737e-09 -2.856923795e-09)
5(-4.067407276e-09 -3.781736037e-09 -3.597806735e-09 -3.323004161e-09 -3.116854757e-09)
5(-4.476118661e-09 -4.159815776e-09 -3.926622524e-09 -3.619942734e-09 -3.374016217e-09)
5(-4.908353465e-09 -4.547785869e-09 -4.267108175e-09 -3.925318982e-09 -3.639886684e-09)
5(-5.36341598e-09 -4.948424894e-09 -4.627095464e-09 -4.236316294e-09 -3.924651074e-09)
5(-5.819541512e-09 -5.354917059e-09 -4.995199636e-09 -4.549874521e-09 -4.202587333e-09)
5(-6.297213457e-09 -5.766672797e-09 -5.366022375e-09 -4.864189973e-09 -4.488168495e-09)
5(-6.766920749e-09 -6.180027084e-09 -5.733370178e-09 -5.174366109e-09 -4.739911951e-09)
5(-7.26815342e-09 -6.594503452e-09 -6.100782708e-09 -5.47802271e-09 -5.01420621e-09)
5(-7.751801382e-09 -7.012275168e-09 -6.466258168e-09 -5.775902803e-09 -5.253656801e-09)
5(-8.231509853e-09 -7.424480477e-09 -6.824206001e-09 -6.068983588e-09 -5.504940888e-09)
5(-8.744664054e-09 -7.834431886e-09 -7.172426365e-09 -6.344201163e-09 -5.727930415e-09)
5(-9.200682381e-09 -8.235173746e-09 -7.504775052e-09 -6.604858524e-09 -5.930929006e-09)
5(-9.693830151e-09 -8.618539956e-09 -7.817788761e-09 -6.846002935e-09 -6.125947981e-09)
5(-1.015070566e-08 -8.97954599e-09 -8.108972565e-09 -7.062949539e-09 -6.275991366e-09)
5(-1.055617465e-08 -9.317678053e-09 -8.365570029e-09 -7.247548918e-09 -6.399375404e-09)
5(-1.097807468e-08 -9.620061943e-09 -8.58630921e-09 -7.393747987e-09 -6.48331305e-09)
5(-1.135835867e-08 -9.877905013e-09 -8.75821297e-09 -7.495133479e-09 -6.529431257e-09)
5(-1.165319322e-08 -1.008146695e-08 -8.88545822e-09 -7.550082353e-09 -6.546286486e-09)
5(-1.191104468e-08 -1.022550143e-08 -8.959174697e-09 -7.550865925e-09 -6.49922238e-09)
5(-1.211309911e-08 -1.030520564e-08 -8.965547915e-09 -7.496144355e-09 -6.400876849e-09)
5(-1.219758799e-08 -1.03115163e-08 -8.889716888e-09 -7.383986383e-09 -6.278215824e-09)
5(-1.216906939e-08 -1.02262454e-08 -8.739857575e-09 -7.205684585e-09 -6.063445956e-09)
5(-1.208360318e-08 -1.004407108e-08 -8.520616413e-09 -6.963973062e-09 -5.835597064e-09)
5(-1.186303189e-08 -9.780946695e-09 -8.220433064e-09 -6.665459797e-09 -5.559356837e-09)
5(-1.153777736e-08 -9.424377244e-09 -7.834651734e-09 -6.312251273e-09 -5.250839095e-09)
5(-1.108623834e-08 -8.957490541e-09 -7.390817855e-09 -5.915790993e-09 -4.90719624e-09)
5(-1.048888417e-08 -8.415214295e-09 -6.884867484e-09 -5.483245968e-09 -4.581381068e-09)
5(-9.832127028e-09 -7.79308276e-09 -6.333639343e-09 -5.034974702e-09 -4.220717142e-09)
5(-9.027212565e-09 -7.11634389e-09 -5.749326722e-09 -4.588359777e-09 -3.903674181e-09)
5(-8.185992328e-09 -6.39877445e-09 -5.154741163e-09 -4.158439059e-09 -3.621673804e-09)
5(-7.256472518e-09 -5.653281281e-09 -4.582727778e-09 -3.764259536e-09 -3.391657601e-09)
5(-6.321463189e-09 -4.923355767e-09 -4.045631472e-09 -3.43022223e-09 -3.22676112e-09)
5(-5.397109397e-09 -4.249216989e-09 -3.573458777e-09 -3.171029121e-09 -3.125036603e-09)
5(-4.539167421e-09 -3.653048133e-09 -3.199070379e-09 -2.994366613e-09 -3.100162873e-09)
5(-3.763926172e-09 -3.171789968e-09 -2.930618316e-09 -2.905747896e-09 -3.116318438e-09)
5(-3.155661674e-09 -2.822339391e-09 -2.775661173e-09 -2.883230697e-09 -3.159829008e-09)
5(-2.702235116e-09 -2.603845957e-09 -2.703901623e-09 -2.89383016e-09 -3.168778912e-09)
5(-2.432421284e-09 -2.516408364e-09 -2.68540095e-09 -2.888177793e-09 -3.103767322e-09)
5(-2.323941584e-09 -2.519077263e-09 -2.675183933e-09 -2.812391673e-09 -2.918403029e-09)
5(-2.337093181e-09 -2.548240846e-09 -2.609362687e-09 -2.620786534e-09 -2.582287736e-09)
5(-2.402048178e-09 -2.536474342e-09 -2.426213352e-09 -2.300815914e-09 -2.127847004e-09)
5(-2.456155914e-09 -2.425646061e-09 -2.118504693e-09 -1.862935028e-09 -1.590718831e-09)
5(-2.419029498e-09 -2.176310497e-09 -1.698980093e-09 -1.362822387e-09 -1.061714999e-09)
5(-2.240996997e-09 -1.79125854e-09 -1.216275164e-09 -8.79543615e-10 -6.190233179e-10)
5(-1.915629855e-09 -1.334663889e-09 -7.558157108e-10 -4.878226219e-10 -3.07531946e-10)
5(-1.472786692e-09 -8.496156323e-10 -3.99870287e-10 -2.208933053e-10 -1.236773294e-10)
5(-1.01097118e-09 -4.59914074e-10 -1.667364067e-10 -8.124892183e-11 -4.010542627e-11)
5(-5.669232304e-10 -2.00133416e-10 -5.192244651e-11 -2.155062076e-11 -9.102103133e-12)
5(-2.82373965e-10 -6.490571029e-11 -9.94696606e-12 -3.769645316e-12 -1.431381842e-12)
5(-1.021214347e-10 -1.631129854e-11 -1.536658955e-12 -3.846698655e-13 -1.163554929e-13)
5(-2.917204554e-11 -1.866450253e-12 -9.949828364e-14 -1.955983667e-14 -5.974543444e-15)
5(-6.542239949e-12 -1.313927117e-13 -3.496362656e-15 4.229886204e-14 -3.980924723e-17)
5(-8.290605222e-12 1.412765267e-12 -1.104951708e-12 2.75078238e-14 -1.588543835e-14)
)


60
(
5(-1.493790443e-09 -1.304763122e-09 -1.774319568e-09 -1.802427714e-09 -1.909798351e-09)
5(-2.136297557e-09 -2.030983811e-09 -2.115598382e-09 -2.13739349e-09 -2.081437519e-09)
5(-2.670530792e-09 -2.638162652e-09 -2.51973042e-09 -2.50956161e-09 -2.346201341e-09)
5(-3.164410515e-09 -3.129847334e-09 -2.988857703e-09 -2.919667392e-09 -2.706616094e-09)
5(-3.715980561e-09 -3.61439076e-09 -3.499062771e-09 -3.360273583e-09 -3.155614858e-09)
5(-4.31815415e-09 -4.132935489e-09 -4.012998444e-09 -3.811258755e-09 -3.628340492e-09)
5(-4.887778311e-09 -4.644260945e-09 -4.507947393e-09 -4.247522543e-09 -4.041942628e-09)
5(-5.455837269e-09 -5.15859093e-09 -4.976002437e-09 -4.670288256e-09 -4.436786703e-09)
5(-6.005934527e-09 -5.68085025e-09 -5.438482972e-09 -5.09245474e-09 -4.80013416e-09)
5(-6.607516378e-09 -6.212030614e-09 -5.916114843e-09 -5.525272007e-09 -5.191640952e-09)
5(-7.210829599e-09 -6.762062311e-09 -6.417803084e-09 -5.967359836e-09 -5.591097395e-09)
5(-7.84844462e-09 -7.316542648e-09 -6.929568912e-09 -6.413688388e-09 -5.998904419e-09)
5(-8.479592901e-09 -7.88002999e-09 -7.446495135e-09 -6.857521882e-09 -6.393649277e-09)
5(-9.107126461e-09 -8.448537967e-09 -7.956040201e-09 -7.296494242e-09 -6.781966963e-09)
5(-9.777828498e-09 -9.023569725e-09 -8.465436221e-09 -7.729866727e-09 -7.153113381e-09)
5(-1.044126908e-08 -9.599392467e-09 -8.969130146e-09 -8.155654248e-09 -7.511384532e-09)
5(-1.111112956e-08 -1.017326978e-08 -9.47492896e-09 -8.567820047e-09 -7.865090029e-09)
5(-1.174470081e-08 -1.073865476e-08 -9.96665839e-09 -8.960482919e-09 -8.197014517e-09)
5(-1.242907592e-08 -1.128889101e-08 -1.043357101e-08 -9.344210084e-09 -8.506781848e-09)
5(-1.30530063e-08 -1.181805652e-08 -1.087933789e-08 -9.700596064e-09 -8.779509095e-09)
5(-1.36873933e-08 -1.231971919e-08 -1.129270147e-08 -1.002313303e-08 -9.018738007e-09)
5(-1.4288718e-08 -1.280048299e-08 -1.1668579e-08 -1.030141797e-08 -9.225831397e-09)
5(-1.479624319e-08 -1.322718253e-08 -1.199287198e-08 -1.052630175e-08 -9.364731752e-09)
5(-1.531981213e-08 -1.359171954e-08 -1.226244373e-08 -1.06955519e-08 -9.473055527e-09)
5(-1.57816671e-08 -1.389372034e-08 -1.246869487e-08 -1.07972461e-08 -9.522730597e-09)
5(-1.608959555e-08 -1.412116806e-08 -1.259212194e-08 -1.082584618e-08 -9.458023103e-09)
5(-1.639821374e-08 -1.426563031e-08 -1.262551305e-08 -1.078644016e-08 -9.375656295e-09)
5(-1.651510882e-08 -1.430402114e-08 -1.256112035e-08 -1.06675288e-08 -9.212375741e-09)
5(-1.657983232e-08 -1.421947664e-08 -1.241050182e-08 -1.045660336e-08 -8.937156579e-09)
5(-1.647273931e-08 -1.403409827e-08 -1.215209082e-08 -1.014910859e-08 -8.643303727e-09)
5(-1.62975854e-08 -1.373229113e-08 -1.177446991e-08 -9.764752605e-09 -8.220827115e-09)
5(-1.581785643e-08 -1.328460743e-08 -1.127862186e-08 -9.291194122e-09 -7.769601568e-09)
5(-1.527088727e-08 -1.271552315e-08 -1.06877666e-08 -8.738990961e-09 -7.259139168e-09)