/*--------------------------------*- C++ -*----------------------------------*\
| =========                 |                                                 |
| \\      /  F ield         | OpenFOAM: The Open Source CFD Toolbox           |
|  \\    /   O peration     | Version:  2.3.1                                 |
|   \\  /    A nd           | Web:      www.OpenFOAM.org                      |
|    \\/     M anipulation  |                                                 |
\*---------------------------------------------------------------------------*/
FoamFile
{
    version     2.0;
    format      ascii;
    class       dictionary;
    location    "constant";
    object      DPSI47;
}
// * * * * * * * * * * * * * * * * * * * * * * * * * * * * * * * * * * * * * //

DPSI47_table
60
(

60
(
5(5.089324286e-10 -1.982144993e-09 -1.683372422e-09 -1.516718519e-09 -4.119945236e-09)
5(2.518144872e-09 -1.115749794e-09 -2.057303305e-09 1.501844187e-11 -6.07127838e-10)
5(1.269260255e-08 6.261490052e-09 -1.621167998e-10 3.290169324e-09 4.953008938e-09)
5(3.540846025e-08 1.97197943e-08 1.340468992e-09 1.427947756e-10 -4.027267854e-09)
5(5.781071998e-08 3.063955922e-08 -1.114531095e-10 1.265276133e-09 6.609801901e-10)
5(6.977505767e-08 3.689347355e-08 -5.02220627e-10 -2.704205265e-12 2.55968972e-09)
5(-2.317271982e-10 1.212521279e-10 9.064168849e-11 -1.711825471e-09 -3.146123443e-09)
5(-3.460409803e-09 -2.99344806e-09 -5.891759414e-10 2.851730445e-09 4.38553687e-09)
5(1.129592258e-07 5.63188856e-08 -8.256812177e-10 1.918698688e-09 2.372335924e-09)
5(1.602071253e-07 8.197360838e-08 2.011396239e-09 2.869661487e-09 1.140181407e-09)
5(1.81137123e-07 9.445373235e-08 3.217493852e-09 2.626713213e-09 2.057720356e-09)
5(9.263328495e-08 4.569950033e-08 -1.268238152e-09 1.146323209e-09 1.394360411e-09)
5(-8.52187406e-09 -5.44691541e-09 -2.532770437e-09 -2.384728738e-11 2.904689531e-09)
5(-8.53214711e-09 -5.872237486e-09 -1.731537536e-09 6.212120476e-10 1.704350126e-09)
5(-1.147801405e-08 -7.765891392e-09 -4.100046488e-09 -3.287798534e-10 3.816963617e-09)
5(-1.582710763e-08 -4.490486802e-09 1.850681182e-09 1.79290355e-09 7.07668091e-09)
5(-1.460160138e-08 -7.980310781e-09 -1.233001006e-10 2.360348892e-09 3.905588637e-09)
5(-2.447986783e-08 -1.154979412e-08 -4.553480005e-09 -4.804454187e-09 1.524083884e-09)
5(-3.078069875e-08 -1.941329409e-08 -1.07505647e-08 -1.076389911e-08 -7.263290869e-09)
5(-3.215462744e-08 -2.442645873e-08 -1.871619113e-08 -1.159638575e-08 -1.542377746e-09)
5(-3.734914826e-08 -2.872436512e-08 -2.401970789e-08 -1.353491426e-08 1.948152875e-09)
5(-4.36264379e-08 -3.728781768e-08 -2.278708979e-08 -1.017263508e-08 -4.788303728e-09)
5(-5.134476104e-08 -4.278486205e-08 -3.381285787e-08 -2.12398247e-08 -7.819052534e-09)
5(-6.969617934e-08 -5.274235762e-08 -3.867516832e-08 -2.629733442e-08 -9.333536544e-09)
5(-8.534568931e-08 -6.351607908e-08 -4.825006664e-08 -3.458678354e-08 -1.230230125e-08)
5(-1.087138221e-07 -8.146766693e-08 -6.067085556e-08 -3.62735573e-08 -2.911721429e-09)
5(-1.169758099e-07 -9.116044424e-08 -8.037364738e-08 -4.989901451e-08 -1.492212034e-09)
5(-1.258156616e-07 -1.129208458e-07 -1.025646137e-07 -5.329236263e-08 1.413902304e-09)
5(-1.416626837e-07 -1.222474871e-07 -1.113480119e-07 -6.705120486e-08 -1.102791807e-08)
5(-1.709497727e-07 -1.380109165e-07 -1.10970195e-07 -7.170429472e-08 -2.299046088e-08)
5(-1.941006854e-07 -1.603772434e-07 -1.297738047e-07 -7.31733347e-08 -9.526633797e-09)
5(-2.108453372e-07 -1.704175283e-07 -1.267752897e-07 -4.493586374e-08 3.781218642e-08)
5(-2.443445274e-07 -1.960236614e-07 -1.338001141e-07 -8.067053346e-08 -3.733486223e-08)
5(-2.765603041e-07 -2.247099606e-07 -1.275964781e-07 -9.438617104e-09 6.783205952e-08)
5(-2.878817389e-07 -2.336729768e-07 -1.331142456e-07 1.078107729e-08 1.129424706e-07)
5(-3.443297213e-07 -2.884692909e-07 -1.210192642e-07 7.281207747e-08 1.595350913e-07)
5(-3.051834595e-07 -2.324889797e-07 -1.106759299e-07 -3.376909928e-09 5.915135182e-08)
5(-3.617126909e-07 -2.390027682e-07 -9.772992701e-08 2.039609217e-07 4.939748342e-07)
5(-3.46480039e-07 -2.555084889e-07 -6.653461561e-08 8.206713138e-08 1.369601091e-07)
5(-3.143168716e-07 -2.670844072e-07 -5.695133932e-08 1.334678249e-06 2.563859652e-06)
5(-2.495587666e-07 -1.937632239e-07 -7.647203407e-09 1.32445698e-06 2.52928064e-06)
5(-2.537836283e-07 -1.650553253e-07 4.643530479e-07 1.396388662e-06 1.789509049e-06)
5(-1.342951483e-07 -8.81120439e-08 1.4269214e-06 1.379428113e-06 -1.465796482e-07)
5(-1.467073055e-07 -2.751912459e-07 1.511002954e-06 1.575400796e-06 -2.885376603e-07)
5(-1.075170271e-08 -1.406432692e-07 1.506238831e-06 1.530271616e-06 -2.403203839e-07)
5(-1.177841834e-07 1.278130857e-08 1.524952724e-06 1.334346557e-06 -2.540553979e-07)
5(4.315229406e-08 1.147183557e-06 1.381007067e-06 1.104192923e-07 -2.868593483e-07)
5(6.167387195e-07 1.47048605e-06 9.655139711e-07 -3.814669057e-07 -3.61276873e-07)
5(5.296352475e-07 1.456974564e-06 9.097401806e-07 -5.046000865e-07 -4.322456001e-07)
5(3.11929674e-06 1.306348743e-06 -6.020298236e-07 -5.910497367e-07 -5.101407477e-07)
5(2.64134874e-06 9.918732682e-07 -7.340277641e-07 -6.881163708e-07 -5.922576662e-07)
5(1.829571043e-07 -3.04195079e-07 -8.507112867e-07 -7.955511596e-07 -6.882941206e-07)
5(-8.28132629e-07 -8.802824194e-07 -9.811303561e-07 -9.143766539e-07 -7.929200878e-07)
5(-1.101307213e-06 -1.096826963e-06 -1.127692099e-06 -1.050387732e-06 -9.295734206e-07)
5(-1.254191521e-06 -1.260638186e-06 -1.295981329e-06 -1.199546769e-06 -1.065765785e-06)
5(-1.28190834e-06 -1.370189882e-06 -1.471132074e-06 -1.360861686e-06 -1.232459731e-06)
5(-1.131801617e-06 -1.396072724e-06 -1.659429562e-06 -1.52920965e-06 -1.400175414e-06)
5(-1.295839633e-06 -1.517265512e-06 -1.776831908e-06 -1.66109981e-06 -1.505795133e-06)
5(-1.697750755e-06 -1.855182576e-06 -1.532920756e-06 -1.716867211e-06 -2.401233026e-06)
5(-2.411486101e-06 -2.515337457e-06 -2.725742695e-06 -2.274676192e-06 -1.69675382e-06)
)


60
(
5(-1.158597212e-09 -3.194723861e-09 -3.103092488e-09 -4.035562165e-09 -6.915846561e-09)
5(-2.292845558e-09 -2.639740509e-09 -2.375964077e-09 -2.293744544e-09 -2.579771771e-09)
5(-3.400739465e-09 -2.612444678e-09 -2.2203126e-09 -1.683256785e-09 -5.146746071e-10)
5(-4.494017181e-09 -3.150204833e-09 -2.670146646e-09 -1.981804101e-09 -1.640936286e-10)
5(-5.588012335e-09 -4.193357369e-09 -3.668312443e-09 -3.195216722e-09 -1.522481082e-09)
5(-6.792305399e-09 -5.540881942e-09 -5.07220981e-09 -5.116411494e-09 -3.988055436e-09)
5(-8.366530588e-09 -7.013403019e-09 -6.663663314e-09 -7.094860762e-09 -6.066188409e-09)
5(-1.045822364e-08 -8.750802823e-09 -8.471982628e-09 -8.960223543e-09 -7.48591439e-09)
5(-1.303220047e-08 -1.078702689e-08 -1.057452652e-08 -1.101424869e-08 -8.799689685e-09)
5(-1.604216886e-08 -1.327613507e-08 -1.311623615e-08 -1.355635847e-08 -1.067227221e-08)
5(-1.959940426e-08 -1.638053005e-08 -1.613847516e-08 -1.647298298e-08 -1.30089463e-08)
5(-2.367804809e-08 -2.007509854e-08 -1.960563081e-08 -1.964041081e-08 -1.562430899e-08)
5(-2.85875839e-08 -2.437263744e-08 -2.346724778e-08 -2.285996093e-08 -1.7916205e-08)
5(-3.426376946e-08 -2.927315385e-08 -2.782163839e-08 -2.614178497e-08 -1.977185714e-08)
5(-4.094571898e-08 -3.486904911e-08 -3.254496045e-08 -2.956750305e-08 -2.155296026e-08)
5(-4.861745393e-08 -4.130797705e-08 -3.781173497e-08 -3.320749656e-08 -2.336269963e-08)
5(-5.737723456e-08 -4.87068061e-08 -4.386261773e-08 -3.722879412e-08 -2.518167809e-08)
5(-6.773820143e-08 -5.726532099e-08 -5.061610207e-08 -4.160273654e-08 -2.699757179e-08)
5(-7.942440176e-08 -6.707482257e-08 -5.847898378e-08 -4.665264271e-08 -2.910732233e-08)
5(-9.31710849e-08 -7.838620788e-08 -6.748209847e-08 -5.278704472e-08 -3.201450982e-08)
5(-1.089492805e-07 -9.146602208e-08 -7.772699576e-08 -5.961839106e-08 -3.53172736e-08)
5(-1.271545533e-07 -1.065167516e-07 -8.965409323e-08 -6.761286951e-08 -3.905471703e-08)
5(-1.482668714e-07 -1.239841647e-07 -1.031462805e-07 -7.715486652e-08 -4.46673079e-08)
5(-1.718261999e-07 -1.437504864e-07 -1.180958197e-07 -8.732025642e-08 -5.075941275e-08)
5(-1.979075755e-07 -1.657731869e-07 -1.352539707e-07 -9.918031352e-08 -5.777775151e-08)
5(-2.272693839e-07 -1.909990677e-07 -1.543553493e-07 -1.114366727e-07 -6.482524204e-08)
5(-2.587650663e-07 -2.184054888e-07 -1.753995788e-07 -1.242251418e-07 -7.12665901e-08)
5(-2.948164981e-07 -2.484078649e-07 -1.967788403e-07 -1.362922543e-07 -7.617207807e-08)
5(-3.327009833e-07 -2.804684463e-07 -2.185074863e-07 -1.484235119e-07 -8.284582508e-08)
5(-3.720905966e-07 -3.142014189e-07 -2.408573977e-07 -1.580139815e-07 -8.504385371e-08)
5(-4.124710882e-07 -3.488512358e-07 -2.62315475e-07 -1.655985997e-07 -8.590057843e-08)
5(-4.540908483e-07 -3.831210851e-07 -2.819705791e-07 -1.696215945e-07 -8.120916929e-08)
5(-4.950537086e-07 -4.175219088e-07 -2.990377308e-07 -1.684439873e-07 -7.230367306e-08)
5(-5.346931764e-07 -4.496714658e-07 -3.122635748e-07 -1.6036148e-07 -5.409269478e-08)
5(-5.729124493e-07 -4.794967872e-07 -3.19271427e-07 -1.447001178e-07 -2.999280608e-08)
5(-6.039154358e-07 -5.03481821e-07 -3.201307333e-07 -1.198952887e-07 4.467427953e-09)
5(-6.310318819e-07 -5.227690741e-07 -3.117196664e-07 -8.704824606e-08 4.187310021e-08)
5(-6.497474101e-07 -5.329884967e-07 -2.943471691e-07 -4.540061146e-08 8.865732568e-08)
5(-6.533001693e-07 -5.325548545e-07 -2.691405215e-07 1.176710334e-08 1.568411573e-07)
5(-6.536266391e-07 -5.211510583e-07 -2.266388842e-07 9.429135188e-08 2.600983411e-07)
5(-6.317707815e-07 -4.925234202e-07 -1.722918836e-07 2.082074051e-07 4.14717027e-07)
5(-6.128495612e-07 -4.588391548e-07 -9.054221757e-08 3.582975935e-07 5.999878672e-07)
5(-5.572949835e-07 -4.048870008e-07 1.734869733e-08 5.321433914e-07 7.836677484e-07)
5(-4.735763769e-07 -3.399787565e-07 1.563976479e-07 7.179448842e-07 9.21723966e-07)
5(-3.931141088e-07 -2.561892473e-07 3.357597912e-07 9.032759857e-07 1.019357244e-06)
5(-3.051667763e-07 -1.468311502e-07 5.340027724e-07 1.073648189e-06 1.09331774e-06)
5(-2.185375586e-07 -1.250430485e-09 7.39211194e-07 1.206742912e-06 1.153555689e-06)
5(-1.039172012e-07 1.781271656e-07 9.266026568e-07 1.293347813e-06 1.196501115e-06)
5(4.989000668e-08 3.740182683e-07 1.079487051e-06 1.328094803e-06 1.19825336e-06)
5(2.560022536e-07 5.557843674e-07 1.163440483e-06 1.311470533e-06 1.153368616e-06)
5(5.011404918e-07 7.050430915e-07 1.167852493e-06 1.244746922e-06 1.062067479e-06)
5(6.899910931e-07 7.853761813e-07 1.096839061e-06 1.12085509e-06 9.257312535e-07)
5(7.630141223e-07 7.730830313e-07 9.668583538e-07 9.569803374e-07 7.585913756e-07)
5(6.913254503e-07 6.530799107e-07 7.725663824e-07 7.354007708e-07 5.348595695e-07)
5(4.486376302e-07 4.238356765e-07 5.202765784e-07 4.663362807e-07 2.865822999e-07)
5(1.03582865e-07 1.066645842e-07 1.983325805e-07 1.419537688e-07 -5.844639102e-09)
5(-3.370131284e-07 -2.986055496e-07 -1.92279891e-07 -2.323100348e-07 -3.409202107e-07)
5(-8.452000603e-07 -7.662544682e-07 -6.46258259e-07 -6.659690395e-07 -7.247994541e-07)
5(-1.388480031e-06 -1.284823792e-06 -1.181460346e-06 -1.171550451e-06 -1.156784091e-06)
5(-2.077059956e-06 -1.74770463e-06 -1.866923385e-06 -2.026390385e-06 -1.714161707e-06)
)


60
(
5(-2.148949594e-09 -4.51755874e-09 -5.123606721e-09 -7.03151212e-09 -1.043501976e-08)
5(-3.568702609e-09 -4.176776495e-09 -4.623740157e-09 -5.488711901e-09 -6.131710326e-09)
5(-5.073496709e-09 -4.515604963e-09 -4.910861815e-09 -5.363319137e-09 -4.443953634e-09)
5(-6.65063809e-09 -5.586161841e-09 -6.045517578e-09 -6.547450644e-09 -5.050339029e-09)
5(-8.358638836e-09 -7.319226396e-09 -7.975811541e-09 -8.967498579e-09 -7.720682478e-09)
5(-1.035510542e-08 -9.54093862e-09 -1.048415888e-08 -1.227727024e-08 -1.170433318e-08)
5(-1.284813595e-08 -1.20833571e-08 -1.331998987e-08 -1.560617295e-08 -1.520778157e-08)
5(-1.601254852e-08 -1.497998368e-08 -1.645556085e-08 -1.88686603e-08 -1.799724931e-08)
5(-1.984311654e-08 -1.83445848e-08 -1.99714305e-08 -2.222928996e-08 -2.048019322e-08)
5(-2.425149277e-08 -2.229766764e-08 -2.396858844e-08 -2.598945983e-08 -2.339904304e-08)
5(-2.936897609e-08 -2.698212922e-08 -2.840347003e-08 -2.981459861e-08 -2.632851971e-08)
5(-3.505041143e-08 -3.224378438e-08 -3.319999786e-08 -3.359572374e-08 -2.904232964e-08)
5(-4.155888577e-08 -3.812872468e-08 -3.823873473e-08 -3.712318242e-08 -3.117867875e-08)
5(-4.902321443e-08 -4.463335263e-08 -4.350605342e-08 -4.039345077e-08 -3.261439411e-08)
5(-5.729494499e-08 -5.177619815e-08 -4.90380361e-08 -4.353255605e-08 -3.372580414e-08)
5(-6.668780836e-08 -5.96609576e-08 -5.49512798e-08 -4.668075256e-08 -3.443728466e-08)
5(-7.710786741e-08 -6.849289242e-08 -6.15096542e-08 -5.006527388e-08 -3.519505242e-08)
5(-8.918626767e-08 -7.83930488e-08 -6.870760967e-08 -5.379183628e-08 -3.580469341e-08)
5(-1.027328691e-07 -8.963147645e-08 -7.689253251e-08 -5.823202469e-08 -3.706468236e-08)
5(-1.181234304e-07 -1.023462928e-07 -8.63723335e-08 -6.371717679e-08 -3.890387278e-08)
5(-1.360401518e-07 -1.171557815e-07 -9.73370793e-08 -7.048845275e-08 -4.19802558e-08)
5(-1.557424097e-07 -1.33628886e-07 -1.099035289e-07 -7.874274656e-08 -4.634810211e-08)
5(-1.792257161e-07 -1.531540152e-07 -1.245255485e-07 -8.820143939e-08 -5.129297748e-08)
5(-2.049861202e-07 -1.750956914e-07 -1.412069047e-07 -9.922032316e-08 -5.779287055e-08)
5(-2.344823761e-07 -2.003255946e-07 -1.601945017e-07 -1.116656664e-07 -6.534498218e-08)
5(-2.668001319e-07 -2.28233723e-07 -1.816350131e-07 -1.249957066e-07 -7.226640219e-08)
5(-3.024448767e-07 -2.591432285e-07 -2.047302755e-07 -1.398203882e-07 -8.1552404e-08)
5(-3.425635381e-07 -2.9325218e-07 -2.294107208e-07 -1.540327057e-07 -8.830396696e-08)
5(-3.839769045e-07 -3.293114971e-07 -2.550128385e-07 -1.688677107e-07 -9.713601205e-08)
5(-4.283809361e-07 -3.682999111e-07 -2.817060916e-07 -1.81789426e-07 -1.028149923e-07)
5(-4.757233495e-07 -4.086361821e-07 -3.07386612e-07 -1.925518061e-07 -1.059435921e-07)
5(-5.241164917e-07 -4.496799728e-07 -3.324614979e-07 -2.010354689e-07 -1.061050437e-07)
5(-5.71310777e-07 -4.909066596e-07 -3.563647139e-07 -2.037419384e-07 -9.868262959e-08)
5(-6.19596126e-07 -5.31345438e-07 -3.756640465e-07 -2.01557888e-07 -8.802318529e-08)
5(-6.664567798e-07 -5.695866383e-07 -3.908929041e-07 -1.920184341e-07 -6.783173279e-08)
5(-7.13581345e-07 -6.069209778e-07 -4.007108618e-07 -1.750982881e-07 -4.165737387e-08)
5(-7.471869234e-07 -6.353072583e-07 -4.042432393e-07 -1.499153485e-07 -7.338514737e-09)
5(-7.830377364e-07 -6.605569274e-07 -3.991206564e-07 -1.161596045e-07 3.541766413e-08)
5(-8.080724792e-07 -6.746739623e-07 -3.833348318e-07 -6.718333631e-08 9.876574371e-08)
5(-8.252429047e-07 -6.817560634e-07 -3.571177911e-07 3.832525927e-09 1.915439526e-07)
5(-8.367116206e-07 -6.818117736e-07 -3.16601062e-07 1.059930623e-07 3.264736612e-07)
5(-8.287839833e-07 -6.632386554e-07 -2.549503943e-07 2.337868287e-07 4.881849703e-07)
5(-8.138531246e-07 -6.385589239e-07 -1.677532535e-07 3.878626301e-07 6.562937199e-07)
5(-7.784747699e-07 -5.994703131e-07 -5.074844987e-08 5.59549178e-07 8.078578155e-07)
5(-7.270176652e-07 -5.431003588e-07 9.253483139e-08 7.368641635e-07 9.363103926e-07)
5(-6.708272513e-07 -4.617207115e-07 2.644107002e-07 9.12856068e-07 1.050529755e-06)
5(-6.105216039e-07 -3.505471256e-07 4.479888787e-07 1.072598464e-06 1.165099674e-06)
5(-5.283441587e-07 -2.084300827e-07 6.299158608e-07 1.203818965e-06 1.266344849e-06)
5(-4.044162019e-07 -4.724570529e-08 7.909884136e-07 1.302305708e-06 1.339871474e-06)
5(-2.366798057e-07 1.206395222e-07 9.187065104e-07 1.362233875e-06 1.371858388e-06)
5(-3.28543415e-08 2.748358356e-07 9.925436782e-07 1.374567964e-06 1.35177143e-06)
5(1.609278084e-07 3.945499369e-07 1.011185411e-06 1.340469388e-06 1.289804377e-06)
5(2.831824923e-07 4.547339701e-07 9.759857319e-07 1.251681581e-06 1.179079004e-06)
5(3.039518246e-07 4.381804461e-07 8.82132834e-07 1.107133254e-06 1.022936838e-06)
5(2.343943734e-07 3.411783688e-07 7.180487696e-07 8.978652603e-07 8.076582628e-07)
5(5.60752001e-08 1.561344621e-07 4.861333568e-07 6.268667397e-07 5.380106045e-07)
5(-2.079778926e-07 -1.070795814e-07 1.798927377e-07 2.891726939e-07 2.135152213e-07)
5(-5.418726714e-07 -4.433239316e-07 -2.058899339e-07 -1.186174235e-07 -1.680794778e-07)
5(-9.44818032e-07 -8.546350277e-07 -6.734288087e-07 -6.017083341e-07 -6.177374744e-07)
5(-1.557424508e-06 -1.322684105e-06 -1.372508296e-06 -1.472629675e-06 -1.272576144e-06)
)


60
(
5(-3.097118833e-09 -5.951799842e-09 -7.460866313e-09 -1.037214991e-08 -1.431568723e-08)
5(-4.866423849e-09 -5.874808058e-09 -7.226405084e-09 -9.205260348e-09 -1.035744885e-08)
5(-6.794641132e-09 -6.617807413e-09 -8.006784799e-09 -9.731560863e-09 -9.338201565e-09)
5(-8.863188001e-09 -8.279149257e-09 -9.870304194e-09 -1.178412346e-08 -1.090546879e-08)
5(-1.115753514e-08 -1.073133148e-08 -1.269822333e-08 -1.526242444e-08 -1.475498238e-08)
5(-1.387773385e-08 -1.379588468e-08 -1.62278744e-08 -1.971794267e-08 -1.995909883e-08)
5(-1.723898281e-08 -1.732134313e-08 -2.01675867e-08 -2.410905797e-08 -2.448233479e-08)
5(-2.136945647e-08 -2.130548707e-08 -2.44222603e-08 -2.82927102e-08 -2.80876966e-08)
5(-2.625916297e-08 -2.582784379e-08 -2.904430508e-08 -3.244442523e-08 -3.119911456e-08)
5(-3.181036663e-08 -3.097139635e-08 -3.404452373e-08 -3.670516204e-08 -3.435676229e-08)
5(-3.798419081e-08 -3.675899177e-08 -3.934385881e-08 -4.079348351e-08 -3.724770569e-08)
5(-4.489343356e-08 -4.31651799e-08 -4.47918955e-08 -4.452022237e-08 -3.962295505e-08)
5(-5.251221678e-08 -5.009382958e-08 -5.034039606e-08 -4.774191305e-08 -4.111910894e-08)
5(-6.093566197e-08 -5.75018066e-08 -5.59241805e-08 -5.04162424e-08 -4.159459377e-08)
5(-7.005855174e-08 -6.540115006e-08 -6.158491747e-08 -5.289645859e-08 -4.181287425e-08)
5(-8.01461078e-08 -7.397402361e-08 -6.751015383e-08 -5.523834257e-08 -4.159463495e-08)
5(-9.137998583e-08 -8.335426985e-08 -7.390767884e-08 -5.779014534e-08 -4.130267537e-08)
5(-1.038953822e-07 -9.372322555e-08 -8.094382424e-08 -6.088014006e-08 -4.149545762e-08)
5(-1.178649887e-07 -1.053442785e-07 -8.907358097e-08 -6.463473679e-08 -4.185502531e-08)
5(-1.339393993e-07 -1.186576691e-07 -9.846406588e-08 -6.969193898e-08 -4.355744344e-08)
5(-1.520005159e-07 -1.338502548e-07 -1.095252844e-07 -7.6048513e-08 -4.627067026e-08)
5(-1.724218803e-07 -1.510860018e-07 -1.223781938e-07 -8.41996275e-08 -5.06882564e-08)
5(-1.959122884e-07 -1.712457899e-07 -1.37660195e-07 -9.376206522e-08 -5.582403794e-08)
5(-2.232006511e-07 -1.945277842e-07 -1.5527691e-07 -1.054109669e-07 -6.287736117e-08)
5(-2.530510365e-07 -2.206896643e-07 -1.753592273e-07 -1.190584753e-07 -7.220548777e-08)
5(-2.875118218e-07 -2.506497722e-07 -1.97930879e-07 -1.33651779e-07 -8.138009639e-08)
5(-3.249750896e-07 -2.839536094e-07 -2.232609043e-07 -1.494501179e-07 -9.113127345e-08)
5(-3.667787803e-07 -3.206762764e-07 -2.504510875e-07 -1.666357414e-07 -1.024145682e-07)
5(-4.112266178e-07 -3.601069092e-07 -2.790931941e-07 -1.825922178e-07 -1.111072053e-07)
5(-4.590428166e-07 -4.026392998e-07 -3.092425665e-07 -1.995117723e-07 -1.215605541e-07)
5(-5.097216866e-07 -4.474838846e-07 -3.397846174e-07 -2.141041188e-07 -1.283243943e-07)
5(-5.619222857e-07 -4.93339933e-07 -3.700646684e-07 -2.276638563e-07 -1.340586056e-07)
5(-6.150684602e-07 -5.408569535e-07 -3.997170201e-07 -2.364131683e-07 -1.338450436e-07)
5(-6.707464471e-07 -5.888929725e-07 -4.26402402e-07 -2.409526036e-07 -1.296311269e-07)
5(-7.24276142e-07 -6.353018921e-07 -4.504761983e-07 -2.394672782e-07 -1.175153878e-07)
5(-7.785153541e-07 -6.804041545e-07 -4.705945178e-07 -2.318654534e-07 -9.770823323e-08)
5(-8.283602582e-07 -7.225012653e-07 -4.859698126e-07 -2.176855961e-07 -7.271931543e-08)
5(-8.735496641e-07 -7.596369325e-07 -4.941713624e-07 -1.937064372e-07 -3.722756875e-08)
5(-9.159790682e-07 -7.930065443e-07 -4.947894755e-07 -1.574649074e-07 1.240693289e-08)
5(-9.526007402e-07 -8.205703693e-07 -4.857912334e-07 -9.886704368e-08 9.339148498e-08)
5(-9.831201515e-07 -8.379119381e-07 -4.630382277e-07 -1.858649155e-08 2.047590563e-07)
5(-1.010610339e-06 -8.49486923e-07 -4.243558979e-07 8.716414925e-08 3.437617686e-07)
5(-1.023169224e-06 -8.506675988e-07 -3.643059821e-07 2.183381702e-07 4.964395773e-07)
5(-1.026384769e-06 -8.436659763e-07 -2.780647401e-07 3.665292971e-07 6.373912897e-07)
5(-1.016765679e-06 -8.203407022e-07 -1.654697998e-07 5.258135226e-07 7.674479012e-07)
5(-1.002197226e-06 -7.767163154e-07 -3.053696274e-08 6.860976944e-07 8.907361294e-07)
5(-9.787324965e-07 -7.088206331e-07 1.188866153e-07 8.455026681e-07 1.023421161e-06)
5(-9.42792781e-07 -6.101796335e-07 2.761797066e-07 9.881878195e-07 1.156622374e-06)
5(-8.807798112e-07 -4.962509035e-07 4.278529477e-07 1.114598519e-06 1.272945573e-06)
5(-7.545798412e-07 -3.620974658e-07 5.589575306e-07 1.217681145e-06 1.358930662e-06)
5(-5.979344111e-07 -2.265121485e-07 6.623075864e-07 1.283474711e-06 1.397487496e-06)
5(-4.394022011e-07 -1.028283716e-07 7.304610206e-07 1.304025545e-06 1.389919287e-06)
5(-2.969954823e-07 -8.759474253e-10 7.615253513e-07 1.275935211e-06 1.33169698e-06)
5(-2.078337694e-07 5.454866881e-08 7.414703895e-07 1.189889812e-06 1.220298711e-06)
5(-1.717179581e-07 5.454409297e-08 6.571369123e-07 1.038006574e-06 1.048041327e-06)
5(-2.209234559e-07 -1.925145868e-08 5.050301104e-07 8.152092159e-07 8.076713342e-07)
5(-3.353260732e-07 -1.651751049e-07 2.721219734e-07 5.249366305e-07 5.150816523e-07)
5(-5.488465962e-07 -3.984263387e-07 -3.719615229e-08 1.591400347e-07 1.491629541e-07)
5(-8.580948111e-07 -7.29310807e-07 -4.404321443e-07 -2.925294241e-07 -3.000557897e-07)
5(-1.235394358e-06 -1.220557123e-06 -1.157953758e-06 -1.091142513e-06 -1.068630945e-06)
)


60
(
5(-4.089942856e-09 -7.493957125e-09 -1.004092768e-08 -1.39271756e-08 -1.834678265e-08)
5(-6.248849517e-09 -7.719741404e-09 -1.010120662e-08 -1.328937207e-08 -1.502312903e-08)
5(-8.599420036e-09 -8.882061752e-09 -1.139515551e-08 -1.448501874e-08 -1.470898897e-08)
5(-1.114713638e-08 -1.113043514e-08 -1.398589379e-08 -1.733219573e-08 -1.710873744e-08)
5(-1.404193866e-08 -1.432674725e-08 -1.765723371e-08 -2.173869838e-08 -2.203110666e-08)
5(-1.745439776e-08 -1.819320186e-08 -2.207024715e-08 -2.705646453e-08 -2.812283338e-08)
5(-2.158888061e-08 -2.261531843e-08 -2.691858566e-08 -3.220255601e-08 -3.337347076e-08)
5(-2.658064201e-08 -2.754984188e-08 -3.207944134e-08 -3.698814767e-08 -3.741862231e-08)
5(-3.232529805e-08 -3.300533416e-08 -3.750931418e-08 -4.157559509e-08 -4.080959529e-08)
5(-3.872351146e-08 -3.908201103e-08 -4.321516761e-08 -4.59834284e-08 -4.388574378e-08)
5(-4.575911067e-08 -4.574061822e-08 -4.90163059e-08 -4.999674741e-08 -4.651856505e-08)
5(-5.339973057e-08 -5.290668007e-08 -5.484750667e-08 -5.33833633e-08 -4.825187318e-08)
5(-6.168724057e-08 -6.046047468e-08 -6.052590753e-08 -5.606010536e-08 -4.900011367e-08)
5(-7.071021729e-08 -6.834507037e-08 -6.606624899e-08 -5.817509093e-08 -4.881078888e-08)
5(-8.029468863e-08 -7.657508831e-08 -7.157132539e-08 -5.989842369e-08 -4.803965932e-08)
5(-9.065718283e-08 -8.529498557e-08 -7.726052717e-08 -6.153914401e-08 -4.692159861e-08)
5(-1.018026913e-07 -9.471718498e-08 -8.33089505e-08 -6.336679115e-08 -4.608287064e-08)
5(-1.14429963e-07 -1.051633165e-07 -8.992654367e-08 -6.567059343e-08 -4.560529598e-08)
5(-1.283375385e-07 -1.167100037e-07 -9.773373294e-08 -6.898336998e-08 -4.566036704e-08)
5(-1.440207153e-07 -1.299286868e-07 -1.06913639e-07 -7.354450829e-08 -4.702558693e-08)
5(-1.618429056e-07 -1.45213334e-07 -1.179114477e-07 -7.970266666e-08 -4.992554132e-08)
5(-1.819321491e-07 -1.626262894e-07 -1.309228479e-07 -8.766873255e-08 -5.438386775e-08)
5(-2.057143835e-07 -1.831255021e-07 -1.462935151e-07 -9.773981389e-08 -6.078345993e-08)
5(-2.32425224e-07 -2.065175966e-07 -1.641069929e-07 -1.102386181e-07 -7.000371933e-08)
5(-2.626745856e-07 -2.334228518e-07 -1.848467993e-07 -1.240047348e-07 -7.936912646e-08)
5(-2.971394101e-07 -2.644484539e-07 -2.087461608e-07 -1.399369675e-07 -9.075945793e-08)
5(-3.346467437e-07 -2.9867836e-07 -2.354727831e-07 -1.57900487e-07 -1.03914665e-07)
5(-3.76244622e-07 -3.365606745e-07 -2.647397258e-07 -1.768551108e-07 -1.17166077e-07)
5(-4.202686659e-07 -3.77469986e-07 -2.964950981e-07 -1.965198978e-07 -1.305031904e-07)
5(-4.711463583e-07 -4.231803193e-07 -3.296386177e-07 -2.160414843e-07 -1.434762241e-07)
5(-5.232283395e-07 -4.705005798e-07 -3.637926074e-07 -2.351320682e-07 -1.556018627e-07)
5(-5.769725908e-07 -5.19865981e-07 -3.991599557e-07 -2.530955645e-07 -1.654868055e-07)
5(-6.34711586e-07 -5.722161102e-07 -4.342958664e-07 -2.684608762e-07 -1.726034622e-07)
5(-6.934666665e-07 -6.259973239e-07 -4.684333822e-07 -2.79742047e-07 -1.754389541e-07)
5(-7.539715279e-07 -6.797123917e-07 -5.004453824e-07 -2.870348356e-07 -1.726061983e-07)
5(-8.138429308e-07 -7.328438492e-07 -5.29413177e-07 -2.886738526e-07 -1.640482011e-07)
5(-8.70435737e-07 -7.845168066e-07 -5.553860747e-07 -2.848018002e-07 -1.509181816e-07)
5(-9.2883947e-07 -8.35231757e-07 -5.769011268e-07 -2.740187204e-07 -1.290686886e-07)
5(-9.850523773e-07 -8.819367021e-07 -5.912260802e-07 -2.519391448e-07 -9.310924739e-08)
5(-1.037498635e-06 -9.243035941e-07 -5.990321519e-07 -2.142510645e-07 -3.397135814e-08)
5(-1.087028288e-06 -9.624208682e-07 -5.975798339e-07 -1.551652607e-07 5.516111723e-08)
5(-1.131807126e-06 -9.960706194e-07 -5.836985167e-07 -7.147338675e-08 1.728454413e-07)
5(-1.172714712e-06 -1.024874154e-06 -5.524869525e-07 2.940183272e-08 2.959196499e-07)
5(-1.213263862e-06 -1.049933138e-06 -4.982804044e-07 1.485821174e-07 4.165363092e-07)
5(-1.24624286e-06 -1.066129329e-06 -4.236851043e-07 2.817399005e-07 5.342755803e-07)
5(-1.270383559e-06 -1.063100308e-06 -3.293390315e-07 4.219835765e-07 6.564749332e-07)
5(-1.300555578e-06 -1.043179442e-06 -2.181119305e-07 5.61447442e-07 7.837926202e-07)
5(-1.31093374e-06 -9.980455842e-07 -9.907317096e-08 6.962781897e-07 9.171497387e-07)
5(-1.29681532e-06 -9.337784696e-07 1.853925654e-08 8.228698908e-07 1.050732416e-06)
5(-1.239596261e-06 -8.537552715e-07 1.307485101e-07 9.366252882e-07 1.157129053e-06)
5(-1.14906798e-06 -7.612078191e-07 2.324894131e-07 1.030823006e-06 1.236556131e-06)
5(-1.045603e-06 -6.640521316e-07 3.210505802e-07 1.09533061e-06 1.278960555e-06)
5(-9.4386458e-07 -5.700124536e-07 3.890442141e-07 1.120384589e-06 1.279082823e-06)
5(-8.602150378e-07 -4.935894365e-07 4.253773213e-07 1.093767628e-06 1.22195596e-06)
5(-7.928537502e-07 -4.382325804e-07 4.1755406e-07 1.00501216e-06 1.102900832e-06)
5(-7.687056205e-07 -4.287709894e-07 3.49737062e-07 8.455240173e-07 9.137558169e-07)
5(-7.806757224e-07 -4.748124075e-07 2.057267175e-07 6.142053438e-07 6.580080564e-07)
5(-8.636934377e-07 -5.956510056e-07 -2.61245704e-08 2.996254608e-07 3.331034642e-07)
5(-1.048200865e-06 -8.361240101e-07 -3.816100738e-07 -1.107933563e-07 -7.414491194e-08)
5(-1.4137593e-06 -1.204029531e-06 -1.038064318e-06 -9.866061348e-07 -8.779602668e-07)
)


60
(
5(-5.164813536e-09 -9.138587663e-09 -1.281456578e-08 -1.761877699e-08 -2.241688725e-08)
5(-7.706536358e-09 -9.693819045e-09 -1.31905036e-08 -1.75472531e-08 -1.982661387e-08)
5(-1.052203566e-08 -1.133906978e-08 -1.499004388e-08 -1.936052628e-08 -2.022325406e-08)
5(-1.354284876e-08 -1.417487458e-08 -1.825218746e-08 -2.305754996e-08 -2.36886193e-08)
5(-1.696102678e-08 -1.802990312e-08 -2.270154928e-08 -2.821963509e-08 -2.938217869e-08)
5(-2.098796418e-08 -2.26402515e-08 -2.792417567e-08 -3.418743313e-08 -3.605182405e-08)
5(-2.576138928e-08 -2.782127919e-08 -3.354538907e-08 -3.989417827e-08 -4.177455586e-08)
5(-3.153400911e-08 -3.358082558e-08 -3.938577219e-08 -4.502815975e-08 -4.604116588e-08)
5(-3.802300185e-08 -3.981379927e-08 -4.5407829e-08 -4.979646763e-08 -4.94325592e-08)
5(-4.519476128e-08 -4.664377107e-08 -5.154901288e-08 -5.419009971e-08 -5.235707793e-08)
5(-5.283931618e-08 -5.392008136e-08 -5.768260845e-08 -5.796362524e-08 -5.448607197e-08)
5(-6.109504576e-08 -6.162070975e-08 -6.362522568e-08 -6.096269746e-08 -5.569036134e-08)
5(-6.977755287e-08 -6.951409543e-08 -6.928675369e-08 -6.308984727e-08 -5.566744057e-08)
5(-7.891186551e-08 -7.756894861e-08 -7.467776507e-08 -6.460020297e-08 -5.481825321e-08)
5(-8.866534379e-08 -8.590323748e-08 -7.989763304e-08 -6.562571009e-08 -5.327100117e-08)
5(-9.905757159e-08 -9.465939783e-08 -8.51917602e-08 -6.664341174e-08 -5.176109523e-08)
5(-1.10188906e-07 -1.039630114e-07 -9.075530668e-08 -6.77734456e-08 -5.028486758e-08)
5(-1.222092259e-07 -1.140311931e-07 -9.706657402e-08 -6.958901967e-08 -4.931260833e-08)
5(-1.355857137e-07 -1.253135677e-07 -1.044094464e-07 -7.251765436e-08 -4.956716806e-08)
5(-1.50842278e-07 -1.382501905e-07 -1.132050219e-07 -7.6776553e-08 -5.098406666e-08)
5(-1.677566353e-07 -1.529493506e-07 -1.238371565e-07 -8.288312684e-08 -5.428369335e-08)
5(-1.877906538e-07 -1.704006398e-07 -1.366606301e-07 -9.085413583e-08 -5.929242356e-08)
5(-2.102547254e-07 -1.904742109e-07 -1.520041181e-07 -1.011260211e-07 -6.666952795e-08)
5(-2.362112347e-07 -2.139203919e-07 -1.702549837e-07 -1.138230021e-07 -7.632105178e-08)
5(-2.655043114e-07 -2.408411588e-07 -1.916381786e-07 -1.291616818e-07 -8.860119138e-08)
5(-2.992833353e-07 -2.718262669e-07 -2.161128723e-07 -1.460281922e-07 -1.013584505e-07)
5(-3.363015043e-07 -3.063613718e-07 -2.438920176e-07 -1.653591123e-07 -1.162956541e-07)
5(-3.778941695e-07 -3.452028478e-07 -2.744732784e-07 -1.860912577e-07 -1.324667912e-07)
5(-4.223564496e-07 -3.873398157e-07 -3.078821977e-07 -2.084593848e-07 -1.499855703e-07)
5(-4.721493868e-07 -4.337498194e-07 -3.436101433e-07 -2.313440109e-07 -1.670714111e-07)
5(-5.236863604e-07 -4.828110747e-07 -3.814026192e-07 -2.546179136e-07 -1.843989509e-07)
5(-5.796589673e-07 -5.35744488e-07 -4.204641052e-07 -2.76868747e-07 -2.004572938e-07)
5(-6.391304216e-07 -5.909298765e-07 -4.598567223e-07 -2.978179231e-07 -2.142041023e-07)
5(-6.998781345e-07 -6.479654139e-07 -4.998586014e-07 -3.168879744e-07 -2.254315705e-07)
5(-7.620778499e-07 -7.06058045e-07 -5.391453361e-07 -3.328123361e-07 -2.324400197e-07)
5(-8.246977041e-07 -7.647284358e-07 -5.769512764e-07 -3.441849532e-07 -2.340490554e-07)
5(-8.916510727e-07 -8.259278115e-07 -6.128688188e-07 -3.510568225e-07 -2.311465855e-07)