/*--------------------------------*- C++ -*----------------------------------*\
| =========                 |                                                 |
| \\      /  F ield         | OpenFOAM: The Open Source CFD Toolbox           |
|  \\    /   O peration     | Version:  2.3.1                                 |
|   \\  /    A nd           | Web:      www.OpenFOAM.org                      |
|    \\/     M anipulation  |                                                 |
\*---------------------------------------------------------------------------*/
FoamFile
{
    version     2.0;
    format      ascii;
    class       dictionary;
    location    "constant";
    object      DPSI54;
}
// * * * * * * * * * * * * * * * * * * * * * * * * * * * * * * * * * * * * * //

DPSI54_table
60
(

60
(
5(1.541020279e-17 -3.609762839e-18 -3.284393761e-18 2.403250206e-18 -1.117594e-17)
5(1.255376408e-17 -3.178082144e-19 -3.555430342e-18 3.091227813e-18 1.675639536e-19)
5(8.17699213e-15 4.512403944e-15 1.235773753e-18 3.418177282e-18 3.560213712e-18)
5(2.469772728e-14 1.444801724e-14 4.477857624e-18 2.248927909e-18 -3.315991597e-18)
5(3.426467588e-14 1.887855003e-14 2.236576615e-18 4.153992014e-18 2.731074282e-18)
5(3.152145715e-14 1.633140862e-14 1.410387694e-18 8.730501252e-19 4.469480059e-18)
5(5.869167063e-18 4.466848552e-18 2.736454283e-18 -3.376936915e-19 -3.355003925e-18)
5(-4.681743164e-18 -4.089238962e-18 2.523276292e-18 8.097918278e-18 7.576905943e-18)
5(4.249929446e-14 2.179329953e-14 3.884231393e-18 9.989305222e-18 7.198099137e-18)
5(7.667078465e-14 3.941539237e-14 3.237131976e-17 1.748881994e-17 7.474443836e-18)
5(8.811112946e-14 4.52206778e-14 5.501323311e-17 2.011677444e-17 1.290588913e-17)
5(2.679732174e-14 1.37308264e-14 1.237610263e-17 1.731356275e-17 1.254942088e-17)
5(-1.985895491e-17 -2.927683946e-18 1.400908985e-17 1.890400705e-17 2.384674279e-17)
5(-1.36514137e-17 2.635748603e-18 2.644624908e-17 2.938251702e-17 2.447280163e-17)
5(-2.966572306e-17 -2.815876223e-18 2.591207184e-17 3.669363294e-17 4.561789389e-17)
5(2.043776077e-15 1.140277217e-15 1.451633326e-16 9.702929942e-17 9.218195574e-17)
5(1.882085538e-15 1.018820928e-15 1.531714908e-16 1.466050633e-16 9.849958869e-17)
5(6.20579924e-16 4.253234623e-16 1.433371316e-16 9.688821462e-17 1.226675846e-16)
5(-2.137082241e-16 -3.785137001e-17 1.156684315e-16 9.120573416e-17 9.240515532e-17)
5(-2.131848293e-16 -6.505996658e-17 8.666309957e-17 1.649405305e-16 2.429349167e-16)
5(-2.934398669e-16 -8.558813162e-17 1.008195086e-16 2.511969306e-16 4.283787302e-16)
5(-3.989361248e-16 -2.23410712e-16 2.410885856e-16 5.038127371e-16 4.801992977e-16)
5(-6.061687261e-16 -2.676417423e-16 2.135024798e-16 5.745053023e-16 8.021464798e-16)
5(-1.321769407e-15 -4.723825368e-16 3.840700493e-16 8.195260384e-16 1.273394286e-15)
5(-3.176969846e-15 -7.609172299e-16 9.725962986e-16 1.171216943e-15 2.121753194e-15)
5(-7.557688846e-15 -1.85471305e-15 2.040526451e-15 2.150499906e-15 4.23690633e-15)
5(-9.318177304e-15 -2.960069849e-15 8.636228777e-16 2.716493413e-15 7.33191873e-15)
5(-9.698080136e-15 -6.102864049e-15 -2.664122121e-15 4.856221672e-15 1.276624421e-14)
5(-1.639111579e-14 -9.226124698e-15 -3.633588667e-15 6.700055602e-15 1.901216141e-14)
5(-3.108171393e-14 -1.583898747e-14 -1.951492005e-15 1.221796218e-14 2.84371612e-14)
5(-5.32798354e-14 -2.891642465e-14 -5.052148803e-15 2.389489418e-14 5.451405211e-14)
5(-8.257674686e-14 -4.118720378e-14 4.291384729e-15 5.501282534e-14 1.033350507e-13)
5(-1.394154838e-13 -6.950639506e-14 1.735449809e-14 7.464303034e-14 1.175284163e-13)
5(-2.19850274e-13 -1.131691826e-13 6.081906434e-14 1.990134081e-13 2.733544087e-13)
5(-2.872971145e-13 -1.356066676e-13 1.193384664e-13 3.252489005e-13 4.323564348e-13)
5(-4.574532147e-13 -2.441042984e-13 2.650259085e-13 5.99865307e-13 6.438306142e-13)
5(-3.780941682e-13 -4.858437942e-14 4.649481943e-13 6.655187995e-13 6.873147581e-13)
5(-5.168160513e-13 7.729037483e-14 7.908784619e-13 1.137157698e-12 1.372381166e-12)
5(-2.926096475e-13 2.673626685e-13 1.234882243e-12 1.349703793e-12 1.058719654e-12)
5(2.209606637e-13 6.39547169e-13 1.705468595e-12 2.079022943e-12 1.789743531e-12)
5(1.163320136e-12 1.524892325e-12 2.04978406e-12 1.843208334e-12 1.454066129e-12)
5(1.888908052e-12 2.197338738e-12 2.387627237e-12 1.61607597e-12 9.43928223e-13)
5(3.267809749e-12 2.963908485e-12 2.463213065e-12 1.147979749e-12 -1.618581652e-30)
5(3.816587655e-12 2.729601617e-12 2.230252389e-12 1.42270907e-12 -1.554749422e-14)
5(4.471760789e-12 3.029462596e-12 1.559694261e-12 7.903064023e-13 -1.092769147e-15)
5(3.563792505e-12 2.650642148e-12 1.078726468e-12 2.273750062e-13 -7.213554282e-29)
5(2.789464609e-12 1.870933162e-12 5.201898775e-13 6.158950402e-14 3.643509939e-15)
5(2.492951925e-12 1.328729842e-12 8.162512233e-14 1.31977828e-14 -7.471060381e-28)
5(1.022418176e-12 5.515848132e-13 3.605057148e-14 1.414643856e-15 -2.327143946e-27)
5(4.207135155e-13 2.126197013e-13 7.11200895e-16 -4.238810389e-27 -6.678809673e-27)
5(1.548339318e-13 7.808265651e-14 -3.087799498e-27 -1.186336226e-26 -1.863019048e-26)
5(3.004214686e-14 1.521532817e-14 -8.448304962e-27 -3.200739967e-26 -5.014970678e-26)
5(2.806688635e-16 1.423772536e-16 -2.244063052e-26 -8.393855708e-26 -1.31196081e-25)
5(-4.141314596e-27 -1.188274202e-26 -5.740919929e-26 -2.138367188e-25 -3.345754247e-25)
5(-1.064766383e-26 -3.044237284e-26 -1.437155787e-25 -5.263925664e-25 -8.207413973e-25)
5(-8.024798853e-27 -6.658036634e-26 -3.453337724e-25 -1.253643474e-24 -1.954565681e-24)
5(1.700933171e-26 -1.435210166e-25 -8.059475537e-25 -2.826361781e-24 -4.373715207e-24)
5(-1.924919508e-25 -3.775991083e-25 -1.727003473e-24 -6.108898148e-24 -9.381643857e-24)
5(-6.051597122e-25 -1.376223954e-24 -2.524855647e-24 -1.210303491e-23 -2.153230145e-23)
5(-1.339717741e-24 -3.763785443e-24 -1.777229102e-23 -4.886906764e-23 -6.862225124e-23)
)


60
(
5(1.961836813e-17 -1.121002721e-17 -9.200626722e-18 -1.033598962e-18 -2.52314714e-17)
5(2.38350987e-18 -3.993697879e-18 -1.593263548e-18 4.168015541e-18 1.281887444e-18)
5(-7.98174462e-18 -2.182122168e-18 2.146438372e-18 6.161541152e-18 1.145641046e-17)
5(-1.512572239e-17 -3.309699821e-18 3.394030774e-18 7.563949418e-18 1.671270008e-17)
5(-1.930173137e-17 -6.35194093e-18 2.684193335e-18 8.385388803e-18 1.813443906e-17)
5(-2.396100582e-17 -1.123471795e-17 2.306849021e-19 7.031213269e-18 1.555876415e-17)
5(-3.186885748e-17 -1.677396494e-17 -2.316743081e-18 5.305629458e-18 1.433449355e-17)
5(-4.691216234e-17 -2.400518876e-17 -5.223750864e-18 4.272389182e-18 1.90807033e-17)
5(-7.028298799e-17 -3.376334806e-17 -9.293481917e-18 2.657607341e-18 2.847512888e-17)
5(-1.05213289e-16 -5.064972156e-17 -1.626005461e-17 -3.221809307e-18 3.278739185e-17)
5(-1.420847405e-16 -7.22432949e-17 -2.790815704e-17 -7.444501054e-18 4.238571916e-17)
5(-2.029038886e-16 -1.089195496e-16 -4.427612121e-17 -1.083746113e-17 5.7358191e-17)
5(-2.825164495e-16 -1.579800103e-16 -6.685444956e-17 -1.769555701e-17 7.227198903e-17)
5(-3.8828307e-16 -2.229621585e-16 -9.456458366e-17 -1.681161242e-17 1.077447994e-16)
5(-5.375420096e-16 -3.111888911e-16 -1.292313913e-16 -1.263303796e-17 1.616367162e-16)
5(-7.465647227e-16 -4.363839516e-16 -1.780127957e-16 -1.146294503e-17 2.2479858e-16)
5(-9.88013033e-16 -5.881000958e-16 -2.497377507e-16 -1.842767064e-17 2.977257876e-16)
5(-1.355813622e-15 -8.172207209e-16 -3.549436157e-16 -1.732091865e-17 4.280089351e-16)
5(-1.874565635e-15 -1.147444708e-15 -5.21124831e-16 -4.657502416e-17 5.714530634e-16)
5(-2.611241559e-15 -1.627667079e-15 -7.990172343e-16 -1.20484067e-16 7.720900479e-16)
5(-3.665542258e-15 -2.346050909e-15 -1.266418158e-15 -3.603169611e-16 8.677553979e-16)
5(-5.216610999e-15 -3.4619061e-15 -2.078938964e-15 -7.789288879e-16 1.009023295e-15)
5(-7.805019405e-15 -5.32966235e-15 -3.503219338e-15 -1.702449197e-15 9.188955645e-16)
5(-1.205950833e-14 -8.506562861e-15 -6.098335108e-15 -3.469086841e-15 5.65988701e-16)
5(-1.859988067e-14 -1.365702107e-14 -1.081015834e-14 -7.069963934e-15 -8.359429203e-16)
5(-3.022001459e-14 -2.289270308e-14 -1.943339611e-14 -1.398756808e-14 -4.04219747e-15)
5(-4.95997271e-14 -3.895387992e-14 -3.504584582e-14 -2.648800616e-14 -1.018421313e-14)
5(-8.337930654e-14 -6.722625589e-14 -6.242017023e-14 -4.747292106e-14 -1.953119832e-14)
5(-1.402987502e-13 -1.158992518e-13 -1.093983509e-13 -8.378877345e-14 -3.762696006e-14)
5(-2.374858922e-13 -1.994917188e-13 -1.879830972e-13 -1.427765409e-13 -6.681462991e-14)
5(-3.937798973e-13 -3.366939757e-13 -3.145764661e-13 -2.296831627e-13 -1.030916403e-13)
5(-6.456522213e-13 -5.551078193e-13 -5.072870311e-13 -3.540945585e-13 -1.476568094e-13)
5(-1.031109425e-12 -8.924658401e-13 -7.882888935e-13 -5.171255323e-13 -1.956813392e-13)
5(-1.603161557e-12 -1.386864521e-12 -1.168459765e-12 -6.782989776e-13 -1.667716184e-13)
5(-2.407926838e-12 -2.07328016e-12 -1.629783778e-12 -7.935112012e-13 -3.273661192e-14)
5(-3.459265972e-12 -2.955237363e-12 -2.12862733e-12 -7.464466834e-13 3.587382389e-13)
5(-4.72871988e-12 -3.984241256e-12 -2.534097101e-12 -3.869997714e-13 1.113587202e-12)
5(-6.14650149e-12 -5.040399857e-12 -2.653908185e-12 4.89880403e-13 2.42723282e-12)
5(-7.388839284e-12 -5.851686027e-12 -2.235707145e-12 2.187688736e-12 4.61915059e-12)
5(-8.217222015e-12 -6.063264815e-12 -8.858690387e-13 5.012834185e-12 7.987193518e-12)
5(-7.957669804e-12 -5.18407134e-12 1.558977937e-12 8.93164317e-12 1.243833786e-11)
5(-6.509215221e-12 -3.045839277e-12 5.333594195e-12 1.358535155e-11 1.701785166e-11)
5(-3.08502052e-12 6.389658854e-13 1.001638251e-11 1.785326721e-11 2.010245947e-11)
5(2.161937419e-12 5.444085657e-12 1.468816148e-11 2.054555165e-11 2.045296125e-11)
5(7.896390483e-12 1.054406677e-11 1.827813715e-11 2.071506659e-11 1.802423588e-11)
5(1.312816181e-11 1.477021985e-11 1.945418e-11 1.817471425e-11 1.376900858e-11)
5(1.655630879e-11 1.702980329e-11 1.778020832e-11 1.360690947e-11 9.050182005e-12)
5(1.71162591e-11 1.637095891e-11 1.385017233e-11 8.590509849e-12 4.996428917e-12)
5(1.499561487e-11 1.326188536e-11 9.07691276e-12 4.496234994e-12 2.266990113e-12)
5(1.081360758e-11 8.765235147e-12 4.852617047e-12 1.94513613e-12 8.232553977e-13)
5(6.39466395e-12 4.747016286e-12 2.064665734e-12 6.674435732e-13 2.543016754e-13)
5(2.791387015e-12 1.940738124e-12 6.867472797e-13 1.872189397e-13 6.71458269e-14)
5(9.636329591e-13 6.274847328e-13 1.773502742e-13 4.389271168e-14 1.540449383e-14)
5(2.146489856e-13 1.350401055e-13 3.311941575e-14 7.953048332e-15 2.9847014e-15)
5(3.108892035e-14 1.977980238e-14 5.019543837e-15 1.173243404e-15 4.724602419e-16)
5(2.633649488e-15 1.681912767e-15 4.570181392e-16 1.323061186e-16 5.425362527e-17)
5(1.360187128e-16 9.718309009e-17 3.426805928e-17 7.790459686e-18 4.258949641e-18)
5(3.736138364e-18 2.744732064e-18 9.50563919e-19 2.625354082e-19 3.513313454e-19)
5(2.631864323e-19 -2.694217259e-19 3.300830926e-20 2.886631549e-19 -3.165503144e-19)
5(-4.432062889e-24 -1.612262248e-15 6.329076857e-19 1.649823191e-15 -1.087944562e-22)
)


60
(
5(2.745300264e-17 -2.774875837e-17 -2.61138426e-17 -9.51055722e-18 -4.857594559e-17)
5(-2.734651103e-19 -1.338617161e-17 -1.049261338e-17 1.654944079e-18 -1.497534915e-18)
5(-2.249313465e-17 -1.09575121e-17 -3.22071807e-18 6.092200663e-18 1.953152727e-17)
5(-3.966945509e-17 -1.586238498e-17 -2.93698582e-18 6.875899384e-18 2.820323397e-17)
5(-5.540095774e-17 -2.78668079e-17 -9.195688384e-18 5.280783668e-18 2.994384569e-17)
5(-7.267097372e-17 -4.564956728e-17 -2.102993095e-17 -3.655762191e-18 1.828786378e-17)
5(-1.007946812e-16 -6.849089998e-17 -3.524981621e-17 -1.343300681e-17 1.052992561e-17)
5(-1.479503456e-16 -9.792538361e-17 -5.304510726e-17 -2.449990432e-17 1.358075659e-17)
5(-2.247460507e-16 -1.412200241e-16 -7.605645718e-17 -3.862995538e-17 2.35442078e-17)
5(-3.22908367e-16 -2.005400534e-16 -1.08572246e-16 -4.967302438e-17 4.848857316e-17)
5(-4.542990157e-16 -2.844314853e-16 -1.501178723e-16 -6.200099941e-17 7.363300123e-17)
5(-6.127777824e-16 -3.918146103e-16 -2.024571522e-16 -6.910076162e-17 1.113128849e-16)
5(-8.443899958e-16 -5.467545227e-16 -2.621093895e-16 -5.676880976e-17 1.816639995e-16)
5(-1.141541806e-15 -7.374505886e-16 -3.236233472e-16 -1.172262543e-17 3.162911808e-16)
5(-1.513313995e-15 -9.703434835e-16 -3.818260246e-16 5.350842102e-17 4.758890458e-16)
5(-1.933988153e-15 -1.230122702e-15 -4.367856943e-16 1.677636319e-16 7.229812563e-16)
5(-2.604595981e-15 -1.629851778e-15 -4.950884697e-16 3.248902737e-16 1.036563076e-15)
5(-3.446635959e-15 -2.123114419e-15 -5.667159403e-16 4.916273827e-16 1.383352644e-15)
5(-4.47077531e-15 -2.750723346e-15 -7.159257172e-16 6.594111559e-16 1.804285707e-15)
5(-5.860778521e-15 -3.631126731e-15 -9.928168167e-16 8.114674696e-16 2.316079676e-15)
5(-7.566700127e-15 -4.817566217e-15 -1.554771747e-15 8.423202101e-16 2.865761905e-15)
5(-1.021144911e-14 -6.708621666e-15 -2.616637473e-15 2.164959716e-16 2.64507094e-15)
5(-1.421456219e-14 -9.626972791e-15 -4.546507871e-15 -1.023296684e-15 2.261902346e-15)
5(-1.98412277e-14 -1.41165473e-14 -8.233223134e-15 -3.919581999e-15 5.871383092e-16)
5(-2.895579781e-14 -2.177976379e-14 -1.519470278e-14 -9.859084049e-15 -3.428688694e-15)
5(-4.427819259e-14 -3.514574809e-14 -2.831879685e-14 -2.164029563e-14 -1.190272099e-14)
5(-6.945926815e-14 -5.804489762e-14 -5.174681892e-14 -4.366209848e-14 -2.932896693e-14)
5(-1.107640158e-13 -9.685835503e-14 -9.407578399e-14 -8.284288786e-14 -5.872767009e-14)
5(-1.846743243e-13 -1.662246856e-13 -1.674839e-13 -1.525920588e-13 -1.152306525e-13)
5(-3.046637745e-13 -2.830875464e-13 -2.932094059e-13 -2.722039474e-13 -2.152549092e-13)
5(-5.089535464e-13 -4.801526875e-13 -4.99750396e-13 -4.511585787e-13 -3.473722508e-13)
5(-8.399755665e-13 -7.991723847e-13 -8.260533659e-13 -7.348345415e-13 -5.653508338e-13)
5(-1.354168051e-12 -1.300798458e-12 -1.32341492e-12 -1.124935216e-12 -8.343029965e-13)
5(-2.131545768e-12 -2.056416232e-12 -2.028856757e-12 -1.654463508e-12 -1.208760462e-12)
5(-3.272940521e-12 -3.148763856e-12 -2.983132898e-12 -2.254682472e-12 -1.532848025e-12)
5(-4.834343987e-12 -4.6286573e-12 -4.17811393e-12 -2.890813701e-12 -1.79945716e-12)
5(-6.799098781e-12 -6.4862285e-12 -5.529652034e-12 -3.34194854e-12 -1.732395517e-12)
5(-9.359049049e-12 -8.737630517e-12 -6.823831621e-12 -3.318251486e-12 -1.016801973e-12)
5(-1.2018037e-11 -1.096579082e-11 -7.688983659e-12 -2.342259621e-12 8.9377466e-13)
5(-1.46171353e-11 -1.290622809e-11 -7.6469371e-12 1.296801837e-13 4.499676654e-12)
5(-1.649472796e-11 -1.389644904e-11 -6.087754025e-12 4.676394171e-12 1.039978589e-11)
5(-1.678844341e-11 -1.310626902e-11 -2.455699046e-12 1.105231288e-11 1.778018902e-11)
5(-1.488279983e-11 -1.011278214e-11 3.387537633e-12 1.85016845e-11 2.507137868e-11)
5(-1.028894261e-11 -4.71426634e-12 1.092713568e-11 2.555218982e-11 3.02651634e-11)
5(-2.995663674e-12 2.787779222e-12 1.863418323e-11 3.029368024e-11 3.198940516e-11)
5(5.677165071e-12 1.105528615e-11 2.462193789e-11 3.13357955e-11 2.989615879e-11)
5(1.36637867e-11 1.819928357e-11 2.722721711e-11 2.804828219e-11 2.435613011e-11)
5(1.964481426e-11 2.225565174e-11 2.547052634e-11 2.169065076e-11 1.723448305e-11)
5(2.178586727e-11 2.209494746e-11 2.01711678e-11 1.422595962e-11 1.041032672e-11)
5(1.957437124e-11 1.800652546e-11 1.343238757e-11 7.827125681e-12 5.113040564e-12)
5(1.444780083e-11 1.205987186e-11 7.258809014e-12 3.521196094e-12 2.095696471e-12)
5(8.31057933e-12 6.386103332e-12 3.107449379e-12 1.23858788e-12 6.570370289e-13)
5(3.575026008e-12 2.563891625e-12 1.016408864e-12 3.394846533e-13 1.669974117e-13)
5(1.059885088e-12 7.258751661e-13 2.422335434e-13 6.730342321e-14 3.188545169e-14)
5(2.1651161e-13 1.415251631e-13 3.973470763e-14 1.009964179e-14 5.061747595e-15)
5(2.394228343e-14 1.56932724e-14 4.305634142e-15 1.005500666e-15 6.023238369e-16)
5(1.630850725e-15 9.979732717e-16 2.221843748e-16 6.955686005e-17 4.146339313e-17)
5(4.48307328e-17 1.827666972e-17 2.970816726e-18 2.11907757e-18 -1.097220102e-17)
5(3.317336555e-15 -1.251011552e-18 -6.189771703e-16 3.08608056e-19 -2.217556977e-15)
5(3.409744978e-23 -3.51828752e-15 1.101266541e-18 3.601935125e-15 -2.030664853e-22)
)


60
(
5(3.25914894e-17 -5.905900876e-17 -6.011781575e-17 -2.550793663e-17 -7.933922519e-17)
5(-1.260833803e-17 -3.603307427e-17 -3.207937453e-17 -5.374041028e-18 -4.256945267e-18)
5(-5.449467398e-17 -3.431306439e-17 -2.05341833e-17 2.124150817e-18 3.262571747e-17)
5(-9.352600317e-17 -5.114352753e-17 -2.534023047e-17 3.285581396e-18 5.071939263e-17)
5(-1.322970108e-16 -8.421800492e-17 -4.549517653e-17 -4.520368549e-18 4.94747561e-17)
5(-1.787616969e-16 -1.318681236e-16 -7.933239154e-17 -2.868272138e-17 2.168885695e-17)
5(-2.528632547e-16 -1.969392532e-16 -1.249046297e-16 -5.633019138e-17 3.567420174e-18)
5(-3.76137483e-16 -2.856959504e-16 -1.805141841e-16 -8.026236341e-17 1.566921522e-17)
5(-5.550035751e-16 -4.035894571e-16 -2.493202341e-16 -1.08929822e-16 4.318188069e-17)
5(-7.876350116e-16 -5.622983973e-16 -3.377318162e-16 -1.309752682e-16 9.627918129e-17)
5(-1.095683341e-15 -7.798206087e-16 -4.480843315e-16 -1.466760721e-16 1.648551969e-16)
5(-1.484694276e-15 -1.064689762e-15 -5.725964869e-16 -1.130108878e-16 3.076854655e-16)
5(-1.972176013e-15 -1.419242178e-15 -6.941890757e-16 -2.438522674e-17 5.146312567e-16)
5(-2.656173565e-15 -1.87430534e-15 -7.976586049e-16 1.303711859e-16 8.159215813e-16)
5(-3.471250311e-15 -2.398350036e-15 -8.758569434e-16 4.333503539e-16 1.358208484e-15)
5(-4.429278289e-15 -3.013992295e-15 -9.389402476e-16 8.218171566e-16 2.002758394e-15)
5(-5.532923407e-15 -3.71635884e-15 -9.553170309e-16 1.371039262e-15 2.849198853e-15)
5(-7.218981784e-15 -4.744999254e-15 -9.609752892e-16 2.080615209e-15 3.933841566e-15)
5(-8.749156972e-15 -5.75217788e-15 -1.060216695e-15 2.767577545e-15 5.044976986e-15)
5(-1.151929246e-14 -7.493603786e-15 -1.250757669e-15 3.62577987e-15 6.471952245e-15)
5(-1.470434339e-14 -9.53187667e-15 -1.627400559e-15 4.3268394e-15 7.78377948e-15)
5(-1.744318093e-14 -1.174454461e-14 -2.697740109e-15 3.993210745e-15 7.603755103e-15)
5(-2.238161999e-14 -1.570809537e-14 -4.706250125e-15 3.618926234e-15 7.947496573e-15)
5(-3.267773824e-14 -2.339199983e-14 -8.627804896e-15 8.968769627e-16 5.403279072e-15)
5(-4.387371051e-14 -3.297268525e-14 -1.640161435e-14 -5.104434334e-15 1.131851072e-15)
5(-6.191119363e-14 -4.939555426e-14 -3.141473548e-14 -1.912141313e-14 -1.14704704e-14)
5(-8.980477295e-14 -7.685888649e-14 -5.944102716e-14 -4.681865448e-14 -3.755155111e-14)
5(-1.372048214e-13 -1.238534698e-13 -1.096128298e-13 -9.708401959e-14 -8.382984768e-14)
5(-2.144612753e-13 -2.029486536e-13 -1.9800766e-13 -1.869745493e-13 -1.670026611e-13)
5(-3.451759733e-13 -3.387357739e-13 -3.501797832e-13 -3.405118583e-13 -3.09426359e-13)
5(-5.626447771e-13 -5.672722998e-13 -6.057478076e-13 -5.981413006e-13 -5.514089597e-13)
5(-9.154669389e-13 -9.390899847e-13 -1.018306618e-12 -1.001609154e-12 -9.213279408e-13)
5(-1.476228598e-12 -1.532557191e-12 -1.663518819e-12 -1.608284372e-12 -1.466428268e-12)
5(-2.353264743e-12 -2.447455764e-12 -2.613369188e-12 -2.444328053e-12 -2.185422464e-12)
5(-3.653171463e-12 -3.795546435e-12 -3.960583946e-12 -3.593794918e-12 -3.177923149e-12)
5(-5.530294009e-12 -5.704209764e-12 -5.762962128e-12 -4.900586326e-12 -4.113557582e-12)
5(-8.049522581e-12 -8.255157849e-12 -8.004549284e-12 -6.359768451e-12 -5.115595687e-12)
5(-1.123402547e-11 -1.140569604e-11 -1.052914717e-11 -7.629745319e-12 -5.702117285e-12)
5(-1.507545011e-11 -1.506510764e-11 -1.301486802e-11 -8.10397698e-12 -5.128621573e-12)
5(-1.929319271e-11 -1.884397473e-11 -1.487894759e-11 -7.045185819e-12 -2.586912789e-12)
5(-2.325885503e-11 -2.19748625e-11 -1.530671201e-11 -3.593648161e-12 2.922248759e-12)
5(-2.620804549e-11 -2.36430216e-11 -1.33812832e-11 2.524000065e-12 1.09654512e-11)
5(-2.683138051e-11 -2.272480432e-11 -8.358825467e-12 1.128965231e-11 2.094362137e-11)
5(-2.429721819e-11 -1.852933893e-11 -1.105985639e-13 2.128015993e-11 3.028788228e-11)
5(-1.775874689e-11 -1.060557946e-11 1.033049721e-11 3.056425356e-11 3.725457503e-11)
5(-7.803181434e-12 2.633954748e-13 2.09188506e-11 3.692576088e-11 4.053506133e-11)
5(3.992265307e-12 1.218123897e-11 2.910122104e-11 3.825897269e-11 3.881709371e-11)
5(1.594331416e-11 2.240361424e-11 3.275471538e-11 3.45373986e-11 3.247219106e-11)
5(2.50171854e-11 2.833990158e-11 3.085801877e-11 2.663623124e-11 2.317015277e-11)
5(2.880916042e-11 2.868454986e-11 2.457008715e-11 1.727261373e-11 1.384588452e-11)
5(2.67924232e-11 2.368553322e-11 1.611581138e-11 9.400679506e-12 6.986730202e-12)
5(2.025234785e-11 1.593210187e-11 8.492063644e-12 4.143789826e-12 2.752577007e-12)
5(1.151301656e-11 8.363177444e-12 3.52585553e-12 1.395337846e-12 8.451136956e-13)
5(4.879168868e-12 3.305846665e-12 1.080170177e-12 3.369275241e-13 1.953865657e-13)
5(1.522643066e-12 9.570560144e-13 2.259811843e-13 5.483069014e-14 3.154744513e-14)
5(2.622003224e-13 1.566463749e-13 2.825949221e-14 6.023345114e-15 3.356299361e-15)
5(1.660285099e-14 1.057258475e-14 2.389268198e-15 3.420932238e-16 2.595096044e-16)
5(1.153692524e-15 7.074932032e-16 8.188674568e-17 1.097874417e-17 1.077127788e-16)
5(-2.120836858e-14 1.206842491e-16 5.865718481e-16 -1.05248024e-16 2.115341923e-14)
5(3.581396366e-19 1.829467052e-19 1.294549732e-21 -2.850524316e-22 -3.038348312e-22)
)


60
(
5(3.061456659e-17 -1.110709948e-16 -1.187596793e-16 -5.127163242e-17 -1.145357367e-16)
5(-4.076412028e-17 -7.912048e-17 -7.421806851e-17 -2.008476454e-17 -5.831067587e-18)
5(-1.140664285e-16 -8.24289631e-17 -5.918656196e-17 -8.71840541e-18 5.339530899e-17)
5(-1.886689526e-16 -1.223889501e-16 -7.712143734e-17 -8.547272826e-18 8.580838728e-17)
5(-2.715144735e-16 -1.977797254e-16 -1.259343534e-16 -2.881179689e-17 7.752902834e-17)
5(-3.782246145e-16 -3.045633906e-16 -2.022973835e-16 -7.900567888e-17 2.599548617e-17)
5(-5.376027791e-16 -4.512831867e-16 -3.054707765e-16 -1.398423901e-16 -1.972488465e-17)
5(-7.904585567e-16 -6.495734823e-16 -4.341619646e-16 -1.875063985e-16 3.937036991e-18)
5(-1.148684673e-15 -9.103075792e-16 -5.950213083e-16 -2.44456586e-16 5.587240305e-17)
5(-1.618963635e-15 -1.260597469e-15 -7.945248648e-16 -2.716324627e-16 1.792497404e-16)
5(-2.233931015e-15 -1.725608253e-15 -1.025189503e-15 -2.865319393e-16 3.063992985e-16)
5(-2.973577269e-15 -2.303946057e-15 -1.275958583e-15 -1.862545706e-16 6.030987892e-16)
5(-3.974981733e-15 -3.039590138e-15 -1.515117316e-15 1.361845128e-17 1.026007323e-15)
5(-5.063561481e-15 -3.845023115e-15 -1.719585081e-15 4.491013517e-16 1.799345127e-15)
5(-6.631047612e-15 -4.901727872e-15 -1.868141929e-15 1.028981303e-15 2.732222728e-15)
5(-8.46548463e-15 -6.138640247e-15 -1.978540287e-15 1.870982483e-15 4.022986634e-15)
5(-1.038394264e-14 -7.430423151e-15 -2.018456516e-15 2.94452089e-15 5.610522698e-15)
5(-1.305977105e-14 -9.136536852e-15 -2.006937377e-15 4.369743935e-15 7.739633634e-15)
5(-1.617351384e-14 -1.119612566e-14 -2.027950749e-15 5.932538524e-15 9.942771404e-15)
5(-2.008248119e-14 -1.381639846e-14 -2.180404472e-15 7.589750909e-15 1.228094194e-14)
5(-2.492118219e-14 -1.726225241e-14 -2.777457672e-15 9.225666746e-15 1.475444869e-14)
5(-3.135079737e-14 -2.206794915e-14 -4.019683574e-15 1.001471904e-14 1.57019434e-14)
5(-4.010898891e-14 -2.875058661e-14 -6.501813698e-15 1.073152706e-14 1.759535443e-14)
5(-5.116054532e-14 -3.769989333e-14 -1.104621821e-14 7.474245858e-15 1.341686343e-14)
5(-6.629202592e-14 -5.08442096e-14 -1.968046276e-14 2.583921487e-15 9.897597706e-15)
5(-9.106970294e-14 -7.293843215e-14 -3.594734374e-14 -1.205521823e-14 -6.064954755e-15)
5(-1.224709457e-13 -1.05850015e-13 -6.699938502e-14 -4.118764862e-14 -3.646697933e-14)
5(-1.701994493e-13 -1.56866988e-13 -1.209770781e-13 -9.553544436e-14 -9.122968291e-14)
5(-2.453899951e-13 -2.402218378e-13 -2.16081908e-13 -1.980415772e-13 -1.971980124e-13)
5(-3.785261454e-13 -3.850435124e-13 -3.796883499e-13 -3.74714272e-13 -3.792141987e-13)
5(-5.881326202e-13 -6.212676865e-13 -6.552465264e-13 -6.727683625e-13 -6.86282914e-13)
5(-9.277838939e-13 -1.006705875e-12 -1.112433466e-12 -1.172987429e-12 -1.202512136e-12)
5(-1.488055461e-12 -1.633198042e-12 -1.833312795e-12 -1.902619667e-12 -1.910510414e-12)
5(-2.369555839e-12 -2.612599567e-12 -2.926964703e-12 -2.993224389e-12 -2.978797963e-12)
5(-3.690650273e-12 -4.073905234e-12 -4.524160529e-12 -4.507666593e-12 -4.410126273e-12)
5(-5.600783365e-12 -6.18028685e-12 -6.739173388e-12 -6.463219047e-12 -6.187152811e-12)
5(-8.288514511e-12 -9.109685467e-12 -9.647034082e-12 -8.846872502e-12 -8.301172285e-12)
5(-1.194742416e-11 -1.297235717e-11 -1.322166973e-11 -1.148254951e-11 -1.047557815e-11)
5(-1.652536661e-11 -1.767695122e-11 -1.719610558e-11 -1.371486537e-11 -1.179986636e-11)
5(-2.190648935e-11 -2.296762052e-11 -2.108226574e-11 -1.481370915e-11 -1.139037625e-11)
5(-2.7636071e-11 -2.826174142e-11 -2.40267871e-11 -1.36856203e-11 -8.054390191e-12)
5(-3.29861194e-11 -3.264631869e-11 -2.48407105e-11 -9.37548248e-12 -1.165993397e-12)
5(-3.673182466e-11 -3.47787684e-11 -2.223686537e-11 -1.414184217e-12 9.091142745e-12)
5(-3.757002516e-11 -3.343820442e-11 -1.535614447e-11 9.605461805e-12 2.093284049e-11)
5(-3.405047249e-11 -2.728518651e-11 -4.306170179e-12 2.213861274e-11 3.271059998e-11)
5(-2.565474667e-11 -1.632691378e-11 9.503180968e-12 3.377322321e-11 4.187604678e-11)
5(-1.240621193e-11 -1.244249642e-12 2.328545095e-11 4.151817719e-11 4.668966771e-11)
5(3.95554344e-12 1.534065873e-11 3.426251232e-11 4.33505582e-11 4.514108748e-11)
5(2.031325929e-11 2.937591426e-11 3.940496695e-11 3.905778784e-11 3.787236358e-11)
5(3.322255004e-11 3.76686769e-11 3.754498117e-11 3.023843336e-11 2.749636635e-11)
5(3.96651956e-11 3.853375711e-11 3.002749402e-11 1.962596139e-11 1.645630003e-11)
5(3.851363627e-11 3.262583156e-11 1.962056246e-11 1.036242065e-11 7.980893165e-12)
5(2.941958812e-11 2.264777973e-11 1.069429817e-11 4.397632349e-12 3.046391031e-12)
5(1.772643077e-11 1.254683174e-11 4.542683407e-12 1.35810771e-12 8.285359616e-13)
5(7.932148815e-12 5.138095889e-12 1.348803495e-12 2.99818651e-13 1.567330016e-13)
5(2.899785031e-12 1.70879236e-12 2.70835497e-13 4.149087936e-14 2.148650655e-14)
5(5.869323975e-13 3.263584446e-13 3.061871319e-14 2.709282397e-15 1.67867937e-15)
5(5.575202679e-14 3.023449379e-14 2.004165756e-15 1.183491322e-16 1.250215758e-16)
5(-1.170395646e-14 1.963657374e-15 3.014801008e-15 -2.287756034e-18 1.026447144e-14)
5(4.356975359e-15 -1.419355468e-14 1.983353598e-17 1.688390836e-14 -4.018933617e-22)
)


60
(
5(1.583198998e-17 -1.90480683e-16 -2.106589741e-16 -8.871877676e-17 -1.486944505e-16)
5(-9.188138028e-17 -1.509445659e-16 -1.453376171e-16 -4.424304858e-17 -2.460327146e-18)
5(-2.162951854e-16 -1.700130506e-16 -1.285965494e-16 -2.615214533e-17 8.691504734e-17)
5(-3.455847926e-16 -2.502537043e-16 -1.700723736e-16 -3.869608856e-17 1.162436798e-16)
5(-4.913636417e-16 -3.897195354e-16 -2.685007101e-16 -8.58946026e-17 8.93410677e-17)
5(-6.893775649e-16 -5.924662467e-16 -4.208258668e-16 -1.770384609e-16 8.641488077e-18)
5(-9.77564076e-16 -8.685029687e-16 -6.23064482e-16 -3.024133557e-16 -9.602627098e-17)
5(-1.433976485e-15 -1.244550396e-15 -8.73701639e-16 -3.884668058e-16 -5.425574832e-17)
5(-2.062266139e-15 -1.730435045e-15 -1.182016655e-15 -4.867792588e-16 3.350350287e-17)
5(-2.902802724e-15 -2.387673349e-15 -1.55787064e-15 -5.421269176e-16 2.145709307e-16)
5(-3.916218114e-15 -3.210687936e-15 -1.995219399e-15 -5.493139765e-16 4.575187661e-16)
5(-5.302336424e-15 -4.304193323e-15 -2.462957626e-15 -3.741354513e-16 9.617836293e-16)
5(-6.869976587e-15 -5.548040781e-15 -2.918304844e-15 -6.697489034e-18 1.707607165e-15)
5(-8.902178271e-15 -7.069046464e-15 -3.328168119e-15 7.142771973e-16 2.98620327e-15)
5(-1.115661358e-14 -8.729455601e-15 -3.638741007e-15 1.672251083e-15 4.484857936e-15)
5(-1.402336771e-14 -1.07526674e-14 -3.842355434e-15 3.131806573e-15 6.667621684e-15)
5(-1.743924853e-14 -1.312819227e-14 -3.970615147e-15 4.776416588e-15 8.918540608e-15)
5(-2.129861875e-14 -1.583049465e-14 -4.074198766e-15 7.073897495e-15 1.222355496e-14)
5(-2.644910179e-14 -1.943031391e-14 -4.355171625e-15 9.228552444e-15 1.510432781e-14)
5(-3.199296149e-14 -2.359666459e-14 -4.929211538e-15 1.199039546e-14 1.904992838e-14)
5(-3.892732002e-14 -2.892648769e-14 -6.025385333e-15 1.451170145e-14 2.263195848e-14)
5(-4.985188137e-14 -3.711336056e-14 -8.21644069e-15 1.587005922e-14 2.438637026e-14)
5(-6.096844541e-14 -4.675902546e-14 -1.196873796e-14 1.688348912e-14 2.582468422e-14)
5(-7.609389662e-14 -6.022378562e-14 -1.865922649e-14 1.49573034e-14 2.364530552e-14)
5(-9.771802425e-14 -7.998988563e-14 -3.052060489e-14 6.841986488e-15 1.333511747e-14)
5(-1.258369696e-13 -1.078797192e-13 -5.050226718e-14 -6.473669575e-15 -8.669947065e-16)
5(-1.625886785e-13 -1.467292203e-13 -8.42905481e-14 -3.676352855e-14 -3.472164724e-14)
5(-2.183393047e-13 -2.064960921e-13 -1.41727095e-13 -9.566839121e-14 -1.013436178e-13)
5(-3.018244185e-13 -2.9992861e-13 -2.405720099e-13 -2.025992013e-13 -2.20836016e-13)
5(-4.29611926e-13 -4.487658921e-13 -4.084905559e-13 -3.857699178e-13 -4.212202549e-13)
5(-6.232412974e-13 -6.831284267e-13 -6.898831828e-13 -7.111124745e-13 -7.845652466e-13)
5(-9.472027958e-13 -1.068680228e-12 -1.14993323e-12 -1.234126542e-12 -1.358063035e-12)
5(-1.469726115e-12 -1.687986697e-12 -1.888750372e-12 -2.052583259e-12 -2.233844985e-12)
5(-2.297602645e-12 -2.660332969e-12 -3.037101688e-12 -3.346664439e-12 -3.643299838e-12)
5(-3.537286395e-12 -4.125570792e-12 -4.74970292e-12 -5.126735449e-12 -5.46954868e-12)
5(-5.392129778e-12 -6.287003084e-12 -7.19786086e-12 -7.570190865e-12 -7.928300944e-12)
5(-8.121834599e-12 -9.390166318e-12 -1.054439075e-11 -1.071513423e-11 -1.100039947e-11)
5(-1.183218104e-11 -1.355678518e-11 -1.483832891e-11 -1.448455453e-11 -1.457086018e-11)
5(-1.672579544e-11 -1.891059153e-11 -2.002239402e-11 -1.850146739e-11 -1.804050243e-11)
5(-2.270110283e-11 -2.530572874e-11 -2.57054965e-11 -2.193286222e-11 -2.033244563e-11)
5(-2.972106599e-11 -3.236842195e-11 -3.110919869e-11 -2.33314973e-11 -1.938102053e-11)