/*--------------------------------*- C++ -*----------------------------------*\
| =========                 |                                                 |
| \\      /  F ield         | OpenFOAM: The Open Source CFD Toolbox           |
|  \\    /   O peration     | Version:  2.3.1                                 |
|   \\  /    A nd           | Web:      www.OpenFOAM.org                      |
|    \\/     M anipulation  |                                                 |
\*---------------------------------------------------------------------------*/
FoamFile
{
    version     2.0;
    format      ascii;
    class       dictionary;
    location    "constant";
    object      DPSI20;
}
// * * * * * * * * * * * * * * * * * * * * * * * * * * * * * * * * * * * * * //

DPSI20_table
60
(

60
(
5(1.507385218e-17 4.157365615e-18 1.426137877e-17 5.251162442e-18 9.360477123e-18)
5(1.094430457e-17 1.891435699e-18 9.623722551e-18 3.987852427e-18 6.570885059e-18)
5(2.959321009e-18 -2.295421822e-19 2.54292614e-18 1.6013967e-18 1.566228261e-18)
5(0 2.191189182e-19 1.680904934e-19 1.698698419e-19 -5.444858847e-20)
5(-3.238139434e-19 3.341306497e-19 3.375927228e-19 -2.090479947e-19 6.134022508e-22)
5(-3.257705965e-19 2.204738631e-19 3.456507185e-19 9.171783073e-20 -2.004473837e-19)
5(3.149027378e-19 1.227291596e-19 -1.01649445e-19 1.458193099e-19 9.318542332e-20)
5(-1.931295068e-19 5.994824111e-20 5.515868735e-20 3.95854146e-20 2.539507644e-19)
5(-2.967750744e-19 9.753215977e-21 1.119324704e-19 6.483400381e-20 5.761274248e-21)
5(1.568987746e-19 -6.310036463e-22 5.954343839e-20 4.115593494e-20 2.909396503e-20)
5(2.630927659e-19 8.993752839e-20 1.062048506e-19 3.081518602e-20 1.935039094e-20)
5(4.849309035e-19 9.041424699e-20 8.421898343e-20 2.613322681e-20 1.303788966e-20)
5(1.589732927e-19 1.475819655e-20 3.436603054e-20 6.907778883e-21 7.914817152e-21)
5(1.230308225e-20 7.413959436e-21 8.068385404e-21 3.620438693e-21 2.402438986e-21)
5(6.924796325e-21 -4.054067347e-20 2.865245966e-21 1.801044467e-22 7.488115187e-22)
5(1.559693603e-21 -3.160989145e-20 5.002248345e-22 2.72579707e-22 3.560665549e-22)
5(2.373563253e-21 2.671275048e-20 1.817136896e-21 1.387907889e-21 3.063305473e-22)
5(2.449304439e-21 2.7655053e-20 1.568687947e-21 5.832488776e-22 8.022409248e-23)
5(1.178322825e-21 2.245744185e-20 2.529978143e-22 9.70320935e-23 3.99474872e-23)
5(2.547231201e-22 8.513513059e-21 1.324864796e-22 5.175010358e-23 5.559649087e-23)
5(1.666425568e-22 9.40020285e-23 7.674092396e-23 4.038233462e-23 3.604981953e-23)
5(8.734818656e-23 5.242582551e-23 3.688485319e-23 1.962623424e-23 9.245418476e-24)
5(5.255651628e-23 2.368301277e-23 2.738373796e-23 6.170516655e-24 3.085056201e-24)
5(3.199843645e-23 9.935016608e-24 1.393465756e-23 3.6572406e-24 1.815615043e-24)
5(1.371088145e-23 -1.299656255e-24 3.126100589e-24 -2.131822138e-25 2.112951946e-25)
5(7.7356298e-24 -3.259193928e-24 -1.24856583e-24 -3.400933825e-24 -1.014775895e-24)
5(-1.241150754e-24 -1.028138939e-24 -7.801844474e-24 -7.857687448e-24 -2.865703791e-24)
5(-1.801622357e-23 -1.802845806e-23 -1.830160436e-23 -1.482199649e-23 -6.158582651e-24)
5(-3.943354564e-23 -5.138033712e-23 -3.464871073e-23 -2.466915883e-23 -1.100170095e-23)
5(-7.819249717e-23 -1.007295605e-22 -7.447916752e-23 -5.255071862e-23 -2.084709814e-23)
5(-1.486287393e-22 -1.767653348e-22 -1.261557535e-22 -7.972728199e-23 -2.191643491e-23)
5(-2.679092387e-22 -3.252588024e-22 -2.29168014e-22 -1.292757253e-22 -5.687741377e-23)
5(-4.984878307e-22 -5.963936497e-22 -4.389895963e-22 -2.021396169e-22 -4.976238105e-23)
5(-8.929651727e-22 -9.30557442e-22 -6.493624296e-22 -2.736148468e-22 -3.148473428e-23)
5(-1.468928647e-21 -1.549717866e-21 -1.149554631e-21 -3.588075779e-22 -6.238043405e-23)
5(-2.260331168e-21 -1.811121116e-21 -8.853265573e-22 -2.089252872e-22 -3.879213147e-23)
5(-3.175849225e-21 -2.340134645e-21 -5.802430805e-22 -1.288122343e-22 1.123344771e-22)
5(-4.189908022e-21 -2.621121184e-21 -1.047666421e-21 3.844649217e-23 5.977685591e-23)
5(-5.388881211e-21 -1.970096258e-21 -8.864583233e-22 2.90181505e-22 4.81104966e-23)
5(-4.814405719e-21 -2.406597129e-22 8.637826644e-22 3.877905822e-22 1.1187969e-22)
5(-1.755952575e-21 1.713220477e-21 2.049028554e-21 4.141269807e-22 1.205471507e-25)
5(1.248043174e-21 3.156762457e-21 1.658301313e-21 3.311145856e-22 1.485923538e-25)
5(3.648084937e-21 3.34022214e-21 7.56145055e-22 1.793750302e-22 -4.424544647e-24)
5(5.654198538e-21 2.536589462e-21 4.370842751e-22 -2.949547681e-48 -3.14948098e-25)
5(6.690395923e-21 1.87394666e-21 6.967695713e-22 -1.633519634e-47 4.53457274e-24)
5(5.507933115e-21 8.532542607e-22 2.077694644e-22 -2.056098552e-24 3.22628776e-25)
5(2.731132632e-21 3.785514653e-22 1.464510901e-23 9.647625923e-29 -2.340235817e-45)
5(1.206676244e-21 9.031690586e-23 3.566353891e-24 2.103182361e-24 -9.938137399e-45)
5(5.811871569e-22 2.468537881e-24 2.001270189e-24 -5.558095531e-45 -3.902323744e-44)
5(8.302862815e-23 4.018463342e-25 4.624741363e-25 -2.158564249e-44 -1.466572315e-43)
5(1.131650348e-23 9.760533578e-27 -8.112423554e-45 -7.945530127e-44 -5.338087864e-43)
5(1.509801894e-24 -3.195170147e-45 -2.959053319e-44 -2.802594474e-43 -1.841797116e-42)
5(1.790494876e-25 -1.1380951e-44 -1.040415287e-43 -9.35809902e-43 -6.149434329e-42)
5(7.542430314e-29 -3.901523198e-44 -3.511152167e-43 -3.060054206e-42 -1.95679479e-41)
5(-1.60263449e-43 -1.276673817e-43 -1.141771101e-42 -9.432561763e-42 -5.945159896e-41)
5(-7.23016425e-43 -4.101239925e-43 -3.598392814e-42 -2.790783075e-41 -1.669467185e-40)
5(-1.149732245e-42 -4.050542069e-42 -1.118951579e-41 -7.868847008e-41 -4.445750886e-40)
5(-1.109484808e-42 -1.051275869e-41 -5.865209423e-41 -1.189919891e-40 -1.098495577e-39)
5(-1.21084655e-42 -1.97732621e-41 1.274689514e-41 -1.649553358e-39 -7.06747986e-39)
5(-1.377819402e-42 -2.622103527e-41 1.282495383e-40 -3.231058572e-39 -1.274285588e-38)
)


60
(
5(4.009839306e-17 1.457656398e-19 3.462862156e-17 9.879800603e-18 1.564273006e-17)
5(3.031326063e-17 1.20339669e-18 2.440348789e-17 7.662967221e-18 1.124520185e-17)
5(1.264374291e-17 2.736031874e-18 7.965616383e-18 3.593473222e-18 3.938552962e-18)
5(3.770145841e-18 3.127937357e-18 1.881220589e-18 1.858346561e-18 9.461562396e-19)
5(1.005227943e-18 3.490128675e-18 6.226909909e-19 1.544414628e-18 2.853189289e-19)
5(2.933878665e-18 4.486022439e-18 2.384315663e-18 2.748840978e-18 1.425002469e-18)
5(5.143186006e-18 5.358390525e-18 4.96298076e-18 4.362299938e-18 3.091204066e-18)
5(6.597854365e-18 5.933640088e-18 6.659640583e-18 5.042633427e-18 4.022131496e-18)
5(8.232243429e-18 6.543442402e-18 6.770477543e-18 4.969003218e-18 4.015667976e-18)
5(8.486811246e-18 6.253930018e-18 5.935696891e-18 3.968225071e-18 3.127773735e-18)
5(7.20755986e-18 4.462130164e-18 4.153372479e-18 2.35905471e-18 1.793268532e-18)
5(5.235409684e-18 2.442531558e-18 2.223769088e-18 1.078190809e-18 7.618401649e-19)
5(2.837240413e-18 1.203995011e-18 1.011288809e-18 4.533492717e-19 2.889168058e-19)
5(1.501201686e-18 5.994562988e-19 4.684413606e-19 2.053326239e-19 1.223249923e-19)
5(8.055622773e-19 3.199412166e-19 2.34734211e-19 1.006864658e-19 5.746208617e-20)
5(4.539442047e-19 1.810167237e-19 1.256086397e-19 5.26967299e-20 2.870283403e-20)
5(2.629856192e-19 1.058680267e-19 6.99969167e-20 2.877906587e-20 1.495036408e-20)
5(1.632705738e-19 6.386603733e-20 4.031558105e-20 1.620483028e-20 8.052261353e-21)
5(1.046771904e-19 3.973377027e-20 2.406489751e-20 9.441133786e-21 4.526666725e-21)
5(6.848291608e-20 2.577372232e-20 1.480973125e-20 5.630766669e-21 2.571130358e-21)
5(4.616235424e-20 1.70684581e-20 9.344773755e-21 3.430172411e-21 1.479804191e-21)
5(3.097579412e-20 1.138251892e-20 5.941960304e-21 2.109871379e-21 8.640300618e-22)
5(2.251224927e-20 7.691345249e-21 3.821610971e-21 1.281894822e-21 5.009785394e-22)
5(1.662107105e-20 5.24639304e-21 2.456233414e-21 7.647152798e-22 2.71394427e-22)
5(1.147546233e-20 3.533497424e-21 1.547704839e-21 4.273236089e-22 1.200575526e-22)
5(8.29543288e-21 2.363905115e-21 9.315273076e-22 1.797763542e-22 -4.814676758e-24)
5(5.784457447e-21 1.485720663e-21 4.55192948e-22 -4.199883488e-23 -1.36949455e-22)
5(3.936553611e-21 7.841449726e-22 4.128082806e-23 -3.013566093e-22 -3.240988339e-22)
5(2.606513984e-21 1.133778197e-22 -4.226196258e-22 -6.816842709e-22 -6.364271756e-22)
5(1.370436977e-21 -6.546954782e-22 -1.080237404e-21 -1.311250161e-21 -1.165774438e-21)
5(8.35747477e-23 -1.719514971e-21 -2.123312232e-21 -2.369731066e-21 -2.057392455e-21)
5(-1.476807182e-21 -3.360181144e-21 -3.83796012e-21 -4.102942207e-21 -3.514213182e-21)
5(-3.652594892e-21 -5.969206966e-21 -6.597111923e-21 -6.797883349e-21 -5.618208519e-21)
5(-6.965289569e-21 -1.004974449e-20 -1.082244145e-20 -1.062864357e-20 -8.423296702e-21)
5(-1.198731697e-20 -1.599384957e-20 -1.674587462e-20 -1.551061267e-20 -1.165776547e-20)
5(-1.931005833e-20 -2.397151272e-20 -2.412969225e-20 -2.078000553e-20 -1.452045008e-20)
5(-2.903044265e-20 -3.351545982e-20 -3.187633901e-20 -2.496288269e-20 -1.577166167e-20)
5(-4.053184968e-20 -4.264427221e-20 -3.757666618e-20 -2.579441995e-20 -1.348948556e-20)
5(-5.182752463e-20 -4.854012426e-20 -3.790761193e-20 -2.086031142e-20 -6.239803794e-21)
5(-5.895117799e-20 -4.665145812e-20 -2.939476952e-20 -9.129238838e-21 4.823263896e-21)
5(-5.646841651e-20 -3.382024386e-20 -1.161753229e-20 7.837975604e-21 1.569923095e-20)
5(-4.076516294e-20 -9.502779606e-21 1.245927597e-20 2.516797944e-20 2.160765638e-20)
5(-1.13734481e-20 2.247090567e-20 3.619443691e-20 3.593834441e-20 2.074472745e-20)
5(2.706996511e-20 5.091117178e-20 5.113639108e-20 3.598074187e-20 1.520067607e-20)
5(6.23356785e-20 6.634361065e-20 5.247653818e-20 2.720779108e-20 8.592306389e-21)
5(8.14174482e-20 6.504461673e-20 4.161565414e-20 1.571285081e-20 3.702606432e-21)
5(7.942015299e-20 5.003888736e-20 2.551556047e-20 6.912076686e-21 1.174249433e-21)
5(6.046290075e-20 3.03120456e-20 1.179302554e-20 2.292154496e-21 2.686998372e-22)
5(3.601222218e-20 1.415997175e-20 4.018902488e-21 5.557010692e-22 4.38370572e-23)
5(1.657078092e-20 4.927161195e-21 9.771146062e-22 9.5232215e-23 5.137243058e-24)
5(5.518235505e-21 1.203785728e-21 1.67093133e-22 1.108167604e-23 4.630929811e-25)
5(1.310477606e-21 1.966469024e-22 1.842908654e-23 9.448611363e-25 3.275794077e-26)
5(1.905639808e-22 2.03738549e-23 1.370143868e-24 5.915097404e-26 1.814197512e-27)
5(1.953102993e-23 1.302810816e-24 7.086128947e-26 2.769061203e-27 7.662917902e-29)
5(8.736148337e-25 4.495916297e-26 2.163203069e-27 -5.552810771e-28 2.692281604e-30)
5(1.89152062e-26 7.355282459e-26 6.7404809e-29 -1.708559677e-25 8.202619043e-32)
5(1.395071108e-28 -3.414134056e-24 1.536431363e-28 -3.821758296e-23 4.190862753e-33)
5(4.875920806e-31 1.139605061e-22 3.255120634e-25 5.513973023e-23 2.665118819e-34)
5(1.107703943e-33 3.505355314e-24 1.643097728e-29 3.882802131e-23 9.604352069e-36)
5(5.536273071e-36 -2.304134832e-22 -6.564817332e-25 -1.111284367e-22 1.295017911e-37)
)


60
(
5(5.979333152e-17 -2.174380988e-17 6.624005381e-17 1.73226405e-17 2.584817476e-17)
5(5.104630644e-17 -1.574117932e-17 4.764069689e-17 1.341824117e-17 1.894389856e-17)
5(2.602169115e-17 -2.377437719e-18 1.485039396e-17 6.002050239e-18 6.554641221e-18)
5(7.21010384e-18 5.64569325e-18 1.548458089e-18 3.05880458e-18 1.359930757e-18)
5(-2.222997283e-19 9.586946144e-18 2.707178151e-19 3.860652201e-18 8.14687305e-19)
5(6.124865854e-18 1.509226102e-17 8.151041844e-18 8.424170889e-18 4.072937384e-18)
5(2.268764631e-17 2.32352405e-17 1.930436446e-17 1.439353623e-17 8.988209888e-18)
5(3.941466018e-17 3.211708643e-17 2.814555031e-17 1.900192948e-17 1.222604472e-17)
5(5.180039866e-17 3.885673271e-17 3.25678809e-17 2.071019814e-17 1.309351217e-17)
5(5.632473344e-17 3.867084705e-17 3.074258392e-17 1.760190197e-17 1.077075582e-17)
5(5.363007636e-17 2.935807998e-17 2.255753188e-17 1.100232e-17 6.322738302e-18)
5(4.002625792e-17 1.693219361e-17 1.228061957e-17 5.137744647e-18 2.760931144e-18)
5(2.274133208e-17 8.471228014e-18 5.615481739e-18 2.118939213e-18 1.016894393e-18)
5(1.201621368e-17 4.215273187e-18 2.582053655e-18 9.406670288e-19 4.23739333e-19)
5(6.620380046e-18 2.245752633e-18 1.295736098e-18 4.639481785e-19 2.004914485e-19)
5(3.763686122e-18 1.273773458e-18 6.95369035e-19 2.458183134e-19 1.004090256e-19)
5(2.299815674e-18 7.5692815e-19 3.936853467e-19 1.36109457e-19 5.348838019e-20)
5(1.419027294e-18 4.694631896e-19 2.314564024e-19 7.782671435e-20 2.947849519e-20)
5(9.308772192e-19 2.980604406e-19 1.412469231e-19 4.600150022e-20 1.698948793e-20)
5(6.119871337e-19 1.938227443e-19 8.774412531e-20 2.794551764e-20 9.979604997e-21)
5(4.284589673e-19 1.290826264e-19 5.583629115e-20 1.736868596e-20 5.967238397e-21)
5(3.139388021e-19 8.744599117e-20 3.615783446e-20 1.099319779e-20 3.589524553e-21)
5(2.16539523e-19 5.975083737e-20 2.373269586e-20 6.952750532e-21 2.183007432e-21)
5(1.597939068e-19 4.123403901e-20 1.559837608e-20 4.359206221e-21 1.302330237e-21)
5(1.151355526e-19 2.851781737e-20 1.021030024e-20 2.703036242e-21 7.118304659e-22)
5(8.880263796e-20 1.968890171e-20 6.600613442e-21 1.571979996e-21 2.902206092e-22)
5(6.202629945e-20 1.352042892e-20 4.111263344e-21 7.221070553e-22 -8.57378243e-23)
5(4.753570139e-20 8.996802297e-21 2.253500772e-21 -1.806608027e-23 -5.204211178e-22)
5(3.710681691e-20 5.467565941e-21 7.350349146e-22 -8.461188787e-22 -1.157726639e-21)
5(2.585656312e-20 2.713857573e-21 -7.91403763e-22 -1.985963699e-21 -2.145541145e-21)
5(1.859125505e-20 2.430953483e-23 -2.706347984e-21 -3.764070874e-21 -3.805251831e-21)
5(1.20455493e-20 -3.121473651e-21 -5.47775565e-21 -6.624318687e-21 -6.488620411e-21)
5(5.841588276e-21 -7.190798601e-21 -9.729891084e-21 -1.106075243e-20 -1.063426262e-20)
5(-1.226798108e-21 -1.306682751e-20 -1.619958213e-20 -1.764844564e-20 -1.64358327e-20)
5(-1.028628251e-20 -2.163015911e-20 -2.553634732e-20 -2.672388034e-20 -2.391168547e-20)
5(-2.134317238e-20 -3.341742272e-20 -3.796394158e-20 -3.776081524e-20 -3.219863906e-20)
5(-3.479447728e-20 -4.841342464e-20 -5.251741596e-20 -4.89639241e-20 -3.88093776e-20)
5(-5.263417885e-20 -6.520692732e-20 -6.630367325e-20 -5.683766656e-20 -4.019926694e-20)
5(-7.166584653e-20 -7.982597551e-20 -7.472208723e-20 -5.653158781e-20 -3.257107958e-20)
5(-8.717971071e-20 -8.630383694e-20 -7.152957891e-20 -4.34289521e-20 -1.378677352e-20)
5(-9.388691702e-20 -7.824100121e-20 -5.11435078e-20 -1.595948897e-20 1.260376429e-20)
5(-8.366030177e-20 -5.031385535e-20 -1.339572e-20 2.142905652e-20 3.760141238e-20)
5(-5.072930471e-20 -3.825385555e-21 3.396955307e-20 5.757809072e-20 5.274658857e-20)
5(9.970171541e-22 5.100149682e-20 7.773662119e-20 7.906266565e-20 5.372958132e-20)
5(6.055326749e-20 9.771609392e-20 1.031570896e-19 7.892657991e-20 4.278103785e-20)
5(1.106630013e-19 1.201428135e-19 1.020929763e-19 6.143565897e-20 2.678587376e-20)
5(1.331400764e-19 1.135597155e-19 7.892251133e-20 3.769044469e-20 1.30400572e-20)
5(1.231749603e-19 8.544113082e-20 4.765910471e-20 1.798495329e-20 4.91138874e-21)
5(9.048263798e-20 5.062522822e-20 2.222302987e-20 6.590148475e-21 1.350574883e-21)
5(5.23100872e-20 2.320680116e-20 7.761594661e-21 1.808025179e-21 2.740712486e-22)
5(2.328947722e-20 7.916605882e-21 1.978469845e-21 3.482137735e-22 3.960127895e-23)
5(7.707069422e-21 1.900849894e-21 3.487225042e-22 4.770170425e-23 3.849278555e-24)
5(1.698107723e-21 2.993865469e-22 3.93908978e-23 4.190525785e-24 2.956943141e-25)
5(2.310201761e-22 2.890476592e-23 2.766801031e-24 2.463452959e-25 1.485203942e-26)
5(1.612379554e-23 1.603287608e-24 1.038501433e-25 4.589720163e-26 5.274414426e-28)
5(6.176040038e-25 1.777675443e-23 -4.657513221e-26 8.793439451e-24 1.483648322e-29)
5(9.477850314e-27 5.184243078e-21 -1.132358286e-23 2.423446907e-21 2.943128605e-31)
5(3.986813104e-29 2.129061709e-18 1.613081317e-23 8.108087321e-19 9.588867358e-33)
5(3.190209438e-32 -4.1314986e-21 1.149129122e-23 -2.085573782e-21 3.680371693e-34)
5(1.440048504e-34 -4.290032628e-18 -3.234037886e-23 -1.634206854e-18 3.93744738e-36)
)


60
(
5(1.762501121e-17 -1.022386399e-16 9.646197259e-17 2.205697138e-17 3.821045442e-17)
5(2.006302541e-17 -8.282209789e-17 6.823534774e-17 1.61909202e-17 2.810457937e-17)
5(1.464189309e-17 -3.328337079e-17 1.652612023e-17 5.440810673e-18 9.384248199e-18)
5(-1.1938543e-17 -7.403563668e-19 -6.89049211e-18 2.315367888e-18 6.271017839e-19)
5(-2.927574066e-17 1.497998353e-17 -5.260044688e-18 7.182835659e-18 3.596190912e-19)
5(3.035809814e-18 3.874821593e-17 2.0612632e-17 2.012019811e-17 8.768396148e-18)
5(6.820235566e-17 7.058099945e-17 5.484766047e-17 3.654293161e-17 2.036192367e-17)
5(1.258041628e-16 1.018676071e-16 8.359654381e-17 5.139341001e-17 2.901828103e-17)
5(1.825615497e-16 1.346506044e-16 1.012614423e-16 5.912128662e-17 3.225733912e-17)
5(2.378437209e-16 1.436002167e-16 9.980882342e-17 5.314034301e-17 2.765796608e-17)
5(2.341928222e-16 1.142137952e-16 7.652667419e-17 3.538474238e-17 1.735279037e-17)
5(1.731978079e-16 6.953012566e-17 4.407430118e-17 1.73123434e-17 7.97311931e-18)
5(1.052138682e-16 3.490376379e-17 2.029017456e-17 7.127020544e-18 2.964059363e-18)
5(5.72963113e-17 1.715207356e-17 9.090323119e-18 3.062130116e-18 1.175436065e-18)
5(3.133482999e-17 9.055787438e-18 4.484372031e-18 1.484561081e-18 5.538831017e-19)
5(1.744625322e-17 5.135623204e-18 2.396533233e-18 7.853259777e-19 2.805976177e-19)
5(1.079839901e-17 3.046817282e-18 1.351801745e-18 4.363713929e-19 1.519548504e-19)
5(6.918380465e-18 1.874068586e-18 7.946064583e-19 2.508973643e-19 8.464541384e-20)
5(4.44415885e-18 1.187057197e-18 4.830719562e-19 1.494962349e-19 4.978353154e-20)
5(3.063164012e-18 7.698019199e-19 3.020991941e-19 9.142816198e-20 2.96898187e-20)
5(2.137797503e-18 5.165840968e-19 1.931963602e-19 5.729598276e-20 1.807326788e-20)
5(1.525655669e-18 3.514609087e-19 1.249815121e-19 3.651067753e-20 1.12266298e-20)
5(1.125230071e-18 2.398801218e-19 8.252046719e-20 2.353348809e-20 7.012112586e-21)
5(8.526701496e-19 1.671203611e-19 5.502452475e-20 1.511685009e-20 4.446209213e-21)
5(6.185114897e-19 1.184074375e-19 3.685997168e-20 9.700132279e-21 2.709501839e-21)
5(4.672693594e-19 8.401484205e-20 2.451392081e-20 6.1178574e-21 1.452952773e-21)
5(3.587780562e-19 5.938213004e-20 1.601624953e-20 3.589401174e-21 5.315525874e-22)
5(2.8516209e-19 4.225889906e-20 1.008130843e-20 1.637208778e-21 -3.546046463e-22)
5(2.396346262e-19 2.939737629e-20 5.74561409e-21 -7.314687105e-23 -1.397553804e-21)
5(1.832871538e-19 1.978653948e-20 2.129688734e-21 -1.956113551e-21 -2.894175557e-21)
5(1.436246735e-19 1.215953582e-20 -1.397525002e-21 -4.482650524e-21 -5.248810988e-21)
5(1.176382141e-19 5.335440357e-21 -5.462574592e-21 -8.236188623e-21 -8.977091904e-21)
5(8.91177615e-20 -1.549134682e-21 -1.098013171e-20 -1.394554394e-20 -1.467280292e-20)
5(6.551415758e-20 -9.965092859e-21 -1.904161386e-20 -2.252235727e-20 -2.325454832e-20)
5(4.471527309e-20 -2.086735461e-20 -3.061604139e-20 -3.473587002e-20 -3.448969375e-20)
5(1.854883133e-20 -3.534092049e-20 -4.649716957e-20 -5.05129668e-20 -4.812634986e-20)
5(-6.068912145e-21 -5.425294531e-20 -6.62745146e-20 -6.85133877e-20 -6.231319467e-20)
5(-3.430653225e-20 -7.64934545e-20 -8.77064314e-20 -8.508429944e-20 -7.12542947e-20)
5(-6.445110183e-20 -9.901303935e-20 -1.057758808e-19 -9.386784975e-20 -6.89511765e-20)
5(-9.166889655e-20 -1.162066825e-19 -1.121782601e-19 -8.73394211e-20 -4.955669774e-20)
5(-1.121404649e-19 -1.190559827e-19 -9.833774536e-20 -5.91260912e-20 -1.393509875e-20)
5(-1.163927415e-19 -9.863706109e-20 -5.907769844e-20 -9.393655852e-21 3.076822496e-20)
5(-9.537773377e-20 -5.113162305e-20 2.759605024e-21 5.132396391e-20 7.161638844e-20)
5(-4.668682894e-20 1.813562008e-20 7.379522965e-20 1.039408653e-19 9.492751174e-20)
5(2.374473942e-20 9.277349781e-20 1.32719766e-19 1.303477594e-19 9.537487385e-20)
5(9.94738423e-20 1.497412823e-19 1.594933222e-19 1.241659208e-19 7.518895227e-20)
5(1.560106881e-19 1.71297044e-19 1.469153015e-19 9.418984297e-20 4.694016299e-20)
5(1.768884951e-19 1.543259691e-19 1.072610345e-19 5.716757575e-20 2.321894447e-20)
5(1.58707588e-19 1.111675033e-19 6.229981967e-20 2.718099061e-20 8.770318535e-21)
5(1.138668805e-19 6.338449814e-20 2.780402823e-20 9.867401679e-21 2.526310309e-21)
5(6.555499284e-20 2.793599506e-20 9.171067934e-21 2.623465071e-21 5.273491008e-22)
5(2.951072537e-20 9.049148917e-21 2.20609572e-21 5.070719084e-22 7.705737373e-23)
5(9.618677977e-21 1.992311175e-21 3.608295299e-22 6.323773222e-23 7.253408154e-24)
5(2.043585343e-21 2.870838193e-22 3.640290539e-23 5.135622362e-24 4.924290489e-25)
5(2.703623522e-22 2.313919647e-23 1.976710027e-24 -1.556448851e-25 2.030963306e-26)
5(1.941415263e-23 -1.018758573e-22 1.174189093e-24 -7.701202215e-23 5.246313209e-28)
5(5.090530492e-25 -2.888458883e-20 2.804054798e-22 -1.976176227e-20 1.051413583e-29)
5(2.224347756e-27 -1.37462912e-17 1.016795002e-19 -8.095373931e-18 1.393828127e-31)
5(1.289639026e-29 -1.372581282e-15 -2.220951342e-22 -1.040903027e-17 3.7272662e-33)
5(2.142686262e-32 -2.713395264e-15 -2.040941178e-19 -4.561914349e-18 6.742188421e-35)
)


60
(
5(-2.044530266e-16 -2.907681183e-16 1.097395627e-16 1.726057959e-17 5.04332138e-17)
5(-1.685164397e-16 -2.47044157e-16 6.983432201e-17 9.847072894e-18 3.656866788e-17)
5(-1.032878553e-16 -1.264934927e-16 -2.556138113e-18 -2.653589988e-18 1.019326927e-17)
5(-1.189387384e-16 -4.105325527e-17 -3.215077969e-17 -3.712564729e-18 -2.225675271e-18)
5(-1.460047036e-16 1.275027623e-17 -1.71452018e-17 9.951503303e-18 -8.032786401e-19)
5(-6.889247921e-17 7.532152535e-17 4.226104158e-17 3.885991375e-17 1.588078232e-17)
5(1.163168508e-16 1.566335334e-16 1.196794697e-16 7.64995831e-17 3.965626046e-17)
5(3.311216708e-16 2.503885339e-16 1.890009984e-16 1.117491866e-16 5.865976967e-17)
5(5.214440323e-16 3.373755613e-16 2.386867532e-16 1.329827291e-16 6.66964315e-17)
5(6.992852832e-16 3.848464771e-16 2.480369704e-16 1.265349314e-16 6.068395608e-17)
5(7.582442026e-16 3.366998037e-16 2.002816225e-16 9.017878674e-17 4.117321141e-17)
5(6.032663043e-16 2.148133721e-16 1.201751157e-16 4.703957443e-17 1.967863074e-17)
5(3.67087165e-16 1.115376444e-16 5.64158596e-17 1.961333192e-17 7.565139646e-18)
5(2.025639255e-16 5.395387829e-17 2.491883924e-17 8.174178426e-18 2.91668596e-18)
5(1.155719168e-16 2.783205113e-17 1.199865039e-17 3.873633756e-18 1.336876427e-18)
5(6.480781025e-17 1.555800872e-17 6.371887992e-18 2.029693772e-18 6.930544882e-19)
5(3.928639945e-17 9.186858924e-18 3.610666185e-18 1.123356765e-18 3.781525089e-19)
5(2.546965087e-17 5.681059904e-18 2.112183269e-18 6.504242684e-19 2.116482942e-19)
5(1.678586316e-17 3.602122733e-18 1.281613934e-18 3.905753517e-19 1.253100797e-19)
5(1.153818126e-17 2.348005089e-18 8.046277724e-19 2.395628916e-19 7.58570669e-20)
5(8.248651091e-18 1.581710181e-18 5.151323267e-19 1.509598941e-19 4.726081028e-20)
5(5.923964486e-18 1.084383235e-18 3.355504922e-19 9.663584225e-20 2.951121086e-20)
5(4.251553307e-18 7.541082588e-19 2.229815375e-19 6.30340725e-20 1.926276135e-20)
5(3.364796484e-18 5.379245501e-19 1.511463753e-19 4.158423492e-20 1.250182986e-20)
5(2.61692897e-18 3.838139198e-19 1.027974352e-19 2.742774693e-20 7.832218979e-21)
5(2.036532607e-18 2.857227553e-19 6.965980655e-20 1.790222719e-20 4.824694983e-21)
5(1.688926689e-18 2.160904018e-19 4.733743584e-20 1.135644453e-20 2.640109789e-21)
5(1.303563646e-18 1.556541152e-19 3.220750801e-20 6.673413658e-21 7.721859133e-22)
5(1.042702649e-18 1.183122957e-19 2.124349093e-20 3.017314535e-21 -1.020067539e-21)
5(8.652978804e-19 9.365017025e-20 1.262881779e-20 -3.079992552e-22 -3.166557556e-21)
5(7.974149538e-19 7.071988084e-20 5.641716791e-21 -3.959753967e-21 -6.26075201e-21)
5(6.717725549e-19 5.144816601e-20 -7.911223988e-22 -8.684173913e-21 -1.071156973e-20)
5(5.397597541e-19 3.545774829e-20 -8.171324226e-21 -1.538667188e-20 -1.755582664e-20)
5(4.280302961e-19 1.97767059e-20 -1.78600802e-20 -2.519790914e-20 -2.787546634e-20)
5(3.413960317e-19 4.080646034e-21 -3.11238956e-20 -3.921559726e-20 -4.208360998e-20)
5(2.832835122e-19 -1.643966419e-20 -4.921321892e-20 -5.811903445e-20 -6.055429785e-20)
5(2.126630713e-19 -4.091478007e-20 -7.251381297e-20 -8.143197965e-20 -8.169930969e-20)
5(1.350842596e-19 -6.823654777e-20 -9.969719749e-20 -1.060745245e-19 -9.998848136e-20)
5(6.209430127e-20 -9.908295779e-20 -1.263585233e-19 -1.257004307e-19 -1.075104579e-19)
5(-9.002416893e-21 -1.28081146e-19 -1.448487108e-19 -1.312409533e-19 -9.587978171e-20)
5(-6.560068052e-20 -1.456570603e-19 -1.446284938e-19 -1.120641559e-19 -6.06319947e-20)
5(-1.037371518e-19 -1.420152142e-19 -1.149970204e-19 -6.209275805e-20 -3.035525137e-21)
5(-1.157972676e-19 -1.077810552e-19 -5.279530133e-20 1.321844887e-20 6.335446718e-20)
5(-9.165173765e-20 -4.073835879e-20 3.544357605e-20 9.596579821e-20 1.184358574e-19)
5(-3.255113862e-20 4.809954977e-20 1.26494596e-19 1.602296752e-19 1.463023272e-19)
5(4.828827174e-20 1.37253571e-19 1.925656769e-19 1.850864102e-19 1.402237077e-19)
5(1.313900001e-19 1.999328236e-19 2.140779954e-19 1.681056889e-19 1.08037794e-19)
5(1.939555456e-19 2.179652106e-19 1.862876758e-19 1.232862239e-19 6.654085225e-20)
5(2.152996049e-19 1.907876115e-19 1.294211965e-19 7.212912397e-20 3.238533795e-20)
5(1.932333651e-19 1.350246235e-19 7.149694968e-20 3.31435736e-20 1.208105885e-20)
5(1.422295332e-19 7.643679336e-20 3.062689434e-20 1.16971777e-20 3.303316783e-21)
5(8.441665838e-20 3.319089071e-20 9.74897826e-21 3.005506844e-21 6.657587385e-22)
5(3.990461838e-20 1.047133372e-20 2.174060352e-21 5.394258196e-22 1.030295618e-22)
5(1.44707897e-20 2.380651226e-21 3.183946021e-22 6.028836073e-23 7.720820644e-24)
5(3.53403394e-21 3.478183279e-22 2.688954036e-23 3.502292876e-24 5.215093728e-25)
5(4.844974478e-22 -9.139575073e-23 1.653795516e-24 -7.29672801e-23 1.58981397e-26)
5(5.017912238e-23 -2.880262048e-20 8.053610893e-23 -1.419380633e-20 1.534027262e-28)
5(1.836709566e-24 -1.055762317e-17 -6.017463369e-23 -3.871204759e-18 2.201515556e-30)
5(1.719473172e-26 2.152468835e-20 -8.154549838e-23 1.208327393e-20 3.080693006e-32)
5(2.403226973e-29 2.117634814e-17 1.195250331e-22 7.774194834e-18 4.961675301e-34)
)


60
(
5(-8.597776013e-16 -6.677431424e-16 8.364476854e-17 -3.329799656e-18 5.921157061e-17)
5(-7.521286144e-16 -5.891648875e-16 3.109989551e-17 -1.271424196e-17 4.128317862e-17)
5(-5.041019712e-16 -3.338861895e-16 -5.77419809e-17 -2.472314787e-17 6.774593788e-18)
5(-4.97611357e-16 -1.406881672e-16 -8.714511974e-17 -1.890859853e-17 -9.336833035e-18)
5(-5.929960798e-16 -4.149935318e-17 -4.468147866e-17 1.070246566e-17 -4.063341706e-18)
5(-3.416620325e-16 9.159981126e-17 6.875002694e-17 6.584645446e-17 2.649433096e-17)
5(1.404647184e-16 2.907705149e-16 2.162917917e-16 1.365048129e-16 6.845279748e-17)
5(6.584235663e-16 5.087784022e-16 3.600632411e-16 2.067119899e-16 1.03921897e-16)
5(1.231073065e-15 7.348708151e-16 4.756616664e-16 2.561306321e-16 1.250615497e-16)
5(1.811717179e-15 8.715418075e-16 5.191074483e-16 2.571828569e-16 1.190711093e-16)
5(2.060642179e-15 8.014755277e-16 4.39798836e-16 1.961503335e-16 8.463061192e-17)
5(1.750374852e-15 5.569965525e-16 2.78142767e-16 1.091225975e-16 4.422598243e-17)
5(1.172724335e-15 3.001822098e-16 1.35591034e-16 4.739335736e-17 1.792275327e-17)
5(6.456931851e-16 1.45555376e-16 5.94223343e-17 1.9296636e-17 6.696880046e-18)
5(3.584588917e-16 7.42801549e-17 2.796412968e-17 8.861951672e-18 2.983200968e-18)
5(2.037632663e-16 4.137515446e-17 1.466605705e-17 4.590183366e-18 1.519970317e-18)
5(1.233972079e-16 2.44913524e-17 8.254069981e-18 2.546339127e-18 8.374987804e-19)
5(8.085650197e-17 1.508502111e-17 4.866734224e-18 1.476381389e-18 4.758815546e-19)
5(5.690483934e-17 9.698850854e-18 2.97602841e-18 8.843028212e-19 2.829861182e-19)
5(3.848429585e-17 6.404453552e-18 1.869161962e-18 5.465459471e-19 1.722233941e-19)
5(2.753473552e-17 4.373060594e-18 1.21034362e-18 3.462353541e-19 1.110530434e-19)
5(1.97836811e-17 3.044197784e-18 7.971726801e-19 2.244722128e-19 7.091364638e-20)
5(1.462302531e-17 2.151549194e-18 5.355547e-19 1.485588974e-19 4.56435193e-20)
5(1.198941863e-17 1.572905213e-18 3.689969329e-19 9.883977631e-20 2.997093824e-20)
5(9.197115505e-18 1.187155533e-18 2.557608294e-19 6.635719984e-20 1.977268454e-20)
5(6.913196742e-18 9.003145303e-19 1.794619072e-19 4.489737623e-20 1.284482791e-20)
5(5.782181161e-18 6.872081276e-19 1.294151512e-19 2.982830542e-20 7.815852971e-21)
5(5.333067954e-18 5.471236904e-19 9.414112548e-20 1.922194616e-20 4.105317522e-21)
5(4.398855541e-18 4.543523107e-19 6.705889289e-20 1.164565295e-20 9.772191469e-22)
5(3.491552627e-18 3.648191488e-19 4.670940655e-20 5.346481055e-21 -2.401442483e-21)
5(3.051654985e-18 2.852239184e-19 3.274748222e-20 -4.956458418e-22 -6.357557614e-21)
5(2.667118426e-18 2.480970451e-19 2.096586276e-20 -6.735586933e-21 -1.16728115e-20)
5(2.436067092e-18 2.136554633e-19 8.693899221e-21 -1.466601538e-20 -1.97625046e-20)
5(2.030463107e-18 1.678711457e-19 -4.694378888e-21 -2.551037949e-20 -3.125141041e-20)
5(1.685494789e-18 1.279008646e-19 -2.070264748e-20 -4.07584122e-20 -4.730121851e-20)
5(1.414050386e-18 8.786840139e-20 -4.084892828e-20 -6.166555912e-20 -6.908399872e-20)
5(1.129423401e-18 4.991066673e-20 -6.711287912e-20 -8.825531201e-20 -9.552280317e-20)
5(9.15843937e-19 7.298119928e-21 -9.893747668e-20 -1.188118623e-19 -1.22772391e-19)
5(6.609406082e-19 -4.280866818e-20 -1.330937904e-19 -1.482581238e-19 -1.422689132e-19)
5(4.574001521e-19 -9.159502717e-20 -1.633153788e-19 -1.67217549e-19 -1.413031794e-19)
5(2.638213819e-19 -1.321007391e-19 -1.791267198e-19 -1.629508917e-19 -1.156017903e-19)
5(1.012194191e-19 -1.551409576e-19 -1.677012508e-19 -1.244292778e-19 -5.86586221e-20)
5(-9.195398123e-21 -1.477390417e-19 -1.187528628e-19 -4.923111699e-20 2.438184611e-20)
5(-6.254338274e-20 -1.03454202e-19 -3.10304553e-20 5.168878786e-20 1.104813382e-19)
5(-6.275809169e-20 -2.375100443e-20 7.935870806e-20 1.526300823e-19 1.776243518e-19)
5(-8.63349283e-21 7.85742706e-20 1.84263925e-19 2.224439382e-19 2.048501371e-19)
5(7.194785151e-20 1.782350092e-19 2.53120344e-19 2.404999126e-19 1.855369481e-19)