/*--------------------------------*- C++ -*----------------------------------*\
| =========                 |                                                 |
| \\      /  F ield         | OpenFOAM: The Open Source CFD Toolbox           |
|  \\    /   O peration     | Version:  2.3.1                                 |
|   \\  /    A nd           | Web:      www.OpenFOAM.org                      |
|    \\/     M anipulation  |                                                 |
\*---------------------------------------------------------------------------*/
FoamFile
{
    version     2.0;
    format      ascii;
    class       dictionary;
    location    "constant";
    object      DPSI43;
}
// * * * * * * * * * * * * * * * * * * * * * * * * * * * * * * * * * * * * * //

DPSI43_table
60
(

60
(
5(3.197416939e-11 -1.018897687e-10 -1.031732348e-10 -4.678279118e-10 -9.604938967e-10)
5(2.690028519e-11 -2.86744643e-11 -4.527267265e-11 -5.968268212e-11 -1.11137063e-10)
5(1.493537588e-09 8.172653284e-10 -6.714004988e-12 1.53700908e-11 2.986400649e-11)
5(4.578977703e-09 2.669707873e-09 1.754659449e-11 -2.086610321e-12 -4.349030074e-11)
5(6.33930969e-09 3.468460394e-09 -1.086740892e-11 2.129897802e-11 2.914223766e-11)
5(5.730845356e-09 2.974755567e-09 -4.012025179e-11 -3.669693774e-11 2.657933834e-11)
5(-2.247400875e-12 -1.702949527e-11 -3.199368065e-11 -2.169716118e-10 -4.010688536e-10)
5(-6.539541543e-11 -1.08734089e-10 -8.2586233e-11 4.746966029e-11 1.100400006e-10)
5(9.02760771e-09 4.465053098e-09 -1.275202046e-10 3.720933437e-12 -5.416836783e-11)
5(1.324964623e-08 6.74899222e-09 8.171249918e-11 4.706759461e-12 -2.600723228e-10)
5(1.473795525e-08 7.681610428e-09 1.250252505e-10 -1.553162397e-10 -2.998251536e-10)
5(7.540831955e-09 3.57248183e-09 -4.364226677e-10 -5.934396524e-10 -8.738452444e-10)
5(-5.870240396e-10 -5.970005843e-10 -8.391382963e-10 -1.048546999e-09 -9.83826712e-10)
5(-7.511883752e-10 -8.468305269e-10 -8.745066031e-10 -1.254531751e-09 -1.661666618e-09)
5(-1.090114451e-09 -1.17841502e-09 -1.595500333e-09 -1.814776954e-09 -1.640008328e-09)
5(-2.403526608e-09 -1.586680741e-09 -1.666482328e-09 -2.25968547e-09 -1.861905242e-09)
5(-2.456863049e-09 -2.490657083e-09 -2.445837131e-09 -3.234124836e-09 -4.004260114e-09)
5(-3.446674507e-09 -3.006409809e-09 -3.917037915e-09 -5.670714984e-09 -5.922975453e-09)
5(-4.243703071e-09 -4.403071409e-09 -5.602031707e-09 -8.119322235e-09 -9.419706939e-09)
5(-5.05866072e-09 -5.973777539e-09 -8.473049067e-09 -9.427361371e-09 -8.562409189e-09)
5(-5.846666179e-09 -7.052661579e-09 -1.050487434e-08 -1.160367395e-08 -1.018715748e-08)
5(-7.051471414e-09 -9.18223039e-09 -9.753960572e-09 -1.087115983e-08 -1.33565192e-08)
5(-8.539897411e-09 -1.071609976e-08 -1.410193504e-08 -1.673118376e-08 -1.786800888e-08)
5(-1.208065062e-08 -1.325085298e-08 -1.606292213e-08 -1.886994105e-08 -1.967511439e-08)
5(-1.433483613e-08 -1.617812531e-08 -2.037301933e-08 -2.305445161e-08 -2.296716648e-08)
5(-1.71850094e-08 -2.085322149e-08 -2.623889482e-08 -2.436199222e-08 -2.028649079e-08)
5(-1.833408667e-08 -2.231764403e-08 -3.210076017e-08 -2.972226284e-08 -2.094733162e-08)
5(-2.095738466e-08 -2.750489526e-08 -3.743193011e-08 -3.090938485e-08 -2.040765552e-08)
5(-2.366594893e-08 -2.90324858e-08 -3.941107799e-08 -3.583629896e-08 -2.661115202e-08)
5(-2.917692531e-08 -3.190360493e-08 -3.787806379e-08 -3.665085211e-08 -3.15343367e-08)
5(-3.345248259e-08 -3.732889612e-08 -4.371550533e-08 -3.744430795e-08 -2.795164723e-08)
5(-3.567118832e-08 -3.821026141e-08 -4.018379938e-08 -2.379631204e-08 -7.251791434e-09)
5(-4.197248328e-08 -4.385022371e-08 -4.159672727e-08 -3.875647014e-08 -3.944896166e-08)
5(-4.858209956e-08 -5.09564705e-08 -3.854271091e-08 -1.115075243e-08 2.110159307e-09)
5(-4.987173563e-08 -5.175795178e-08 -3.890441952e-08 -9.514010193e-09 5.800463277e-09)
5(-6.294750292e-08 -6.694692468e-08 -3.490896195e-08 8.034692217e-09 1.546027924e-08)
5(-5.036420146e-08 -4.694730785e-08 -2.898504691e-08 -1.003078374e-08 -5.065990004e-09)
5(-6.313501475e-08 -4.681540257e-08 -2.530070272e-08 4.474509201e-08 1.10816245e-07)
5(-5.699350555e-08 -5.049505069e-08 -1.515010436e-08 1.163684107e-08 1.001103252e-08)
5(-4.706273783e-08 -5.237206672e-08 -1.175201603e-08 1.770536169e-07 3.197836937e-07)
5(-2.733842645e-08 -2.809082e-08 -3.475550951e-09 1.658969667e-07 3.101581995e-07)
5(-2.612379428e-08 -1.875335847e-08 5.280482801e-08 1.72123578e-07 2.274648782e-07)
5(7.287348959e-09 1.991599942e-09 1.654636104e-07 1.658175819e-07 -4.024804723e-09)
5(8.140501406e-09 -4.732064249e-08 1.836464053e-07 2.279541969e-07 -1.685547946e-08)
5(4.414860821e-08 -1.401978014e-08 1.822731232e-07 2.145431513e-07 -1.090487428e-08)
5(1.600989635e-08 2.685533785e-08 1.939205659e-07 1.693899403e-07 -1.349887752e-08)
5(4.105582106e-08 1.557885545e-07 1.772110957e-07 3.273223748e-08 -1.85276261e-08)
5(1.568424343e-07 1.93009039e-07 1.076816429e-07 -2.111346007e-08 -2.885120139e-08)
5(1.318673382e-07 1.931602665e-07 1.102941353e-07 -3.792751148e-08 -4.179266804e-08)
5(3.770893668e-07 1.776635201e-07 -3.678942855e-08 -5.399577165e-08 -5.931864309e-08)
5(3.280083636e-07 1.447359426e-07 -5.517660748e-08 -7.568819467e-08 -8.284010412e-08)
5(6.717787755e-08 4.977648051e-09 -7.664717459e-08 -1.046469386e-07 -1.146208048e-07)
5(-4.32635585e-08 -6.212108233e-08 -1.053519631e-07 -1.431142005e-07 -1.566806451e-07)
5(-7.807993812e-08 -9.527436824e-08 -1.433946088e-07 -1.944928428e-07 -2.147491029e-07)
5(-1.054663245e-07 -1.296065919e-07 -1.9389826e-07 -2.611602315e-07 -2.8846502e-07)
5(-1.185855704e-07 -1.632210513e-07 -2.580606021e-07 -3.465691268e-07 -3.856954327e-07)
5(-1.030094901e-07 -1.902875686e-07 -3.397996674e-07 -4.50294149e-07 -5.005363914e-07)
5(-1.689504695e-07 -2.484338602e-07 -4.189511836e-07 -5.702646304e-07 -6.322347997e-07)
5(-2.949347777e-07 -3.813953535e-07 -4.142290667e-07 -6.785732973e-07 -1.005540715e-06)
5(-4.944700364e-07 -6.23279893e-07 -9.639475978e-07 -1.136594628e-06 -1.09492859e-06)
)


60
(
5(-2.587080402e-11 -3.125880443e-10 -4.949270337e-10 -1.792522601e-09 -3.14402157e-09)
5(-1.122670941e-10 -2.166274318e-10 -4.085376741e-10 -9.179561194e-10 -1.286600493e-09)
5(-2.302444623e-10 -2.351227192e-10 -4.956141468e-10 -7.90742144e-10 -7.775277217e-10)
5(-4.181476843e-10 -3.868133026e-10 -8.207330131e-10 -1.189984206e-09 -1.020208883e-09)
5(-7.063598984e-10 -7.506088159e-10 -1.483648643e-09 -2.348398604e-09 -2.403581002e-09)
5(-1.155310704e-09 -1.379664796e-09 -2.597754032e-09 -4.51263319e-09 -5.251550382e-09)
5(-1.839029289e-09 -2.260648004e-09 -4.172362217e-09 -7.311422474e-09 -8.703071641e-09)
5(-2.864154735e-09 -3.477578512e-09 -6.290191073e-09 -1.064501105e-08 -1.245280561e-08)
5(-4.320828866e-09 -5.138124758e-09 -9.128551719e-09 -1.489595921e-08 -1.703326195e-08)
5(-6.339485571e-09 -7.446837986e-09 -1.294900331e-08 -2.087446576e-08 -2.381198009e-08)
5(-8.977202444e-09 -1.060616698e-08 -1.800073411e-08 -2.857647027e-08 -3.264245669e-08)
5(-1.24781002e-08 -1.483806809e-08 -2.448273832e-08 -3.82930457e-08 -4.391525809e-08)
5(-1.695817036e-08 -2.023351861e-08 -3.257302597e-08 -5.024878417e-08 -5.77739282e-08)
5(-2.255805247e-08 -2.692829869e-08 -4.246347222e-08 -6.413287478e-08 -7.334316945e-08)
5(-2.948401409e-08 -3.511028097e-08 -5.421917156e-08 -8.037638253e-08 -9.153985694e-08)
5(-3.792931901e-08 -4.505207083e-08 -6.810428902e-08 -9.929335241e-08 -1.128150578e-07)
5(-4.782862786e-08 -5.685183975e-08 -8.433944287e-08 -1.20976735e-07 -1.371760994e-07)
5(-5.970765687e-08 -7.082886077e-08 -1.0297119e-07 -1.447597532e-07 -1.633124e-07)
5(-7.345953994e-08 -8.69884874e-08 -1.24128058e-07 -1.711946165e-07 -1.921897479e-07)
5(-8.943595212e-08 -1.055437423e-07 -1.477439203e-07 -1.996269377e-07 -2.227039164e-07)
5(-1.075172054e-07 -1.264904196e-07 -1.73653869e-07 -2.301468542e-07 -2.554924008e-07)
5(-1.278225646e-07 -1.498337857e-07 -2.016413292e-07 -2.61615761e-07 -2.885831414e-07)
5(-1.509483686e-07 -1.759059909e-07 -2.312839649e-07 -2.943115796e-07 -3.234895112e-07)
5(-1.765591264e-07 -2.043340743e-07 -2.623723096e-07 -3.271295657e-07 -3.580031422e-07)
5(-2.039790628e-07 -2.346504506e-07 -2.950828857e-07 -3.603815881e-07 -3.920930831e-07)
5(-2.345063359e-07 -2.679386248e-07 -3.29282442e-07 -3.924644205e-07 -4.237209064e-07)
5(-2.665506408e-07 -3.028609257e-07 -3.643531245e-07 -4.230288005e-07 -4.523266638e-07)
5(-3.013394888e-07 -3.395002075e-07 -3.989703269e-07 -4.508396406e-07 -4.770019861e-07)
5(-3.374796863e-07 -3.774254398e-07 -4.324966558e-07 -4.753275309e-07 -4.985123777e-07)
5(-3.757656505e-07 -4.165063822e-07 -4.645407081e-07 -4.954174699e-07 -5.143507524e-07)
5(-4.144397664e-07 -4.554023016e-07 -4.940769199e-07 -5.099460362e-07 -5.233693831e-07)
5(-4.53852738e-07 -4.935870639e-07 -5.201601875e-07 -5.173429137e-07 -5.228375245e-07)
5(-4.928137615e-07 -5.304553096e-07 -5.411640485e-07 -5.164059498e-07 -5.136837183e-07)
5(-5.311126608e-07 -5.649230023e-07 -5.554797358e-07 -5.029117706e-07 -4.886334996e-07)
5(-5.65878782e-07 -5.94733994e-07 -5.611552639e-07 -4.769081939e-07 -4.501126413e-07)
5(-5.964331306e-07 -6.19020807e-07 -5.564750967e-07 -4.376362104e-07 -3.989876132e-07)
5(-6.180193082e-07 -6.338934357e-07 -5.386030018e-07 -3.868788581e-07 -3.415703583e-07)
5(-6.309842422e-07 -6.368847409e-07 -5.067614638e-07 -3.239994456e-07 -2.72704958e-07)
5(-6.288358206e-07 -6.245560424e-07 -4.589642171e-07 -2.362994573e-07 -1.705939499e-07)
5(-6.118451273e-07 -5.942925465e-07 -3.898526332e-07 -1.100564044e-07 -1.28033915e-08)
5(-5.718360109e-07 -5.416410033e-07 -2.97924422e-07 5.975413951e-08 2.083205128e-07)
5(-5.147264683e-07 -4.705644934e-07 -1.718278754e-07 2.663640184e-07 4.542758537e-07)
5(-4.216093302e-07 -3.764038034e-07 -9.145037866e-09 4.882168928e-07 6.668386097e-07)
5(-2.928977498e-07 -2.618042836e-07 1.879889784e-07 7.049643756e-07 8.045538733e-07)
5(-1.518745397e-07 -1.221832355e-07 4.15270619e-07 8.987988211e-07 8.737333378e-07)
5(-1.106756431e-10 5.455776836e-08 6.504445777e-07 1.046964339e-06 8.999005623e-07)
5(1.508833342e-07 2.676702108e-07 8.70293857e-07 1.1283569e-06 8.978587239e-07)
5(3.237075177e-07 5.008611325e-07 1.0462362e-06 1.143945891e-06 8.708777873e-07)
5(5.261306127e-07 7.229238312e-07 1.15500473e-06 1.103247388e-06 8.134400302e-07)
5(7.761704031e-07 9.114870233e-07 1.176865908e-06 1.015836521e-06 7.204331754e-07)
5(1.010157605e-06 1.031243455e-06 1.115300555e-06 8.946080091e-07 6.043548939e-07)
5(1.157831173e-06 1.061936534e-06 9.889924846e-07 7.485222729e-07 4.76428534e-07)
5(1.142825655e-06 9.83415642e-07 8.246791475e-07 5.838613494e-07 3.328613137e-07)
5(9.801486325e-07 8.142316762e-07 6.364267382e-07 4.066707885e-07 1.798608303e-07)
5(7.096296461e-07 5.800759392e-07 4.269318994e-07 2.114891891e-07 1.23725007e-08)
5(3.864805222e-07 3.104901284e-07 1.975864947e-07 -6.15867759e-09 -1.781281556e-07)
5(5.752763169e-08 2.673054927e-08 -5.411783994e-08 -2.516267458e-07 -4.023656428e-07)
5(-2.593191292e-07 -2.56913023e-07 -3.296126223e-07 -5.336084821e-07 -6.642202294e-07)
5(-5.24711633e-07 -5.197378242e-07 -6.409530016e-07 -8.80974844e-07 -9.958718368e-07)
5(-8.24388229e-07 -7.871582832e-07 -1.079708531e-06 -1.393816338e-06 -1.37310182e-06)
)


60
(
5(-1.308185317e-10 -6.791460254e-10 -1.313228582e-09 -4.087228645e-09 -6.665252494e-09)
5(-3.212402543e-10 -6.277247117e-10 -1.357347528e-09 -3.032268158e-09 -4.14213586e-09)
5(-6.540301911e-10 -7.977671791e-10 -1.799031006e-09 -3.343365498e-09 -3.861950395e-09)
5(-1.174823851e-09 -1.319618814e-09 -2.859088701e-09 -5.030089402e-09 -5.574520846e-09)
5(-1.971373883e-09 -2.350400863e-09 -4.772189448e-09 -8.423726671e-09 -9.70827818e-09)
5(-3.160722562e-09 -4.011037211e-09 -7.691235916e-09 -1.38549384e-08 -1.675234553e-08)
5(-4.897527792e-09 -6.336775753e-09 -1.166658501e-08 -2.05667094e-08 -2.500855624e-08)
5(-7.375138318e-09 -9.410550398e-09 -1.68325477e-08 -2.868224553e-08 -3.441591108e-08)
5(-1.081909357e-08 -1.347691206e-08 -2.35077574e-08 -3.880401594e-08 -4.580262122e-08)
5(-1.533410604e-08 -1.884767163e-08 -3.214109411e-08 -5.188263241e-08 -6.070609628e-08)
5(-2.12019678e-08 -2.592817647e-08 -4.31084995e-08 -6.825429661e-08 -7.957584094e-08)
5(-2.852236051e-08 -3.49179654e-08 -5.66798983e-08 -8.813852548e-08 -1.026189462e-07)
5(-3.779323244e-08 -4.61423163e-08 -7.303894011e-08 -1.113295996e-07 -1.29198991e-07)
5(-4.919870035e-08 -5.977813691e-08 -9.239276308e-08 -1.37756888e-07 -1.589276925e-07)
5(-6.285302134e-08 -7.601352436e-08 -1.149241061e-07 -1.681708455e-07 -1.932213616e-07)
5(-7.898086329e-08 -9.512113245e-08 -1.408616187e-07 -2.020284887e-07 -2.308462166e-07)
5(-9.816802539e-08 -1.176212611e-07 -1.704591611e-07 -2.397518489e-07 -2.726115896e-07)
5(-1.204971552e-07 -1.435268884e-07 -2.037321429e-07 -2.807697693e-07 -3.1726247e-07)
5(-1.459285545e-07 -1.730023209e-07 -2.406852842e-07 -3.252183506e-07 -3.654725358e-07)
5(-1.747148936e-07 -2.061089788e-07 -2.812844632e-07 -3.72334662e-07 -4.156208374e-07)
5(-2.071811256e-07 -2.430101138e-07 -3.252080962e-07 -4.218903942e-07 -4.679228253e-07)
5(-2.430723507e-07 -2.834305678e-07 -3.720536294e-07 -4.740225665e-07 -5.231624428e-07)
5(-2.834219168e-07 -3.280793749e-07 -4.218099682e-07 -5.264244605e-07 -5.771151585e-07)
5(-3.265099849e-07 -3.759437166e-07 -4.738330185e-07 -5.795506932e-07 -6.317304016e-07)
5(-3.741173176e-07 -4.277301165e-07 -5.280080476e-07 -6.322931378e-07 -6.845942931e-07)
5(-4.250932278e-07 -4.825935937e-07 -5.841349327e-07 -6.846000579e-07 -7.354467254e-07)
5(-4.793844027e-07 -5.403778706e-07 -6.412633032e-07 -7.350623891e-07 -7.831798643e-07)
5(-5.370350189e-07 -6.007419824e-07 -6.984542165e-07 -7.814404713e-07 -8.243760706e-07)
5(-5.981772638e-07 -6.635602404e-07 -7.546266735e-07 -8.251991085e-07 -8.638857954e-07)
5(-6.606767301e-07 -7.276150791e-07 -8.094564881e-07 -8.634625545e-07 -8.962006505e-07)
5(-7.276997862e-07 -7.933814217e-07 -8.608981539e-07 -8.934957191e-07 -9.177110397e-07)
5(-7.9484624e-07 -8.585501935e-07 -9.086140998e-07 -9.161717748e-07 -9.30666515e-07)
5(-8.612746091e-07 -9.226658995e-07 -9.511867594e-07 -9.25767456e-07 -9.263997145e-07)
5(-9.287887255e-07 -9.84321106e-07 -9.8513792e-07 -9.234999213e-07 -9.095995896e-07)
5(-9.935891904e-07 -1.041172409e-06 -1.009135181e-06 -9.034093982e-07 -8.701596621e-07)
5(-1.05313429e-06 -1.091918584e-06 -1.020826619e-06 -8.659308725e-07 -8.136904625e-07)
5(-1.100563511e-06 -1.130724029e-06 -1.017509925e-06 -8.134377544e-07 -7.456049694e-07)
5(-1.150249204e-06 -1.162025711e-06 -9.953739417e-07 -7.387710813e-07 -6.533922033e-07)
5(-1.177879185e-06 -1.1715348e-06 -9.505342029e-07 -6.300706442e-07 -5.169531741e-07)
5(-1.189150742e-06 -1.16180921e-06 -8.794118376e-07 -4.725452554e-07 -3.131709704e-07)
5(-1.181945211e-06 -1.129581232e-06 -7.74503517e-07 -2.504653775e-07 -2.108818076e-08)
5(-1.141339163e-06 -1.064916978e-06 -6.249520893e-07 2.352357306e-08 3.167976862e-07)
5(-1.073189211e-06 -9.75135851e-07 -4.196536971e-07 3.388479e-07 6.47867504e-07)
5(-9.607919383e-07 -8.508096425e-07 -1.549079842e-07 6.714190644e-07 9.182892119e-07)
5(-8.109084838e-07 -6.834392787e-07 1.606176659e-07 1.000107422e-06 1.127424269e-06)
5(-6.347079057e-07 -4.584017068e-07 5.13676702e-07 1.295457223e-06 1.284257482e-06)
5(-4.421322829e-07 -1.728249438e-07 8.750601785e-07 1.532439348e-06 1.413701533e-06)
5(-2.03548327e-07 1.651954254e-07 1.209666636e-06 1.694470592e-06 1.506358681e-06)
5(1.07704331e-07 5.260138837e-07 1.480026979e-06 1.777743056e-06 1.542396289e-06)
5(4.978467378e-07 8.760502671e-07 1.656429135e-06 1.783570937e-06 1.50943404e-06)
5(9.184114701e-07 1.17085802e-06 1.722067399e-06 1.716577175e-06 1.409688674e-06)
5(1.275558458e-06 1.371278831e-06 1.686352482e-06 1.587404822e-06 1.262415657e-06)
5(1.461724324e-06 1.439335344e-06 1.56635296e-06 1.402025404e-06 1.07897528e-06)
5(1.451876743e-06 1.369320544e-06 1.376734363e-06 1.163430411e-06 8.498071799e-07)
5(1.259894013e-06 1.168768698e-06 1.121095323e-06 8.865155659e-07 5.988769919e-07)
5(9.517928451e-07 8.780578569e-07 8.11060366e-07 5.662520142e-07 3.066736961e-07)
5(5.594373529e-07 5.212373033e-07 4.554413329e-07 2.064349575e-07 -2.083951968e-08)
5(1.496242082e-07 1.381696444e-07 5.448332831e-08 -2.024488981e-07 -3.909299974e-07)
5(-2.549047352e-07 -2.570692712e-07 -3.840416994e-07 -6.695601383e-07 -8.327265342e-07)
5(-7.428635971e-07 -7.414347547e-07 -1.062379281e-06 -1.336875388e-06 -1.285190018e-06)
)


60
(
5(-2.984184607e-10 -1.224731944e-09 -2.613434149e-09 -7.326528402e-09 -1.140693248e-08)
5(-6.575644969e-10 -1.282129796e-09 -2.899658108e-09 -6.42587561e-09 -8.713496716e-09)
5(-1.302546862e-09 -1.744216462e-09 -3.92500776e-09 -7.636456874e-09 -9.301298965e-09)
5(-2.29852554e-09 -2.845852252e-09 -6.033679495e-09 -1.105783994e-08 -1.303820624e-08)
5(-3.763513762e-09 -4.803200907e-09 -9.545160829e-09 -1.720045891e-08 -2.062901641e-08)
5(-5.892071495e-09 -7.792177521e-09 -1.469315658e-08 -2.636220768e-08 -3.236952948e-08)
5(-8.95167103e-09 -1.189495525e-08 -2.153429244e-08 -3.757087205e-08 -4.609030434e-08)
5(-1.318853502e-08 -1.723628282e-08 -3.023226815e-08 -5.0911433e-08 -6.162265476e-08)
5(-1.888088691e-08 -2.413551169e-08 -4.124002497e-08 -6.731211307e-08 -8.027724133e-08)
5(-2.622025091e-08 -3.303377734e-08 -5.509886347e-08 -8.783872186e-08 -1.038162202e-07)
5(-3.552430065e-08 -4.440004443e-08 -7.22300281e-08 -1.128226125e-07 -1.326917213e-07)
5(-4.713014725e-08 -5.861748826e-08 -9.294502467e-08 -1.422263581e-07 -1.666362142e-07)
5(-6.134604438e-08 -7.595033684e-08 -1.17539809e-07 -1.761634729e-07 -2.054917191e-07)
5(-7.860828505e-08 -9.665555829e-08 -1.461223611e-07 -2.141800804e-07 -2.48204517e-07)
5(-9.894016873e-08 -1.209367223e-07 -1.788970368e-07 -2.568138493e-07 -2.958661502e-07)
5(-1.229428746e-07 -1.492693534e-07 -2.161292421e-07 -3.038508038e-07 -3.478375352e-07)
5(-1.506556476e-07 -1.817808448e-07 -2.579211179e-07 -3.554860976e-07 -4.04527121e-07)
5(-1.827250426e-07 -2.188937324e-07 -3.042521523e-07 -4.111284122e-07 -4.65009784e-07)
5(-2.185043151e-07 -2.60337884e-07 -3.552404075e-07 -4.707448671e-07 -5.290717614e-07)
5(-2.596571167e-07 -3.068722488e-07 -4.106313686e-07 -5.337332555e-07 -5.958795757e-07)
5(-3.048176607e-07 -3.579386682e-07 -4.702056316e-07 -5.992208496e-07 -6.643880815e-07)
5(-3.53530407e-07 -4.129779743e-07 -5.331098375e-07 -6.681121538e-07 -7.374703582e-07)
5(-4.078113224e-07 -4.731475986e-07 -5.996487645e-07 -7.371157733e-07 -8.081847868e-07)
5(-4.688925605e-07 -5.388986209e-07 -6.693493147e-07 -8.077809068e-07 -8.802464393e-07)
5(-5.320416967e-07 -6.080239989e-07 -7.417236514e-07 -8.782157991e-07 -9.512892176e-07)
5(-6.011217579e-07 -6.819381473e-07 -8.164627541e-07 -9.48067774e-07 -1.020018619e-06)
5(-6.738474056e-07 -7.594136472e-07 -8.931677216e-07 -1.016184696e-06 -1.084833814e-06)
5(-7.519052916e-07 -8.409422442e-07 -9.705370201e-07 -1.081839903e-06 -1.146182121e-06)
5(-8.323379258e-07 -9.247038097e-07 -1.047413847e-06 -1.142242399e-06 -1.200130443e-06)
5(-9.167728662e-07 -1.011241971e-06 -1.123510219e-06 -1.199079728e-06 -1.250084892e-06)
5(-1.005237631e-06 -1.099792021e-06 -1.197190191e-06 -1.248740362e-06 -1.290485051e-06)
5(-1.095579272e-06 -1.188635595e-06 -1.267280178e-06 -1.290375913e-06 -1.320730989e-06)
5(-1.186765764e-06 -1.278061707e-06 -1.332452163e-06 -1.319246231e-06 -1.335649319e-06)
5(-1.281035591e-06 -1.366901343e-06 -1.390269234e-06 -1.33397216e-06 -1.332666501e-06)
5(-1.372219165e-06 -1.451001647e-06 -1.438849234e-06 -1.333393243e-06 -1.311152081e-06)
5(-1.462758284e-06 -1.530836845e-06 -1.475901258e-06 -1.312527092e-06 -1.26415083e-06)
5(-1.547896188e-06 -1.603026117e-06 -1.498336914e-06 -1.274134042e-06 -1.201538426e-06)
5(-1.623069918e-06 -1.66386283e-06 -1.501822592e-06 -1.211341046e-06 -1.115327204e-06)
5(-1.691286197e-06 -1.712213707e-06 -1.482291069e-06 -1.108444366e-06 -9.767654315e-07)
5(-1.744073104e-06 -1.740956403e-06 -1.434139893e-06 -9.492639353e-07 -7.588323842e-07)
5(-1.774235081e-06 -1.742672025e-06 -1.348213218e-06 -7.184882661e-07 -4.414653167e-07)
5(-1.791030054e-06 -1.721795896e-06 -1.212068588e-06 -4.224794805e-07 -6.221504967e-08)
5(-1.766950305e-06 -1.665894338e-06 -1.011459621e-06 -6.596169669e-08 3.375795462e-07)
5(-1.709171799e-06 -1.576089132e-06 -7.363408532e-07 3.286113661e-07 6.975714444e-07)
5(-1.605902196e-06 -1.432046076e-06 -3.89777709e-07 7.406884512e-07 1.012044308e-06)
5(-1.473236177e-06 -1.222296085e-06 1.455087249e-08 1.146972311e-06 1.301893224e-06)
5(-1.301065029e-06 -9.306739318e-07 4.549636216e-07 1.521142153e-06 1.580721169e-06)
5(-1.081510714e-06 -5.618219489e-07 9.034763348e-07 1.834159515e-06 1.829258497e-06)
5(-7.564884607e-07 -1.335296019e-07 1.3191147e-06 2.082426667e-06 2.027016625e-06)
5(-3.104336953e-07 3.191551393e-07 1.661338452e-06 2.246422447e-06 2.128669009e-06)
5(2.237067648e-07 7.655070714e-07 1.907994395e-06 2.316588617e-06 2.130843603e-06)
5(7.612152093e-07 1.163241252e-06 2.050556129e-06 2.293991614e-06 2.05390473e-06)
5(1.198035244e-06 1.459722023e-06 2.087784991e-06 2.168950096e-06 1.880927744e-06)
5(1.462928498e-06 1.614388139e-06 2.011508564e-06 1.950362878e-06 1.637519059e-06)
5(1.534464765e-06 1.608018399e-06 1.818224401e-06 1.646551438e-06 1.330395261e-06)
5(1.432790418e-06 1.45535038e-06 1.515119766e-06 1.261491837e-06 9.624141256e-07)
5(1.155878583e-06 1.158693457e-06 1.120041655e-06 8.123719221e-07 5.388251054e-07)
5(7.44822191e-07 7.497274831e-07 6.457184157e-07 2.999473931e-07 5.741236971e-08)
5(2.613565593e-07 2.649290125e-07 9.939822382e-08 -2.81888549e-07 -4.982922696e-07)
5(-5.123608147e-07 -5.225158783e-07 -8.460649732e-07 -1.205438114e-06 -1.250077873e-06)
)


60
(
5(-5.462822758e-10 -1.962787159e-09 -4.404564277e-09 -1.142413734e-08 -1.719963406e-08)
5(-1.129329349e-09 -2.201449783e-09 -5.048709727e-09 -1.102054629e-08 -1.487245283e-08)
5(-2.170885854e-09 -3.071281209e-09 -6.822544729e-09 -1.342001869e-08 -1.672806648e-08)
5(-3.7448356e-09 -4.897463793e-09 -1.018514205e-08 -1.882144856e-08 -2.277193169e-08)
5(-6.020349712e-09 -7.976832105e-09 -1.55277977e-08 -2.799385491e-08 -3.418796099e-08)
5(-9.246961377e-09 -1.248959545e-08 -2.307241011e-08 -4.096813679e-08 -5.071438926e-08)
5(-1.376116318e-08 -1.855695987e-08 -3.291838778e-08 -5.67694714e-08 -7.008676934e-08)
5(-1.988717056e-08 -2.637636771e-08 -4.532728433e-08 -7.536173354e-08 -9.176078786e-08)
5(-2.7956824e-08 -3.630506268e-08 -6.076105978e-08 -9.796724608e-08 -1.176533156e-07)
5(-3.823154327e-08 -4.88860652e-08 -7.979720634e-08 -1.254185018e-07 -1.491254096e-07)
5(-5.104647826e-08 -6.467829854e-08 -1.02948324e-07 -1.585618414e-07 -1.876403753e-07)
5(-6.675534122e-08 -8.405582364e-08 -1.306013537e-07 -1.967473868e-07 -2.315125876e-07)
5(-8.590369519e-08 -1.073689571e-07 -1.62869636e-07 -2.40153068e-07 -2.810272593e-07)
5(-1.086736899e-07 -1.347546483e-07 -1.999319179e-07 -2.883056994e-07 -3.349451291e-07)
5(-1.356293828e-07 -1.666636719e-07 -2.420482399e-07 -3.418034419e-07 -3.943121386e-07)
5(-1.669152779e-07 -2.03404363e-07 -2.894406598e-07 -4.00365262e-07 -4.585721502e-07)
5(-2.023637492e-07 -2.450792682e-07 -3.419971245e-07 -4.642346306e-07 -5.288723994e-07)
5(-2.432101456e-07 -2.922766521e-07 -3.997126829e-07 -5.319384455e-07 -6.021734716e-07)
5(-2.888974209e-07 -3.446604893e-07 -4.629147638e-07 -6.045649321e-07 -6.79832944e-07)
5(-3.398988283e-07 -4.026041519e-07 -5.311439759e-07 -6.807269709e-07 -7.603468061e-07)
5(-3.963395967e-07 -4.661649791e-07 -6.040206558e-07 -7.604050811e-07 -8.444080746e-07)
5(-4.582085731e-07 -5.350648865e-07 -6.811701368e-07 -8.425430561e-07 -9.300924833e-07)
5(-5.26107906e-07 -6.095475865e-07 -7.621291114e-07 -9.26149351e-07 -1.01624929e-06)
5(-5.989234159e-07 -6.890760671e-07 -8.466794545e-07 -1.012836273e-06 -1.106600946e-06)
5(-6.763034438e-07 -7.735379315e-07 -9.349583105e-07 -1.097988629e-06 -1.191725327e-06)
5(-7.609023744e-07 -8.64051011e-07 -1.026524676e-06 -1.184006919e-06 -1.276871189e-06)
5(-8.493174187e-07 -9.582386539e-07 -1.12012192e-06 -1.269458913e-06 -1.360361769e-06)
5(-9.42055548e-07 -1.056690025e-06 -1.215587671e-06 -1.351554297e-06 -1.437628218e-06)
5(-1.038118783e-06 -1.158459899e-06 -1.311876023e-06 -1.431543644e-06 -1.512384132e-06)
5(-1.142751744e-06 -1.265431008e-06 -1.407549208e-06 -1.506179237e-06 -1.579431797e-06)
5(-1.2493269e-06 -1.373800693e-06 -1.501834325e-06 -1.575052707e-06 -1.638599637e-06)
5(-1.359149894e-06 -1.484048093e-06 -1.593743788e-06 -1.637954854e-06 -1.691086256e-06)
5(-1.473877029e-06 -1.597002199e-06 -1.68208082e-06 -1.687421974e-06 -1.724311755e-06)
5(-1.590448655e-06 -1.710615065e-06 -1.765106307e-06 -1.725294704e-06 -1.744490935e-06)
5(-1.708120446e-06 -1.822531975e-06 -1.840166375e-06 -1.747084251e-06 -1.743820681e-06)
5(-1.824419641e-06 -1.931223272e-06 -1.904936423e-06 -1.750706855e-06 -1.722323533e-06)
5(-1.936252484e-06 -2.034088714e-06 -1.95728054e-06 -1.736650948e-06 -1.68323306e-06)
5(-2.0483639e-06 -2.13136999e-06 -1.993495711e-06 -1.698194669e-06 -1.615970058e-06)
5(-2.153030784e-06 -2.216730504e-06 -2.008212692e-06 -1.623091846e-06 -1.501841929e-06)
5(-2.248979987e-06 -2.287692951e-06 -1.997064787e-06 -1.488580946e-06 -1.300152124e-06)
5(-2.333231712e-06 -2.340883892e-06 -1.950821499e-06 -1.283205994e-06 -1.002687931e-06)
5(-2.398597189e-06 -2.371531318e-06 -1.855854503e-06 -1.000285916e-06 -6.213577703e-07)
5(-2.440880346e-06 -2.375639456e-06 -1.69483857e-06 -6.496305285e-07 -2.070718562e-07)
5(-2.464648326e-06 -2.352324066e-06 -1.453685358e-06 -2.435221927e-07 1.934228884e-07)
5(-2.455288924e-06 -2.281559593e-06 -1.131942635e-06 2.067380307e-07 5.822961765e-07)
5(-2.417809002e-06 -2.143995479e-06 -7.36075801e-07 6.763167172e-07 9.674326993e-07)
5(-2.357331969e-06 -1.925298512e-06 -2.802293574e-07 1.140385167e-06 1.362273203e-06)
5(-2.231547755e-06 -1.613550256e-06 2.101806657e-07 1.578130162e-06 1.757177595e-06)
5(-2.001052101e-06 -1.222504733e-06 7.018804602e-07 1.973394955e-06 2.118245055e-06)
5(-1.6217023e-06 -7.678988958e-07 1.164902968e-06 2.310658293e-06 2.397036443e-06)
5(-1.115712822e-06 -2.697022459e-07 1.577889231e-06 2.570870471e-06 2.580281477e-06)
5(-5.588042544e-07 2.363948665e-07 1.927188493e-06 2.73070696e-06 2.653901623e-06)
5(-1.992158145e-08 7.102921673e-07 2.192749674e-06 2.761382742e-06 2.589885872e-06)
5(4.52750005e-07 1.112520347e-06 2.349727051e-06 2.682093733e-06 2.446343747e-06)
5(8.331594776e-07 1.412217892e-06 2.37131987e-06 2.453706382e-06 2.16243006e-06)
5(1.0491762e-06 1.546559482e-06 2.234330577e-06 2.091506278e-06 1.762263054e-06)
5(1.120244146e-06 1.515624323e-06 1.932185877e-06 1.617647489e-06 1.283595512e-06)
5(9.931060077e-07 1.286268636e-06 1.469702759e-06 1.043675489e-06 7.273295835e-07)
5(6.288949284e-07 8.209710421e-07 8.382213959e-07 3.75263515e-07 8.565132261e-08)
5(-3.835981649e-07 -2.183124028e-07 -2.223183665e-07 -7.199058085e-07 -1.048975498e-06)
)


60
(
5(-8.923646951e-10 -2.899771138e-09 -6.691464034e-09 -1.629008973e-08 -2.38564017e-08)
5(-1.744646462e-09 -3.388006376e-09 -7.779582397e-09 -1.662003662e-08 -2.228688835e-08)
5(-3.279708827e-09 -4.78145584e-09 -1.041255063e-08 -2.034713731e-08 -2.561067533e-08)
5(-5.497359807e-09 -7.452301861e-09 -1.515622157e-08 -2.817969584e-08 -3.479284611e-08)
5(-8.63383461e-09 -1.175792824e-08 -2.245095959e-08 -4.041758258e-08 -5.004416849e-08)
5(-1.303717986e-08 -1.790299709e-08 -3.250546421e-08 -5.712754144e-08 -7.114000019e-08)
5(-1.904990557e-08 -2.600635787e-08 -4.542443934e-08 -7.749372049e-08 -9.609418721e-08)
5(-2.718201626e-08 -3.637359058e-08 -6.145549226e-08 -1.010162848e-07 -1.234984157e-07)
5(-3.764390273e-08 -4.936413115e-08 -8.118189198e-08 -1.293242622e-07 -1.559665111e-07)
5(-5.089150814e-08 -6.565238925e-08 -1.052416758e-07 -1.634971051e-07 -1.953155612e-07)
5(-6.711644482e-08 -8.572828846e-08 -1.341411701e-07 -2.037856321e-07 -2.418273925e-07)
5(-8.707172694e-08 -1.102134458e-07 -1.681955948e-07 -2.500248358e-07 -2.950353236e-07)
5(-1.107558319e-07 -1.391485698e-07 -2.076113032e-07 -3.017238384e-07 -3.536070196e-07)
5(-1.388873982e-07 -1.729148758e-07 -2.524696958e-07 -3.590392096e-07 -4.177380139e-07)
5(-1.715150842e-07 -2.117348975e-07 -3.030148435e-07 -4.221276144e-07 -4.876496436e-07)
5(-2.093613239e-07 -2.561729697e-07 -3.593421969e-07 -4.906801363e-07 -5.629538146e-07)
5(-2.524610588e-07 -3.063651491e-07 -4.213903705e-07 -5.648238986e-07 -6.44270927e-07)
5(-3.007853537e-07 -3.623558153e-07 -4.893846882e-07 -6.434501627e-07 -7.290305513e-07)
5(-3.551006942e-07 -4.245002501e-07 -5.630781033e-07 -7.277477776e-07 -8.200780298e-07)
5(-4.149800844e-07 -4.925574657e-07 -6.423349851e-07 -8.148483029e-07 -9.118455967e-07)
5(-4.805441099e-07 -5.665764659e-07 -7.26844704e-07 -9.064157918e-07 -1.008308228e-06)
5(-5.536062879e-07 -6.473523961e-07 -8.16021449e-07 -1.001416261e-06 -1.108331522e-06)
5(-6.313278831e-07 -7.333749238e-07 -9.096666346e-07 -1.098395655e-06 -1.209219913e-06)
5(-7.149217747e-07 -8.253272369e-07 -1.007677661e-06 -1.197457187e-06 -1.311553444e-06)
5(-8.050310511e-07 -9.233863202e-07 -1.109846837e-06 -1.298233587e-06 -1.414722686e-06)
5(-9.012251197e-07 -1.02713346e-06 -1.21579171e-06 -1.397960787e-06 -1.513481413e-06)
5(-1.002605678e-06 -1.135850388e-06 -1.324783822e-06 -1.498252264e-06 -1.612032078e-06)
5(-1.109827994e-06 -1.249662041e-06 -1.435821011e-06 -1.596509711e-06 -1.706812407e-06)
5(-1.222015638e-06 -1.367861544e-06 -1.54835385e-06 -1.693867441e-06 -1.800631852e-06)
5(-1.340680025e-06 -1.490776545e-06 -1.661674669e-06 -1.786504794e-06 -1.886306697e-06)
5(-1.461166165e-06 -1.61614346e-06 -1.775006821e-06 -1.875442721e-06 -1.967702829e-06)
5(-1.588792679e-06 -1.746367594e-06 -1.887412445e-06 -1.957766971e-06 -2.040313993e-06)
5(-1.721580871e-06 -1.879276641e-06 -1.997284142e-06 -2.030946725e-06 -2.099770377e-06)
5(-1.857836836e-06 -2.014110129e-06 -2.103837544e-06 -2.090456688e-06 -2.138874003e-06)
5(-1.996647232e-06 -2.14983424e-06 -2.205231079e-06 -2.14189869e-06 -2.171379273e-06)
5(-2.132838626e-06 -2.283189687e-06 -2.299077412e-06 -2.174771327e-06 -2.179709229e-06)
5(-2.276991839e-06 -2.418650634e-06 -2.383083192e-06 -2.189998896e-06 -2.168638015e-06)