/*--------------------------------*- C++ -*----------------------------------*\
| =========                 |                                                 |
| \\      /  F ield         | OpenFOAM: The Open Source CFD Toolbox           |
|  \\    /   O peration     | Version:  2.3.1                                 |
|   \\  /    A nd           | Web:      www.OpenFOAM.org                      |
|    \\/     M anipulation  |                                                 |
\*---------------------------------------------------------------------------*/
FoamFile
{
    version     2.0;
    format      ascii;
    class       dictionary;
    location    "constant";
    object      DPSI23;
}
// * * * * * * * * * * * * * * * * * * * * * * * * * * * * * * * * * * * * * //

DPSI23_table
60
(

60
(
5(-8.94655982e-11 -1.470189321e-10 -4.926435354e-10 -9.183513155e-10 -3.062825111e-09)
5(-1.148366892e-10 -2.433602032e-10 -4.571326221e-10 -9.508501889e-10 -2.053952562e-09)
5(1.349230206e-09 -3.873178667e-10 -5.749014397e-10 -1.308476126e-09 -1.856069068e-09)
5(4.383980119e-09 -6.498026857e-10 -9.47287027e-10 -2.190400177e-09 -3.227335731e-09)
5(5.968868729e-09 -1.116068716e-09 -1.782070768e-09 -3.933713446e-09 -6.190378151e-09)
5(5.020161712e-09 -1.881110033e-09 -3.255417712e-09 -6.79069456e-09 -1.153164881e-08)
5(-1.238217754e-09 -3.063790096e-09 -5.38037314e-09 -1.095800681e-08 -1.892590294e-08)
5(-1.994015244e-09 -4.810386293e-09 -8.385037812e-09 -1.678979738e-08 -2.814560609e-08)
5(6.072411416e-09 -7.312519599e-09 -1.241688655e-08 -2.479936659e-08 -4.065053751e-08)
5(9.369965006e-09 -1.028778322e-08 -1.812762257e-08 -3.566133097e-08 -5.797508004e-08)
5(9.105902826e-09 -1.47026916e-08 -2.640572957e-08 -5.014734948e-08 -8.095251606e-08)
5(-2.136507272e-09 -2.23133599e-08 -3.781970903e-08 -6.944354254e-08 -1.103685085e-07)
5(-1.434723879e-08 -3.096885055e-08 -5.245790625e-08 -9.345053257e-08 -1.477598633e-07)
5(-1.996335205e-08 -4.210327619e-08 -7.077103617e-08 -1.239913964e-07 -1.928312734e-07)
5(-2.746243752e-08 -5.633831316e-08 -9.378524113e-08 -1.60389572e-07 -2.469164275e-07)
5(-3.545654195e-08 -7.158660039e-08 -1.207181078e-07 -2.032713499e-07 -3.105029844e-07)
5(-4.746991076e-08 -9.368062497e-08 -1.544369946e-07 -2.563723672e-07 -3.857025419e-07)
5(-6.331256755e-08 -1.207106379e-07 -1.971991611e-07 -3.180350772e-07 -4.712956192e-07)
5(-8.251073836e-08 -1.532606542e-07 -2.460245377e-07 -3.897597381e-07 -5.682634498e-07)
5(-1.04728741e-07 -1.911456138e-07 -3.024667818e-07 -4.697921708e-07 -6.791231103e-07)
5(-1.320306874e-07 -2.362064109e-07 -3.696617602e-07 -5.632052311e-07 -8.037399406e-07)
5(-1.645043676e-07 -2.883825058e-07 -4.451047021e-07 -6.728295959e-07 -9.434933306e-07)
5(-2.020772921e-07 -3.482894406e-07 -5.322547162e-07 -7.847897712e-07 -1.086303094e-06)
5(-2.472468804e-07 -4.165752237e-07 -6.301610011e-07 -9.123476673e-07 -1.246848929e-06)
5(-2.999708617e-07 -4.954389297e-07 -7.388901824e-07 -1.049798093e-06 -1.415719511e-06)
5(-3.609624469e-07 -5.852010214e-07 -8.588785376e-07 -1.198517341e-06 -1.598894988e-06)
5(-4.321183193e-07 -6.884413245e-07 -9.983207389e-07 -1.362582624e-06 -1.791676305e-06)
5(-5.147251783e-07 -8.047916925e-07 -1.146279896e-06 -1.540085875e-06 -1.995309805e-06)
5(-6.084603292e-07 -9.336016365e-07 -1.31487056e-06 -1.734373604e-06 -2.206629145e-06)
5(-7.169069858e-07 -1.076906779e-06 -1.498505959e-06 -1.947059008e-06 -2.432067412e-06)
5(-8.411154344e-07 -1.237699578e-06 -1.693312563e-06 -2.159085876e-06 -2.657924775e-06)
5(-9.846363254e-07 -1.420725077e-06 -1.914862013e-06 -2.404306534e-06 -2.923434131e-06)
5(-1.149369308e-06 -1.621014852e-06 -2.146873169e-06 -2.647844931e-06 -3.130460779e-06)
5(-1.33523863e-06 -1.841733799e-06 -2.39306397e-06 -2.907273304e-06 -3.405621103e-06)
5(-1.547673983e-06 -2.090813873e-06 -2.668892153e-06 -3.172033935e-06 -3.638156597e-06)
5(-1.789222897e-06 -2.354091569e-06 -2.93681551e-06 -3.438858422e-06 -3.865693149e-06)
5(-2.063071309e-06 -2.665254521e-06 -3.284729726e-06 -3.731606216e-06 -4.085004733e-06)
5(-2.369387872e-06 -2.976783645e-06 -3.605171096e-06 -3.992840502e-06 -4.38640527e-06)
5(-2.707902765e-06 -3.323583065e-06 -3.920809758e-06 -4.270188133e-06 -4.472707984e-06)
5(-3.07123274e-06 -3.684221308e-06 -4.229599614e-06 -4.506504341e-06 -4.835535475e-06)
5(-3.479072018e-06 -4.076093529e-06 -4.588298497e-06 -4.73787248e-06 -4.844518923e-06)
5(-3.918696633e-06 -4.465445736e-06 -4.9141803e-06 -4.985658311e-06 -4.779861556e-06)
5(-4.373460549e-06 -4.864419598e-06 -5.230506233e-06 -5.272167172e-06 -4.651950571e-06)
5(-4.830575519e-06 -5.199262295e-06 -5.376179699e-06 -5.256712865e-06 -4.487953778e-06)
5(-5.274402909e-06 -5.541465238e-06 -5.613212498e-06 -5.152092718e-06 -4.317849576e-06)
5(-5.719224326e-06 -5.812370574e-06 -5.791958279e-06 -4.983456132e-06 -4.117561191e-06)
5(-6.100739003e-06 -6.069160636e-06 -5.988277112e-06 -4.77823937e-06 -3.906472159e-06)
5(-6.416358207e-06 -6.323366576e-06 -5.914077901e-06 -4.555921702e-06 -3.698258556e-06)
5(-6.621063624e-06 -6.302903549e-06 -5.680566919e-06 -4.321187756e-06 -3.505431586e-06)
5(-6.725050298e-06 -6.373374466e-06 -5.38304702e-06 -4.084958915e-06 -3.342168155e-06)
5(-6.701593965e-06 -6.072433073e-06 -5.058404915e-06 -3.861349544e-06 -3.208729332e-06)
5(-6.68670623e-06 -5.676048309e-06 -4.72768123e-06 -3.663798434e-06 -3.105469437e-06)
5(-6.346181287e-06 -5.243380083e-06 -4.409208451e-06 -3.492083301e-06 -3.033887736e-06)
5(-5.790230028e-06 -4.806941189e-06 -4.111137431e-06 -3.347076024e-06 -2.983280339e-06)
5(-5.136265788e-06 -4.387018803e-06 -3.841242624e-06 -3.238032385e-06 -2.967740831e-06)
5(-4.434766607e-06 -3.98560506e-06 -3.595065022e-06 -3.161253448e-06 -2.984784468e-06)
5(-3.713887222e-06 -3.599847721e-06 -3.371786811e-06 -3.111330893e-06 -3.045044792e-06)
5(-3.060461037e-06 -3.192763917e-06 -3.159329749e-06 -3.093023472e-06 -3.157805482e-06)
5(-2.51502112e-06 -2.78580892e-06 -2.870365465e-06 -3.310495585e-06 -3.34561967e-06)
5(-2.009512371e-06 -2.388732096e-06 -2.426718464e-06 -2.731474751e-06 -3.057044549e-06)
)


60
(
5(-1.06234758e-10 -1.907631826e-10 -6.69356167e-10 -1.404470948e-09 -4.231426266e-09)
5(-1.466329985e-10 -3.290630466e-10 -7.195653922e-10 -1.641578135e-09 -3.59524883e-09)
5(6.236614043e-10 -5.585466746e-10 -9.753177906e-10 -2.35250212e-09 -4.20845453e-09)
5(2.35270081e-09 -9.571448549e-10 -1.615603989e-09 -3.840434927e-09 -6.479336036e-09)
5(2.931046637e-09 -1.629662832e-09 -2.873287225e-09 -6.408818252e-09 -1.111407071e-08)
5(1.962604915e-09 -2.700729115e-09 -4.998327158e-09 -1.038870814e-08 -1.857886469e-08)
5(-1.758505678e-09 -4.298146447e-09 -7.977634961e-09 -1.600879532e-08 -2.806473519e-08)
5(-2.790314419e-09 -6.581408268e-09 -1.197647309e-08 -2.346440593e-08 -4.042637562e-08)
5(5.319467949e-10 -9.767198874e-09 -1.734670712e-08 -3.335917673e-08 -5.58763931e-08)
5(9.873134039e-10 -1.383055873e-08 -2.456122766e-08 -4.639342867e-08 -7.620210225e-08)
5(-8.312713759e-10 -1.943317205e-08 -3.441987779e-08 -6.316721169e-08 -1.023644712e-07)
5(-8.924248751e-09 -2.760583958e-08 -4.741445267e-08 -8.453932225e-08 -1.34958339e-07)
5(-1.812016231e-08 -3.741566999e-08 -6.373050382e-08 -1.105624985e-07 -1.742321523e-07)
5(-2.465051803e-08 -4.977936369e-08 -8.378936156e-08 -1.425947722e-07 -2.208230291e-07)
5(-3.320134775e-08 -6.524588774e-08 -1.084490069e-07 -1.802775957e-07 -2.757491327e-07)
5(-4.319232888e-08 -8.292222597e-08 -1.374102997e-07 -2.243351924e-07 -3.386398635e-07)
5(-5.63014185e-08 -1.059810605e-07 -1.724833826e-07 -2.768282881e-07 -4.111048554e-07)
5(-7.290680714e-08 -1.336991977e-07 -2.149694009e-07 -3.370663607e-07 -4.929410983e-07)
5(-9.297627913e-08 -1.666050098e-07 -2.637119545e-07 -4.060865523e-07 -5.845981778e-07)
5(-1.164923839e-07 -2.047068199e-07 -3.194895933e-07 -4.828870621e-07 -6.87303481e-07)
5(-1.446394274e-07 -2.493841376e-07 -3.84342121e-07 -5.705833038e-07 -8.007882864e-07)
5(-1.77950832e-07 -3.008210609e-07 -4.569829022e-07 -6.709879044e-07 -9.277538744e-07)
5(-2.163499323e-07 -3.595282607e-07 -5.397244336e-07 -7.765240828e-07 -1.058638637e-06)
5(-2.620907435e-07 -4.260100792e-07 -6.322412952e-07 -8.946851252e-07 -1.203933507e-06)
5(-3.142242839e-07 -5.019209616e-07 -7.348723999e-07 -1.022270372e-06 -1.357106456e-06)
5(-3.747286688e-07 -5.877038907e-07 -8.474562834e-07 -1.16032257e-06 -1.522825815e-06)
5(-4.441564603e-07 -6.850659623e-07 -9.753623104e-07 -1.311179274e-06 -1.698200133e-06)
5(-5.242128614e-07 -7.941647851e-07 -1.112999147e-06 -1.474567213e-06 -1.883526606e-06)
5(-6.138835584e-07 -9.147015758e-07 -1.266687026e-06 -1.651958613e-06 -2.078812041e-06)
5(-7.174495896e-07 -1.04853991e-06 -1.434479028e-06 -1.845113752e-06 -2.286934383e-06)
5(-8.334782345e-07 -1.197901579e-06 -1.614175674e-06 -2.04318079e-06 -2.498960413e-06)
5(-9.661614818e-07 -1.36520874e-06 -1.814853939e-06 -2.265202307e-06 -2.739341472e-06)
5(-1.11724061e-06 -1.548666841e-06 -2.028534198e-06 -2.493456707e-06 -2.950939365e-06)
5(-1.28691133e-06 -1.751293332e-06 -2.257193953e-06 -2.737009141e-06 -3.208542862e-06)
5(-1.478159742e-06 -1.977058537e-06 -2.509419427e-06 -2.990580481e-06 -3.445981942e-06)
5(-1.694217471e-06 -2.219228158e-06 -2.766318828e-06 -3.252817749e-06 -3.686573923e-06)
5(-1.938682979e-06 -2.496940386e-06 -3.075519585e-06 -3.537885377e-06 -3.929434664e-06)
5(-2.206055614e-06 -2.786067889e-06 -3.380522124e-06 -3.813367187e-06 -4.218459751e-06)
5(-2.505474509e-06 -3.105868352e-06 -3.692362764e-06 -4.103729685e-06 -4.392412849e-06)
5(-2.828151307e-06 -3.442860547e-06 -4.01034791e-06 -4.378175837e-06 -4.720347265e-06)
5(-3.185131974e-06 -3.809932763e-06 -4.3666923e-06 -4.654103199e-06 -4.846889459e-06)
5(-3.577617826e-06 -4.186815165e-06 -4.711704919e-06 -4.942409489e-06 -4.927110417e-06)
5(-3.985621137e-06 -4.581450403e-06 -5.058498024e-06 -5.248428298e-06 -4.955512517e-06)
5(-4.408097867e-06 -4.951837128e-06 -5.315288132e-06 -5.376334868e-06 -4.943260997e-06)
5(-4.835185195e-06 -5.32582747e-06 -5.616014715e-06 -5.4374749e-06 -4.903969052e-06)
5(-5.272657036e-06 -5.66490325e-06 -5.876889439e-06 -5.438649606e-06 -4.826484748e-06)
5(-5.679916089e-06 -5.991916714e-06 -6.132203814e-06 -5.391889978e-06 -4.713164165e-06)
5(-6.050132255e-06 -6.303735317e-06 -6.206840213e-06 -5.303725536e-06 -4.573891426e-06)
5(-6.35450283e-06 -6.441717451e-06 -6.154253534e-06 -5.175575774e-06 -4.421412345e-06)
5(-6.586861033e-06 -6.599956239e-06 -6.024881077e-06 -5.016245413e-06 -4.26975248e-06)
5(-6.726009754e-06 -6.50400117e-06 -5.837973869e-06 -4.836010182e-06 -4.127604276e-06)
5(-6.832158792e-06 -6.30292536e-06 -5.607932096e-06 -4.647753654e-06 -3.997093716e-06)
5(-6.707706979e-06 -6.028368375e-06 -5.347072338e-06 -4.462440813e-06 -3.882430558e-06)
5(-6.400739699e-06 -5.705592667e-06 -5.072505528e-06 -4.289113414e-06 -3.794928559e-06)
5(-5.964990837e-06 -5.348726721e-06 -4.797115386e-06 -4.135193815e-06 -3.730125048e-06)
5(-5.448181184e-06 -4.975825729e-06 -4.530700717e-06 -4.006291296e-06 -3.699703137e-06)
5(-4.873885277e-06 -4.601998017e-06 -4.279083463e-06 -3.905167689e-06 -3.70626381e-06)
5(-4.317070381e-06 -4.214264308e-06 -4.041316095e-06 -3.838640499e-06 -3.760849899e-06)
5(-3.805785627e-06 -3.840822604e-06 -3.789384481e-06 -3.908591019e-06 -3.870441969e-06)
5(-3.300095575e-06 -3.484730287e-06 -3.524260979e-06 -3.699391292e-06 -3.857201841e-06)
)


60
(
5(-1.432508684e-10 -2.840603945e-10 -1.044488029e-09 -2.419778677e-09 -6.535669541e-09)
5(-2.089452348e-10 -4.924258937e-10 -1.245046336e-09 -2.999060159e-09 -6.636143873e-09)
5(-3.37008723e-10 -8.94146842e-10 -1.80322435e-09 -4.342672947e-09 -8.488703035e-09)
5(-5.697481051e-10 -1.545775436e-09 -2.972599006e-09 -6.790339785e-09 -1.264541252e-08)
5(-9.88076635e-10 -2.573488302e-09 -4.975397565e-09 -1.069301055e-08 -1.962419381e-08)
5(-1.686892694e-09 -4.142320018e-09 -8.031290969e-09 -1.633958074e-08 -2.969817485e-08)
5(-2.720818976e-09 -6.40722492e-09 -1.229114419e-08 -2.393696822e-08 -4.240947996e-08)
5(-4.181425245e-09 -9.533638002e-09 -1.789172471e-08 -3.373520966e-08 -5.807446599e-08)
5(-6.206942777e-09 -1.375704498e-08 -2.518964468e-08 -4.625293594e-08 -7.760878475e-08)
5(-9.032896418e-09 -1.934751505e-08 -3.466800678e-08 -6.205064061e-08 -1.017954139e-07)
5(-1.280089353e-08 -2.6580126e-08 -4.674883576e-08 -8.158392804e-08 -1.313888083e-07)
5(-1.775708492e-08 -3.575289463e-08 -6.184379425e-08 -1.05271572e-07 -1.664855547e-07)
5(-2.412177352e-08 -4.718736595e-08 -8.035763399e-08 -1.335606746e-07 -2.07377379e-07)
5(-3.205798254e-08 -6.119901301e-08 -1.025799745e-07 -1.666903339e-07 -2.54226046e-07)
5(-4.203492089e-08 -7.81700513e-08 -1.290143427e-07 -2.051898029e-07 -3.076482547e-07)
5(-5.428196662e-08 -9.854447533e-08 -1.601020923e-07 -2.495218994e-07 -3.675719088e-07)
5(-6.910748582e-08 -1.226807147e-07 -1.961950014e-07 -2.999391758e-07 -4.344559061e-07)
5(-8.681979779e-08 -1.509576949e-07 -2.377132178e-07 -3.567560792e-07 -5.088059604e-07)
5(-1.081586289e-07 -1.838539247e-07 -2.851434952e-07 -4.204460258e-07 -5.905235614e-07)
5(-1.327769878e-07 -2.216771982e-07 -3.386791927e-07 -4.911508443e-07 -6.798810638e-07)
5(-1.618074558e-07 -2.649509748e-07 -3.989337166e-07 -5.69324088e-07 -7.764961418e-07)
5(-1.961599746e-07 -3.142943497e-07 -4.662417445e-07 -6.5496231e-07 -8.827854963e-07)
5(-2.353845006e-07 -3.699773294e-07 -5.410156975e-07 -7.490926183e-07 -9.955500811e-07)
5(-2.791434085e-07 -4.324461037e-07 -6.237230465e-07 -8.518921312e-07 -1.117943854e-06)
5(-3.301473808e-07 -5.023913082e-07 -7.153815708e-07 -9.633731051e-07 -1.248793859e-06)
5(-3.878104685e-07 -5.805173646e-07 -8.157143964e-07 -1.084124828e-06 -1.389044737e-06)
5(-4.52965055e-07 -6.673050643e-07 -9.256871974e-07 -1.214808289e-06 -1.538899115e-06)
5(-5.259292712e-07 -7.633396858e-07 -1.046071444e-06 -1.356058935e-06 -1.699586372e-06)
5(-6.08509818e-07 -8.695954972e-07 -1.177244749e-06 -1.508312918e-06 -1.869314609e-06)
5(-7.011396142e-07 -9.869791559e-07 -1.320381025e-06 -1.672638537e-06 -2.051952427e-06)
5(-8.037549399e-07 -1.116315256e-06 -1.47595362e-06 -1.849193646e-06 -2.245612991e-06)
5(-9.187163671e-07 -1.258705651e-06 -1.645166076e-06 -2.03891008e-06 -2.452176103e-06)
5(-1.047167088e-06 -1.415378504e-06 -1.830115799e-06 -2.243321939e-06 -2.670145327e-06)
5(-1.189202321e-06 -1.587715735e-06 -2.030777434e-06 -2.462936298e-06 -2.902378755e-06)
5(-1.347797538e-06 -1.776990305e-06 -2.248248425e-06 -2.699161046e-06 -3.148790079e-06)
5(-1.522852158e-06 -1.984740313e-06 -2.483847243e-06 -2.952946267e-06 -3.406396222e-06)
5(-1.716069236e-06 -2.212575415e-06 -2.739710593e-06 -3.225677887e-06 -3.678415894e-06)
5(-1.932193905e-06 -2.462847579e-06 -3.019415915e-06 -3.516132335e-06 -3.962218023e-06)
5(-2.168026367e-06 -2.737164572e-06 -3.322039997e-06 -3.823847829e-06 -4.253650099e-06)
5(-2.428395015e-06 -3.035911274e-06 -3.647965465e-06 -4.148941587e-06 -4.550422873e-06)
5(-2.717086128e-06 -3.363458903e-06 -3.998048318e-06 -4.488107782e-06 -4.842952787e-06)
5(-3.029403025e-06 -3.716765525e-06 -4.367971041e-06 -4.837027851e-06 -5.126607261e-06)
5(-3.372053988e-06 -4.098145193e-06 -4.756775363e-06 -5.186096819e-06 -5.383726749e-06)
5(-3.739102514e-06 -4.505111698e-06 -5.156977736e-06 -5.520521339e-06 -5.609114828e-06)
5(-4.137422161e-06 -4.926845807e-06 -5.559555606e-06 -5.828309229e-06 -5.796715275e-06)
5(-4.554473845e-06 -5.35831513e-06 -5.952427764e-06 -6.095769591e-06 -5.934774021e-06)
5(-4.991623744e-06 -5.789989349e-06 -6.319715531e-06 -6.312021608e-06 -6.012940877e-06)
5(-5.433886671e-06 -6.213984478e-06 -6.634464842e-06 -6.468791534e-06 -6.034117485e-06)
5(-5.881358043e-06 -6.60472119e-06 -6.88356791e-06 -6.55818215e-06 -5.997934497e-06)
5(-6.307930093e-06 -6.937152528e-06 -7.053462456e-06 -6.575468628e-06 -5.919747943e-06)
5(-6.70435258e-06 -7.186251759e-06 -7.130033783e-06 -6.521201606e-06 -5.807825083e-06)
5(-7.047310611e-06 -7.336108843e-06 -7.111787623e-06 -6.40635424e-06 -5.668710833e-06)
5(-7.30887224e-06 -7.372633521e-06 -7.003060449e-06 -6.244346402e-06 -5.522510663e-06)
5(-7.444153793e-06 -7.29433728e-06 -6.817519285e-06 -6.055951029e-06 -5.380302096e-06)
5(-7.429138405e-06 -7.107568377e-06 -6.575888598e-06 -5.85422815e-06 -5.249371021e-06)
5(-7.269976735e-06 -6.836428879e-06 -6.299393581e-06 -5.657760041e-06 -5.142907131e-06)
5(-6.971519195e-06 -6.510642375e-06 -6.0123225e-06 -5.47639963e-06 -5.062833625e-06)
5(-6.571057637e-06 -6.156247767e-06 -5.735493141e-06 -5.322487296e-06 -5.021109921e-06)
5(-6.114711906e-06 -5.809244187e-06 -5.501183035e-06 -5.214641951e-06 -5.029144116e-06)
5(-5.597767839e-06 -5.535184994e-06 -5.497909103e-06 -5.456738652e-06 -5.483757396e-06)
)


60
(
5(-1.891377264e-10 -4.026362405e-10 -1.468211719e-09 -3.525572702e-09 -8.797860283e-09)
5(-2.864993218e-10 -7.044500147e-10 -1.831532398e-09 -4.424904003e-09 -9.716198212e-09)
5(-4.831620784e-10 -1.268771911e-09 -2.713889051e-09 -6.328625285e-09 -1.264275461e-08)
5(-8.169691408e-10 -2.148160754e-09 -4.346264826e-09 -9.532740054e-09 -1.798388796e-08)
5(-1.384581157e-09 -3.481781351e-09 -6.968940424e-09 -1.433964353e-08 -2.642742595e-08)
5(-2.301098317e-09 -5.454355722e-09 -1.075914764e-08 -2.100806365e-08 -3.785482593e-08)
5(-3.624548167e-09 -8.21947719e-09 -1.58625153e-08 -2.974287208e-08 -5.21716138e-08)
5(-5.45679761e-09 -1.194839699e-08 -2.249983466e-08 -4.085011135e-08 -6.943796348e-08)
5(-7.966278832e-09 -1.686640769e-08 -3.096214453e-08 -5.470820894e-08 -9.058990251e-08)
5(-1.131830193e-08 -2.322101048e-08 -4.165928196e-08 -7.170132279e-08 -1.159498052e-07)
5(-1.576222141e-08 -3.129122745e-08 -5.500521208e-08 -9.225648579e-08 -1.464519418e-07)
5(-2.142267851e-08 -4.133538746e-08 -7.130960125e-08 -1.167563303e-07 -1.815389648e-07)
5(-2.855136397e-08 -5.363308986e-08 -9.08588474e-08 -1.454202337e-07 -2.218860702e-07)
5(-3.744835824e-08 -6.848933936e-08 -1.139189466e-07 -1.785338353e-07 -2.673467524e-07)
5(-4.817814078e-08 -8.619528819e-08 -1.408293643e-07 -2.164695259e-07 -3.181416311e-07)
5(-6.106957096e-08 -1.070470324e-07 -1.719658398e-07 -2.59532783e-07 -3.74896096e-07)
5(-7.684971066e-08 -1.314034896e-07 -2.076591368e-07 -3.077195688e-07 -4.377870906e-07)
5(-9.526826614e-08 -1.595887085e-07 -2.482283484e-07 -3.613338937e-07 -5.062299128e-07)
5(-1.169172881e-07 -1.919489796e-07 -2.937906291e-07 -4.210841418e-07 -5.812656327e-07)
5(-1.420416065e-07 -2.288379068e-07 -3.449002972e-07 -4.86871834e-07 -6.628812402e-07)
5(-1.710946877e-07 -2.706157391e-07 -4.019329956e-07 -5.5902494e-07 -7.516167786e-07)
5(-2.0426676e-07 -3.176077686e-07 -4.650624168e-07 -6.378717207e-07 -8.464530129e-07)
5(-2.421389299e-07 -3.70169237e-07 -5.344313049e-07 -7.233663409e-07 -9.488856532e-07)
5(-2.849021837e-07 -4.287970827e-07 -6.106855635e-07 -8.164012435e-07 -1.060705101e-06)
5(-3.338586168e-07 -4.937369092e-07 -6.943694488e-07 -9.174931503e-07 -1.178923247e-06)
5(-3.874666893e-07 -5.653658507e-07 -7.858738345e-07 -1.026780736e-06 -1.30639902e-06)
5(-4.484491053e-07 -6.447194306e-07 -8.857061381e-07 -1.145007096e-06 -1.44361498e-06)
5(-5.162708818e-07 -7.314994296e-07 -9.942974004e-07 -1.272655038e-06 -1.59048788e-06)
5(-5.926532722e-07 -8.268772402e-07 -1.112554774e-06 -1.410908245e-06 -1.747622246e-06)
5(-6.748513834e-07 -9.318042037e-07 -1.240808396e-06 -1.559664031e-06 -1.91508841e-06)
5(-7.682461715e-07 -1.046769777e-06 -1.380230759e-06 -1.720644727e-06 -2.09629248e-06)
5(-8.713213251e-07 -1.173113654e-06 -1.532059911e-06 -1.894565262e-06 -2.291493356e-06)
5(-9.834881169e-07 -1.311509957e-06 -1.697030855e-06 -2.082353365e-06 -2.499523353e-06)
5(-1.107255101e-06 -1.462043505e-06 -1.877051009e-06 -2.28577753e-06 -2.723063094e-06)
5(-1.243951093e-06 -1.62758513e-06 -2.073411834e-06 -2.506469044e-06 -2.964754782e-06)
5(-1.394779639e-06 -1.809393744e-06 -2.287120549e-06 -2.745702399e-06 -3.2232316e-06)
5(-1.55907927e-06 -2.008663173e-06 -2.520757238e-06 -3.005249072e-06 -3.499142751e-06)
5(-1.743706547e-06 -2.227554804e-06 -2.777131573e-06 -3.28738182e-06 -3.795697057e-06)
5(-1.943532402e-06 -2.469167286e-06 -3.058911641e-06 -3.593735279e-06 -4.115197836e-06)
5(-2.164673816e-06 -2.736185921e-06 -3.367348584e-06 -3.926266463e-06 -4.450508769e-06)
5(-2.409099699e-06 -3.030225168e-06 -3.704304068e-06 -4.284765559e-06 -4.80785837e-06)
5(-2.674270976e-06 -3.352558675e-06 -4.072427848e-06 -4.66767461e-06 -5.170505456e-06)
5(-2.969600753e-06 -3.707655994e-06 -4.469966093e-06 -5.073167825e-06 -5.536100797e-06)
5(-3.287010196e-06 -4.098069404e-06 -4.897334885e-06 -5.493320821e-06 -5.893500426e-06)
5(-3.635930867e-06 -4.522602404e-06 -5.352465396e-06 -5.917904893e-06 -6.230975017e-06)
5(-4.013412621e-06 -4.975178183e-06 -5.827382895e-06 -6.334112294e-06 -6.53617489e-06)
5(-4.419337239e-06 -5.453414545e-06 -6.310590628e-06 -6.724793787e-06 -6.797406186e-06)
5(-4.857209285e-06 -5.954184208e-06 -6.785169921e-06 -7.07725925e-06 -7.001960518e-06)
5(-5.323356967e-06 -6.467494759e-06 -7.232084663e-06 -7.377422415e-06 -7.143047415e-06)
5(-5.815196875e-06 -6.970954592e-06 -7.630337054e-06 -7.602987384e-06 -7.216045596e-06)
5(-6.331868751e-06 -7.450973957e-06 -7.954965743e-06 -7.744703153e-06 -7.219474607e-06)
5(-6.855462614e-06 -7.880688457e-06 -8.184314234e-06 -7.798217691e-06 -7.165329202e-06)
5(-7.373322431e-06 -8.227963987e-06 -8.307562658e-06 -7.767834775e-06 -7.077642131e-06)
5(-7.845545697e-06 -8.463812919e-06 -8.31774476e-06 -7.663787213e-06 -6.932869196e-06)
5(-8.238914802e-06 -8.574527798e-06 -8.219347691e-06 -7.502744148e-06 -6.790479667e-06)
5(-8.47007076e-06 -8.54569283e-06 -8.031474953e-06 -7.305245531e-06 -6.649190617e-06)
5(-8.541745101e-06 -8.386072662e-06 -7.781207325e-06 -7.096249177e-06 -6.518269541e-06)
5(-8.422182599e-06 -8.124971058e-06 -7.510432851e-06 -6.901295352e-06 -6.41965167e-06)
5(-8.106809116e-06 -7.790150758e-06 -7.268695582e-06 -6.767158711e-06 -6.390305331e-06)
5(-7.607256151e-06 -7.544889901e-06 -7.312873395e-06 -6.930413885e-06 -6.91340239e-06)
)


60
(
5(-2.425759083e-10 -5.461405196e-10 -1.921910061e-09 -4.66903366e-09 -1.092437432e-08)
5(-3.813178773e-10 -9.411455463e-10 -2.46307681e-09 -5.862580755e-09 -1.259093143e-08)
5(-6.355984631e-10 -1.656097303e-09 -3.637017363e-09 -8.196313494e-09 -1.624932539e-08)
5(-1.074973397e-09 -2.728319625e-09 -5.6509979e-09 -1.193612673e-08 -2.270078062e-08)
5(-1.787768456e-09 -4.30722026e-09 -8.737597025e-09 -1.736021332e-08 -3.198040891e-08)
5(-2.885988926e-09 -6.585556307e-09 -1.303988503e-08 -2.464143545e-08 -4.399752897e-08)
5(-4.469090594e-09 -9.70479192e-09 -1.869761152e-08 -3.397281162e-08 -5.901605708e-08)
5(-6.589714697e-09 -1.385491426e-08 -2.594730013e-08 -4.563441089e-08 -7.669234172e-08)
5(-9.47031498e-09 -1.92269676e-08 -3.506418724e-08 -5.995948389e-08 -9.802906404e-08)
5(-1.32040025e-08 -2.6049818e-08 -4.63874746e-08 -7.728359411e-08 -1.234112371e-07)
5(-1.809178024e-08 -3.456686373e-08 -6.025462681e-08 -9.794706793e-08 -1.53099727e-07)
5(-2.41528874e-08 -4.5008331e-08 -7.69293258e-08 -1.221908478e-07 -1.872353747e-07)
5(-3.177332534e-08 -5.761054853e-08 -9.658545271e-08 -1.501691298e-07 -2.253839332e-07)
5(-4.110356103e-08 -7.267358384e-08 -1.195045425e-07 -1.8216401e-07 -2.684461792e-07)
5(-5.233462077e-08 -9.040084809e-08 -1.459042562e-07 -2.184266421e-07 -3.162568729e-07)
5(-6.563221416e-08 -1.110249724e-07 -1.760520158e-07 -2.590282932e-07 -3.690015123e-07)
5(-8.129024011e-08 -1.348409858e-07 -2.102644788e-07 -3.041045643e-07 -4.269428639e-07)
5(-9.98726477e-08 -1.620837321e-07 -2.487384768e-07 -3.541393934e-07 -4.897320797e-07)
5(-1.209838296e-07 -1.930620213e-07 -2.916984211e-07 -4.091050739e-07 -5.588613667e-07)
5(-1.45975704e-07 -2.280966541e-07 -3.395284131e-07 -4.69422401e-07 -6.323994344e-07)
5(-1.743022156e-07 -2.673796041e-07 -3.922784145e-07 -5.352125295e-07 -7.129697859e-07)
5(-2.050623198e-07 -3.111471737e-07 -4.503929035e-07 -6.06958875e-07 -7.990538085e-07)
5(-2.410634854e-07 -3.597872415e-07 -5.140505275e-07 -6.845705832e-07 -8.92698774e-07)
5(-2.825809568e-07 -4.135757495e-07 -5.837795188e-07 -7.686793048e-07 -9.929449963e-07)
5(-3.272981465e-07 -4.728704936e-07 -6.596029752e-07 -8.59963737e-07 -1.101375421e-06)
5(-3.776026815e-07 -5.379240318e-07 -7.42116726e-07 -9.585884862e-07 -1.216124971e-06)
5(-4.334953105e-07 -6.094449523e-07 -8.31828886e-07 -1.064932263e-06 -1.340520687e-06)
5(-4.958884208e-07 -6.878258489e-07 -9.293072024e-07 -1.17967591e-06 -1.47324583e-06)
5(-5.641622502e-07 -7.734833441e-07 -1.035032455e-06 -1.303882838e-06 -1.618686362e-06)
5(-6.389898928e-07 -8.67058265e-07 -1.149466535e-06 -1.437758635e-06 -1.771811234e-06)
5(-7.229861101e-07 -9.688174227e-07 -1.273779079e-06 -1.582432593e-06 -1.938434154e-06)
5(-8.134483122e-07 -1.079801462e-06 -1.40936509e-06 -1.739178324e-06 -2.117859068e-06)
5(-9.12153615e-07 -1.201338117e-06 -1.5555373e-06 -1.909121778e-06 -2.31166255e-06)
5(-1.021096017e-06 -1.333442834e-06 -1.714795722e-06 -2.093869464e-06 -2.519069015e-06)
5(-1.138649246e-06 -1.477152434e-06 -1.888556249e-06 -2.294544294e-06 -2.748440224e-06)
5(-1.270441636e-06 -1.634304472e-06 -2.078852118e-06 -2.512879974e-06 -2.996208934e-06)
5(-1.410960178e-06 -1.807071152e-06 -2.287974422e-06 -2.751874665e-06 -3.262857107e-06)
5(-1.566108784e-06 -1.997229878e-06 -2.516629376e-06 -3.014365498e-06 -3.553233824e-06)
5(-1.734812125e-06 -2.207008393e-06 -2.769031329e-06 -3.302952037e-06 -3.873568168e-06)
5(-1.920413269e-06 -2.438161254e-06 -3.048410147e-06 -3.620108414e-06 -4.221939182e-06)
5(-2.119044068e-06 -2.693194635e-06 -3.357644712e-06 -3.969683216e-06 -4.591193173e-06)
5(-2.341873957e-06 -2.975171413e-06 -3.701019374e-06 -4.353370008e-06 -4.999310198e-06)
5(-2.578428549e-06 -3.288118605e-06 -4.080418861e-06 -4.772294028e-06 -5.420445114e-06)
5(-2.83649549e-06 -3.635817682e-06 -4.499499561e-06 -5.226294975e-06 -5.864170092e-06)
5(-3.112907823e-06 -4.018146412e-06 -4.959104691e-06 -5.710013849e-06 -6.304285701e-06)
5(-3.420023991e-06 -4.436895816e-06 -5.460137655e-06 -6.214795901e-06 -6.746446414e-06)
5(-3.743742747e-06 -4.892111224e-06 -5.995383082e-06 -6.728582632e-06 -7.173439979e-06)
5(-4.127073729e-06 -5.380729523e-06 -6.559007115e-06 -7.235348694e-06 -7.555615281e-06)
5(-4.535817703e-06 -5.905701139e-06 -7.138150463e-06 -7.721639815e-06 -7.895919206e-06)
5(-4.981607821e-06 -6.468113563e-06 -7.71233581e-06 -8.168111366e-06 -8.166550866e-06)
5(-5.499400951e-06 -7.064746253e-06 -8.265672686e-06 -8.550662767e-06 -8.368246757e-06)
5(-6.052822395e-06 -7.672682917e-06 -8.77154449e-06 -8.848607995e-06 -8.483673577e-06)
5(-6.659911268e-06 -8.286179486e-06 -9.199527289e-06 -9.050703627e-06 -8.519458784e-06)
5(-7.287128464e-06 -8.857788075e-06 -9.530413959e-06 -9.14522913e-06 -8.482358179e-06)
5(-7.942764802e-06 -9.352721974e-06 -9.734384026e-06 -9.142925555e-06 -8.39607068e-06)
5(-8.516748935e-06 -9.733084352e-06 -9.806780973e-06 -9.057088583e-06 -8.283371006e-06)
5(-9.026354173e-06 -9.941314129e-06 -9.74172799e-06 -8.919250601e-06 -8.144794258e-06)
5(-9.35146895e-06 -9.995417425e-06 -9.591495688e-06 -8.770870232e-06 -8.047273696e-06)
5(-9.424631748e-06 -9.830038608e-06 -9.393233242e-06 -8.677597276e-06 -8.034951087e-06)
5(-8.872208686e-06 -9.474281399e-06 -9.319510282e-06 -8.834000881e-06 -8.488857625e-06)
)


60
(
5(-3.039091968e-10 -7.086336942e-10 -2.403075271e-09 -5.822302666e-09 -1.290053269e-08)
5(-4.87821149e-10 -1.198819291e-09 -3.116787691e-09 -7.271985954e-09 -1.516942337e-08)
5(-8.121188809e-10 -2.056662478e-09 -4.54556092e-09 -9.960315713e-09 -1.949200328e-08)
5(-1.342256452e-09 -3.301377331e-09 -6.890093802e-09 -1.407284216e-08 -2.635758079e-08)
5(-2.207744093e-09 -5.093927047e-09 -1.033312617e-08 -1.983214326e-08 -3.611238807e-08)
5(-3.471445328e-09 -7.624837586e-09 -1.499490114e-08 -2.746930109e-08 -4.836949244e-08)
5(-5.279226611e-09 -1.102764718e-08 -2.103277813e-08 -3.713782498e-08 -6.339788464e-08)
5(-7.674698173e-09 -1.550257914e-08 -2.864963758e-08 -4.903893984e-08 -8.105189365e-08)
5(-1.082463031e-08 -2.121595693e-08 -3.810888149e-08 -6.339938651e-08 -1.01983694e-07)
5(-1.494299642e-08 -2.836199579e-08 -4.972133823e-08 -8.059174623e-08 -1.27051512e-07)
5(-2.011687544e-08 -3.713631666e-08 -6.368958769e-08 -1.008409843e-07 -1.551782755e-07)
5(-2.65078814e-08 -4.77814779e-08 -8.026113466e-08 -1.242926427e-07 -1.875131584e-07)
5(-3.451865558e-08 -6.050033106e-08 -9.966041908e-08 -1.510458708e-07 -2.235106013e-07)
5(-4.413810168e-08 -7.547229706e-08 -1.22042559e-07 -1.813953027e-07 -2.637157684e-07)
5(-5.566435948e-08 -9.291099826e-08 -1.475325491e-07 -2.154474891e-07 -3.081809436e-07)
5(-6.920226242e-08 -1.131040772e-07 -1.764435106e-07 -2.532785015e-07 -3.570578615e-07)
5(-8.485397686e-08 -1.36191671e-07 -2.088765335e-07 -2.952704916e-07 -4.099314356e-07)
5(-1.031356091e-07 -1.624440033e-07 -2.450306978e-07 -3.415725225e-07 -4.681875713e-07)
5(-1.245095151e-07 -1.919937933e-07 -2.852130781e-07 -3.919510713e-07 -5.299509075e-07)
5(-1.48178318e-07 -2.251058636e-07 -3.294884203e-07 -4.469406296e-07 -5.982639045e-07)
5(-1.754354795e-07 -2.619983228e-07 -3.780660632e-07 -5.067059991e-07 -6.698797319e-07)
5(-2.063205309e-07 -3.027931558e-07 -4.312507528e-07 -5.714976379e-07 -7.482589978e-07)
5(-2.402841114e-07 -3.478958203e-07 -4.894974635e-07 -6.418958081e-07 -8.330792914e-07)
5(-2.793537096e-07 -3.974170382e-07 -5.528151e-07 -7.179498766e-07 -9.223158753e-07)
5(-3.208247605e-07 -4.517731026e-07 -6.214596544e-07 -7.999130119e-07 -1.020078181e-06)
5(-3.684155105e-07 -5.114218318e-07 -6.960085447e-07 -8.882003873e-07 -1.124481239e-06)
5(-4.211002818e-07 -5.763899342e-07 -7.767777465e-07 -9.836097909e-07 -1.23714454e-06)
5(-4.790305043e-07 -6.475104854e-07 -8.643460241e-07 -1.086558788e-06 -1.357493514e-06)
5(-5.388738198e-07 -7.250912386e-07 -9.589060736e-07 -1.197410866e-06 -1.487186165e-06)
5(-6.0917093e-07 -8.091574227e-07 -1.061090499e-06 -1.317242674e-06 -1.62642059e-06)
5(-6.829077807e-07 -9.000308389e-07 -1.171696764e-06 -1.446335025e-06 -1.780322537e-06)
5(-7.661974423e-07 -9.987367508e-07 -1.291928148e-06 -1.586171563e-06 -1.939514897e-06)
5(-8.541887357e-07 -1.106103578e-06 -1.422041054e-06 -1.737678163e-06 -2.119664081e-06)