/*--------------------------------*- C++ -*----------------------------------*\
| =========                 |                                                 |
| \\      /  F ield         | OpenFOAM: The Open Source CFD Toolbox           |
|  \\    /   O peration     | Version:  2.3.1                                 |
|   \\  /    A nd           | Web:      www.OpenFOAM.org                      |
|    \\/     M anipulation  |                                                 |
\*---------------------------------------------------------------------------*/
FoamFile
{
    version     2.0;
    format      ascii;
    class       dictionary;
    location    "constant";
    object      DPSI30;
}
// * * * * * * * * * * * * * * * * * * * * * * * * * * * * * * * * * * * * * //

DPSI30_table
60
(

60
(
5(-5.24627263e-07 -6.823187813e-07 -7.196984529e-07 -8.965599886e-07 -9.221049902e-07)
5(-7.184495063e-07 -1.021009578e-06 -9.400510972e-07 -1.120770053e-06 -1.16368583e-06)
5(-9.863725624e-07 -1.078040774e-06 -1.122940553e-06 -1.348353964e-06 -1.527266996e-06)
5(-9.985657904e-07 -1.16632724e-06 -1.205195385e-06 -1.591347162e-06 -1.383733852e-06)
5(-1.179737529e-06 -1.305652753e-06 -1.367315836e-06 -1.638929535e-06 -1.712909156e-06)
5(-1.260168636e-06 -1.451717238e-06 -1.693249217e-06 -1.795403515e-06 -2.016458611e-06)
5(-1.313313951e-06 -1.586239553e-06 -1.804609037e-06 -2.014150303e-06 -2.038499218e-06)
5(-1.51064041e-06 -1.697834449e-06 -1.843149558e-06 -2.114463178e-06 -2.415703968e-06)
5(-1.533086698e-06 -1.793924079e-06 -1.989041352e-06 -2.229108207e-06 -2.455642348e-06)
5(-1.638648483e-06 -1.889192426e-06 -2.05148711e-06 -2.38102141e-06 -2.573688202e-06)
5(-1.724905477e-06 -2.000172764e-06 -2.178208688e-06 -2.509583647e-06 -2.720480737e-06)
5(-1.838784102e-06 -2.110075074e-06 -2.344929071e-06 -2.643117833e-06 -2.906515944e-06)
5(-1.973460171e-06 -2.215798911e-06 -2.481123157e-06 -2.752270174e-06 -3.034155182e-06)
5(-2.041515224e-06 -2.319822665e-06 -2.59743872e-06 -2.922293743e-06 -3.200468444e-06)
5(-2.170235067e-06 -2.44255001e-06 -2.735368448e-06 -3.035100129e-06 -3.349725512e-06)
5(-2.261360679e-06 -2.549402721e-06 -2.849257035e-06 -3.164479725e-06 -3.489740403e-06)
5(-2.365727842e-06 -2.666465812e-06 -2.977323243e-06 -3.29983519e-06 -3.618551395e-06)
5(-2.475410356e-06 -2.785209041e-06 -3.107740509e-06 -3.423506653e-06 -3.759926472e-06)
5(-2.590750555e-06 -2.902222257e-06 -3.239085463e-06 -3.568637634e-06 -3.908067191e-06)
5(-2.691376914e-06 -3.007300314e-06 -3.359269567e-06 -3.683756288e-06 -4.066029563e-06)
5(-2.812965758e-06 -3.147442287e-06 -3.515300283e-06 -3.837496609e-06 -4.22198108e-06)
5(-2.932629721e-06 -3.280601542e-06 -3.648934476e-06 -4.042266808e-06 -4.4158681e-06)
5(-3.043682731e-06 -3.408516971e-06 -3.799527161e-06 -4.156473099e-06 -4.539002203e-06)
5(-3.182027457e-06 -3.532191081e-06 -3.949667609e-06 -4.30883841e-06 -4.707414676e-06)
5(-3.311110229e-06 -3.67536351e-06 -4.094961926e-06 -4.450738145e-06 -4.857057666e-06)
5(-3.453685963e-06 -3.830095399e-06 -4.237355899e-06 -4.591256359e-06 -5.028509443e-06)
5(-3.600400479e-06 -3.996852792e-06 -4.428611414e-06 -4.753428798e-06 -5.198625516e-06)
5(-3.765234652e-06 -4.166983292e-06 -4.589343872e-06 -4.925303824e-06 -5.378656773e-06)
5(-3.916435204e-06 -4.334725235e-06 -4.789451722e-06 -5.12004076e-06 -5.558666473e-06)
5(-4.093050954e-06 -4.505421812e-06 -4.989728934e-06 -5.34113193e-06 -5.760491331e-06)
5(-4.270754831e-06 -4.690219509e-06 -5.174560262e-06 -5.516298541e-06 -5.94828105e-06)
5(-4.472083823e-06 -4.906101698e-06 -5.409316554e-06 -5.770368662e-06 -6.24027254e-06)
5(-4.692657206e-06 -5.118943665e-06 -5.624422401e-06 -5.985400175e-06 -6.355150934e-06)
5(-4.917876022e-06 -5.338098121e-06 -5.833729629e-06 -6.223913066e-06 -6.665624621e-06)
5(-5.158306483e-06 -5.592446222e-06 -6.094516753e-06 -6.456427407e-06 -6.868860775e-06)
5(-5.422813019e-06 -5.819582922e-06 -6.279661752e-06 -6.68318523e-06 -7.074807601e-06)
5(-5.701344479e-06 -6.144537192e-06 -6.672152757e-06 -6.975274005e-06 -7.272419651e-06)
5(-6.002143723e-06 -6.398496445e-06 -6.948438107e-06 -7.186296001e-06 -7.723008279e-06)
5(-6.303806764e-06 -6.698110105e-06 -7.1883436e-06 -7.453769041e-06 -7.666166238e-06)
5(-6.585572454e-06 -6.989582946e-06 -7.401887537e-06 -7.644304961e-06 -8.643724717e-06)
5(-6.917902488e-06 -7.324526538e-06 -7.749919511e-06 -7.885096379e-06 -8.652877867e-06)
5(-7.268363937e-06 -7.631577468e-06 -8.034591973e-06 -8.325331228e-06 -8.616470069e-06)
5(-7.594199228e-06 -7.963343129e-06 -8.32733076e-06 -9.066841362e-06 -8.496291909e-06)
5(-7.880457552e-06 -8.148190291e-06 -8.247373663e-06 -9.034958216e-06 -8.319030184e-06)
5(-8.128495192e-06 -8.395771551e-06 -8.495103731e-06 -8.908048873e-06 -8.190693961e-06)
5(-8.397154706e-06 -8.524459115e-06 -8.75058621e-06 -8.71693949e-06 -8.007649999e-06)
5(-8.583807791e-06 -8.726915482e-06 -9.423960418e-06 -8.49447707e-06 -7.798545401e-06)
5(-8.709726248e-06 -9.0787543e-06 -9.493551898e-06 -8.262812054e-06 -7.577652461e-06)
5(-8.741627043e-06 -8.951028944e-06 -9.244801929e-06 -8.008716754e-06 -7.362874676e-06)
5(-8.699709862e-06 -9.512245475e-06 -8.918409897e-06 -7.742423081e-06 -7.167168461e-06)
5(-8.632980868e-06 -9.16475967e-06 -8.562276784e-06 -7.473096074e-06 -6.985317043e-06)
5(-8.98601766e-06 -8.722871528e-06 -8.188217675e-06 -7.217029709e-06 -6.824536007e-06)
5(-8.787442706e-06 -8.25178463e-06 -7.813149676e-06 -6.965501097e-06 -6.668445075e-06)
5(-8.246325048e-06 -7.761218894e-06 -7.431446342e-06 -6.718442705e-06 -6.523677091e-06)
5(-7.570492052e-06 -7.271405367e-06 -7.049733112e-06 -6.487536643e-06 -6.391499455e-06)
5(-6.783524857e-06 -6.759639815e-06 -6.653803342e-06 -6.267999666e-06 -6.275048194e-06)
5(-5.856907766e-06 -6.215070616e-06 -6.238994736e-06 -6.046753713e-06 -6.20308608e-06)
5(-4.966687786e-06 -5.530581392e-06 -5.772961407e-06 -5.830267786e-06 -6.175359014e-06)
5(-4.144762304e-06 -4.758312226e-06 -5.057943501e-06 -6.174783369e-06 -6.202980538e-06)
5(-3.223261956e-06 -3.750698715e-06 -3.526104279e-06 -3.682520203e-06 -4.313609235e-06)
)


60
(
5(-5.156485666e-07 -6.535547314e-07 -7.069785911e-07 -8.730364691e-07 -9.047092772e-07)
5(-6.97464562e-07 -9.414559462e-07 -9.071981362e-07 -1.075421417e-06 -1.130769346e-06)
5(-9.376178972e-07 -1.013699831e-06 -1.07773016e-06 -1.273548784e-06 -1.492461174e-06)
5(-1.016418265e-06 -1.102070852e-06 -1.169989458e-06 -1.475732119e-06 -1.377378231e-06)
5(-1.12930894e-06 -1.221193855e-06 -1.305682456e-06 -1.532383152e-06 -1.629248413e-06)
5(-1.177256749e-06 -1.344406293e-06 -1.549242968e-06 -1.665501456e-06 -1.861818701e-06)
5(-1.236156496e-06 -1.457651207e-06 -1.649609653e-06 -1.837893338e-06 -1.905110025e-06)
5(-1.387955344e-06 -1.556694798e-06 -1.701905939e-06 -1.931578e-06 -2.185358654e-06)
5(-1.430908133e-06 -1.646585748e-06 -1.825365703e-06 -2.036970075e-06 -2.242212781e-06)
5(-1.524369619e-06 -1.734765355e-06 -1.895646553e-06 -2.163653771e-06 -2.352314007e-06)
5(-1.606007957e-06 -1.832357818e-06 -2.006318248e-06 -2.276272959e-06 -2.478048586e-06)
5(-1.702269704e-06 -1.929303658e-06 -2.13892858e-06 -2.391595661e-06 -2.626629936e-06)
5(-1.811451342e-06 -2.024005095e-06 -2.25414266e-06 -2.492597334e-06 -2.740731233e-06)
5(-1.882178607e-06 -2.117852048e-06 -2.357267021e-06 -2.628178854e-06 -2.877723345e-06)
5(-1.988711567e-06 -2.223135928e-06 -2.474282447e-06 -2.731400296e-06 -3.004335726e-06)
5(-2.073300757e-06 -2.318827465e-06 -2.57583555e-06 -2.844632317e-06 -3.125791988e-06)
5(-2.166337175e-06 -2.420576814e-06 -2.68660356e-06 -2.960993964e-06 -3.240993526e-06)
5(-2.262405368e-06 -2.523639704e-06 -2.798225997e-06 -3.071685246e-06 -3.363341606e-06)
5(-2.362185716e-06 -2.626895757e-06 -2.912277239e-06 -3.194127771e-06 -3.49085918e-06)
5(-2.454387329e-06 -2.723313432e-06 -3.019672772e-06 -3.300650598e-06 -3.62320421e-06)
5(-2.558494809e-06 -2.840509494e-06 -3.148043085e-06 -3.429716935e-06 -3.756350143e-06)
5(-2.663126375e-06 -2.954464919e-06 -3.264363665e-06 -3.586797094e-06 -3.910788843e-06)
5(-2.763584102e-06 -3.066637834e-06 -3.391954022e-06 -3.69651928e-06 -4.025954382e-06)
5(-2.880088896e-06 -3.176716266e-06 -3.519068154e-06 -3.828139643e-06 -4.16820558e-06)
5(-2.992287708e-06 -3.29923521e-06 -3.646572668e-06 -3.953836582e-06 -4.300470187e-06)
5(-3.113463638e-06 -3.429037613e-06 -3.770586878e-06 -4.080712099e-06 -4.445849761e-06)
5(-3.237955121e-06 -3.567137033e-06 -3.924229959e-06 -4.219475371e-06 -4.592839738e-06)
5(-3.373819414e-06 -3.708613846e-06 -4.064055129e-06 -4.367799344e-06 -4.746551178e-06)
5(-3.504200954e-06 -3.849254297e-06 -4.224519136e-06 -4.528105456e-06 -4.901514559e-06)
5(-3.649689277e-06 -3.994181742e-06 -4.389499507e-06 -4.706448354e-06 -5.071471081e-06)
5(-3.797458698e-06 -4.149897185e-06 -4.547041848e-06 -4.860850401e-06 -5.235140212e-06)
5(-3.959953718e-06 -4.323006453e-06 -4.734206849e-06 -5.059956198e-06 -5.458161115e-06)
5(-4.135153637e-06 -4.496299207e-06 -4.91336981e-06 -5.242627338e-06 -5.587428214e-06)
5(-4.314980488e-06 -4.67806305e-06 -5.093447312e-06 -5.439771294e-06 -5.826729207e-06)
5(-4.504905148e-06 -4.879046774e-06 -5.301319609e-06 -5.637498899e-06 -6.010067552e-06)
5(-4.70684206e-06 -5.069469819e-06 -5.474880914e-06 -5.834793045e-06 -6.199201223e-06)
5(-4.92307074e-06 -5.314289277e-06 -5.760915543e-06 -6.072945143e-06 -6.386393173e-06)
5(-5.149363772e-06 -5.524050593e-06 -5.989631962e-06 -6.269871627e-06 -6.710420107e-06)
5(-5.378759392e-06 -5.765305027e-06 -6.20219151e-06 -6.498660346e-06 -6.764790881e-06)
5(-5.598349416e-06 -5.997303337e-06 -6.402342267e-06 -6.690379892e-06 -7.374967591e-06)
5(-5.842350973e-06 -6.261290819e-06 -6.683490393e-06 -6.909304367e-06 -7.46913079e-06)
5(-6.101994716e-06 -6.506469653e-06 -6.923687464e-06 -7.23727125e-06 -7.539625583e-06)
5(-6.340081823e-06 -6.767252903e-06 -7.171245974e-06 -7.726246615e-06 -7.559411812e-06)
5(-6.555570604e-06 -6.955005204e-06 -7.217296799e-06 -7.79696577e-06 -7.534939627e-06)
5(-6.74805195e-06 -7.157559272e-06 -7.42923458e-06 -7.812273655e-06 -7.526366739e-06)
5(-6.947457077e-06 -7.297810985e-06 -7.640228189e-06 -7.779599323e-06 -7.477103945e-06)
5(-7.094380228e-06 -7.465475667e-06 -8.070237205e-06 -7.715358193e-06 -7.397335457e-06)
5(-7.200392536e-06 -7.701663109e-06 -8.164849604e-06 -7.628027835e-06 -7.294937612e-06)
5(-7.242272723e-06 -7.666501363e-06 -8.071878387e-06 -7.510731919e-06 -7.17941146e-06)
5(-7.241449503e-06 -7.998680962e-06 -7.920939008e-06 -7.370422882e-06 -7.061634161e-06)
5(-7.215343406e-06 -7.83065457e-06 -7.73515698e-06 -7.212017875e-06 -6.945256117e-06)
5(-7.408754866e-06 -7.59947012e-06 -7.523968956e-06 -7.042386656e-06 -6.826027219e-06)
5(-7.302293355e-06 -7.332626173e-06 -7.290213122e-06 -6.865599594e-06 -6.7049879e-06)
5(-7.013465339e-06 -7.046351388e-06 -7.040262407e-06 -6.684689825e-06 -6.583449864e-06)
5(-6.649830085e-06 -6.734022091e-06 -6.775952352e-06 -6.500922497e-06 -6.466824786e-06)
5(-6.213950565e-06 -6.401445518e-06 -6.496424142e-06 -6.315604513e-06 -6.353373354e-06)
5(-5.693670612e-06 -6.043795993e-06 -6.196397214e-06 -6.125687047e-06 -6.25756776e-06)
5(-5.177264234e-06 -5.600626086e-06 -5.861019317e-06 -5.934055289e-06 -6.178474647e-06)
5(-4.67123824e-06 -5.104264356e-06 -5.397532122e-06 -6.01165249e-06 -6.10952696e-06)
5(-4.00320571e-06 -4.38999747e-06 -4.427084358e-06 -4.554385358e-06 -5.000002137e-06)
)


60
(
5(-4.963171811e-07 -5.947890531e-07 -6.777883787e-07 -8.176757021e-07 -8.63379422e-07)
5(-6.464752914e-07 -7.548109631e-07 -8.270634197e-07 -9.612244914e-07 -1.032684948e-06)
5(-7.611699108e-07 -8.766482106e-07 -9.602975763e-07 -1.08976438e-06 -1.185946829e-06)
5(-8.514993428e-07 -9.731285175e-07 -1.074752168e-06 -1.205211237e-06 -1.316730057e-06)
5(-9.350720358e-07 -1.062427228e-06 -1.172241966e-06 -1.311611019e-06 -1.430217699e-06)
5(-1.015950842e-06 -1.151535062e-06 -1.265766202e-06 -1.414950498e-06 -1.538290289e-06)
5(-1.095600037e-06 -1.237643377e-06 -1.361797149e-06 -1.515045003e-06 -1.647671994e-06)
5(-1.175274626e-06 -1.323285308e-06 -1.454995569e-06 -1.61434062e-06 -1.757945675e-06)
5(-1.254824944e-06 -1.408539546e-06 -1.548537722e-06 -1.714315448e-06 -1.867226481e-06)
5(-1.332784139e-06 -1.492508468e-06 -1.640035277e-06 -1.811596781e-06 -1.974815669e-06)
5(-1.411151574e-06 -1.575299956e-06 -1.731020375e-06 -1.908017183e-06 -2.078792882e-06)
5(-1.488241557e-06 -1.658785049e-06 -1.820467884e-06 -2.00392178e-06 -2.181266194e-06)
5(-1.565855003e-06 -1.741570176e-06 -1.910587867e-06 -2.099965337e-06 -2.284511365e-06)
5(-1.643943452e-06 -1.824906449e-06 -2.000909011e-06 -2.194591143e-06 -2.38678759e-06)
5(-1.722503943e-06 -1.908805337e-06 -2.091990661e-06 -2.2902718e-06 -2.489514724e-06)
5(-1.801197291e-06 -1.992560297e-06 -2.182741458e-06 -2.385936289e-06 -2.591923344e-06)
5(-1.880924729e-06 -2.077359291e-06 -2.27378471e-06 -2.482141353e-06 -2.69472605e-06)
5(-1.961524076e-06 -2.162404522e-06 -2.365385634e-06 -2.578383511e-06 -2.798002849e-06)
5(-2.042937936e-06 -2.249719901e-06 -2.458887041e-06 -2.676574225e-06 -2.901894085e-06)
5(-2.12565483e-06 -2.337284029e-06 -2.552663234e-06 -2.774467625e-06 -3.006227849e-06)
5(-2.209590249e-06 -2.426300183e-06 -2.648630994e-06 -2.875728079e-06 -3.112629846e-06)
5(-2.295661484e-06 -2.517849939e-06 -2.745903437e-06 -2.976050087e-06 -3.220463081e-06)
5(-2.383778009e-06 -2.610767851e-06 -2.845538152e-06 -3.080764768e-06 -3.32948576e-06)
5(-2.473097017e-06 -2.705007789e-06 -2.945352043e-06 -3.187836339e-06 -3.441390934e-06)
5(-2.565297832e-06 -2.802083522e-06 -3.051051119e-06 -3.295491824e-06 -3.555701697e-06)
5(-2.659549329e-06 -2.902199066e-06 -3.155614394e-06 -3.405702575e-06 -3.671684552e-06)
5(-2.756630563e-06 -3.005345037e-06 -3.265248635e-06 -3.519404069e-06 -3.790810573e-06)
5(-2.856547953e-06 -3.110432297e-06 -3.378002673e-06 -3.637095738e-06 -3.91483578e-06)
5(-2.95996692e-06 -3.219335991e-06 -3.493463037e-06 -3.757867324e-06 -4.039443937e-06)
5(-3.066410587e-06 -3.332517238e-06 -3.614158233e-06 -3.883918761e-06 -4.171934083e-06)
5(-3.176028156e-06 -3.449391653e-06 -3.738443072e-06 -4.013594197e-06 -4.306307007e-06)
5(-3.289528322e-06 -3.570355299e-06 -3.866968155e-06 -4.148084644e-06 -4.447746721e-06)
5(-3.406981437e-06 -3.695872938e-06 -4.002579053e-06 -4.289479292e-06 -4.594021521e-06)
5(-3.527495204e-06 -3.826827777e-06 -4.142739595e-06 -4.43584039e-06 -4.747660411e-06)
5(-3.652528369e-06 -3.961612432e-06 -4.288301511e-06 -4.589601644e-06 -4.906319515e-06)
5(-3.779439084e-06 -4.102671168e-06 -4.440114254e-06 -4.75013236e-06 -5.072750569e-06)
5(-3.910628343e-06 -4.248275919e-06 -4.597595547e-06 -4.919804653e-06 -5.244250529e-06)
5(-4.043728638e-06 -4.39855361e-06 -4.764803441e-06 -5.09439814e-06 -5.419752272e-06)
5(-4.177488011e-06 -4.557008943e-06 -4.938011311e-06 -5.274260847e-06 -5.60205814e-06)
5(-4.312656572e-06 -4.713927506e-06 -5.116731686e-06 -5.461274737e-06 -5.788576048e-06)
5(-4.447911144e-06 -4.882569657e-06 -5.304361446e-06 -5.652111679e-06 -5.982048755e-06)
5(-4.581157295e-06 -5.044898229e-06 -5.488115476e-06 -5.845901088e-06 -6.175463827e-06)
5(-4.707970851e-06 -5.211179696e-06 -5.673531812e-06 -6.041768854e-06 -6.357330637e-06)
5(-4.82906815e-06 -5.378661405e-06 -5.850853555e-06 -6.229577391e-06 -6.519746574e-06)
5(-4.94548824e-06 -5.529880493e-06 -6.021251401e-06 -6.407314626e-06 -6.661533909e-06)
5(-5.053656275e-06 -5.668720577e-06 -6.176122349e-06 -6.561533881e-06 -6.778044545e-06)
5(-5.147776667e-06 -5.785877522e-06 -6.325064943e-06 -6.6861995e-06 -6.861840388e-06)
5(-5.231465153e-06 -5.89050855e-06 -6.444568978e-06 -6.777864173e-06 -6.911847834e-06)
5(-5.290898926e-06 -5.970967478e-06 -6.537415806e-06 -6.834683861e-06 -6.930709683e-06)
5(-5.348485076e-06 -6.035846847e-06 -6.596461352e-06 -6.855591911e-06 -6.919218754e-06)
5(-5.383042896e-06 -6.076457229e-06 -6.615350947e-06 -6.838044577e-06 -6.885795551e-06)
5(-5.408024328e-06 -6.090706235e-06 -6.598928128e-06 -6.78856978e-06 -6.829541697e-06)
5(-5.422140122e-06 -6.072850865e-06 -6.544987847e-06 -6.709240511e-06 -6.758694798e-06)
5(-5.426106584e-06 -6.025528655e-06 -6.459493005e-06 -6.611063103e-06 -6.668757886e-06)
5(-5.415910756e-06 -5.940227112e-06 -6.345161289e-06 -6.488927468e-06 -6.570258085e-06)
5(-5.38073688e-06 -5.833790837e-06 -6.209591467e-06 -6.350851005e-06 -6.462251197e-06)
5(-5.322228172e-06 -5.706424935e-06 -6.053504787e-06 -6.201685019e-06 -6.336025247e-06)
5(-5.232761305e-06 -5.555017455e-06 -5.878162002e-06 -6.031376521e-06 -6.193402247e-06)
5(-5.093109174e-06 -5.37728866e-06 -5.684438851e-06 -5.833327673e-06 -6.024781845e-06)
5(-4.767029812e-06 -4.966796993e-06 -5.373618327e-06 -5.452978103e-06 -5.695467872e-06)
)


60
(
5(-4.866772477e-07 -5.739046139e-07 -6.616011222e-07 -7.905205963e-07 -8.381445076e-07)
5(-6.319461476e-07 -7.297100735e-07 -8.031982053e-07 -9.251927221e-07 -9.946152319e-07)
5(-7.420369421e-07 -8.486987505e-07 -9.282362887e-07 -1.047261272e-06 -1.134644513e-06)
5(-8.297394472e-07 -9.427648004e-07 -1.037459433e-06 -1.15774122e-06 -1.258111892e-06)
5(-9.11414656e-07 -1.030013483e-06 -1.133842457e-06 -1.260092279e-06 -1.368475745e-06)
5(-9.919772558e-07 -1.116928197e-06 -1.225084488e-06 -1.359726879e-06 -1.474614006e-06)
5(-1.070492051e-06 -1.20156043e-06 -1.316902148e-06 -1.456699071e-06 -1.579930509e-06)
5(-1.14820934e-06 -1.284809848e-06 -1.407899603e-06 -1.553339928e-06 -1.684905985e-06)
5(-1.225348475e-06 -1.367161298e-06 -1.497349253e-06 -1.647993337e-06 -1.788560259e-06)
5(-1.301783057e-06 -1.448382237e-06 -1.585954785e-06 -1.741933587e-06 -1.889245779e-06)
5(-1.377866101e-06 -1.529615607e-06 -1.672989406e-06 -1.83403452e-06 -1.988878751e-06)
5(-1.453402983e-06 -1.610295478e-06 -1.759878005e-06 -1.926332951e-06 -2.087351967e-06)
5(-1.528755158e-06 -1.690222306e-06 -1.846447002e-06 -2.017353332e-06 -2.185183528e-06)
5(-1.6043343e-06 -1.770804725e-06 -1.932853959e-06 -2.108735312e-06 -2.28277605e-06)
5(-1.680174889e-06 -1.851130751e-06 -2.01922352e-06 -2.199909911e-06 -2.379922141e-06)
5(-1.756471813e-06 -1.931942557e-06 -2.105739562e-06 -2.291149057e-06 -2.47707914e-06)
5(-1.832938464e-06 -2.013051547e-06 -2.192732693e-06 -2.382300868e-06 -2.574355523e-06)
5(-1.910199274e-06 -2.094654541e-06 -2.280950753e-06 -2.472794104e-06 -2.672145783e-06)
5(-1.988055109e-06 -2.177146066e-06 -2.367987679e-06 -2.566513268e-06 -2.769815051e-06)
5(-2.066791153e-06 -2.260376933e-06 -2.457401927e-06 -2.658786405e-06 -2.868467624e-06)
5(-2.146849038e-06 -2.344387536e-06 -2.547414338e-06 -2.752898054e-06 -2.96799163e-06)
5(-2.227456471e-06 -2.42989215e-06 -2.639068426e-06 -2.84916726e-06 -3.068672653e-06)
5(-2.309775864e-06 -2.516326253e-06 -2.730775654e-06 -2.944686677e-06 -3.170832913e-06)
5(-2.393195547e-06 -2.604505308e-06 -2.824733693e-06 -3.043040274e-06 -3.274890754e-06)
5(-2.47883816e-06 -2.694632597e-06 -2.920533357e-06 -3.143374863e-06 -3.380566347e-06)
5(-2.56490264e-06 -2.784847342e-06 -3.018264031e-06 -3.244796583e-06 -3.488801374e-06)
5(-2.653544002e-06 -2.879867968e-06 -3.118569255e-06 -3.349912507e-06 -3.599163194e-06)
5(-2.744259361e-06 -2.973853172e-06 -3.219853819e-06 -3.455603376e-06 -3.71273239e-06)
5(-2.83642207e-06 -3.071608909e-06 -3.325326594e-06 -3.567289595e-06 -3.828428466e-06)
5(-2.929751888e-06 -3.172043084e-06 -3.432074332e-06 -3.679187156e-06 -3.94802189e-06)
5(-3.025695149e-06 -3.273867634e-06 -3.541912403e-06 -3.796426248e-06 -4.071187341e-06)
5(-3.123556518e-06 -3.378932688e-06 -3.656100575e-06 -3.917240648e-06 -4.198967536e-06)
5(-3.222225899e-06 -3.488034575e-06 -3.772748044e-06 -4.042068928e-06 -4.3329881e-06)
5(-3.322106402e-06 -3.595988427e-06 -3.89363067e-06 -4.171701238e-06 -4.47152758e-06)
5(-3.423070744e-06 -3.70938676e-06 -4.019426674e-06 -4.307019707e-06 -4.61658566e-06)
5(-3.52673928e-06 -3.824967971e-06 -4.147760376e-06 -4.447914031e-06 -4.767228701e-06)
5(-3.626945048e-06 -3.942681987e-06 -4.281386431e-06 -4.594399663e-06 -4.923922237e-06)
5(-3.727737697e-06 -4.062455559e-06 -4.41996792e-06 -4.747904016e-06 -5.086421845e-06)
5(-3.825907035e-06 -4.184877719e-06 -4.564525994e-06 -4.907302225e-06 -5.258692589e-06)
5(-3.922124142e-06 -4.310105262e-06 -4.713389183e-06 -5.074475789e-06 -5.438834965e-06)
5(-4.016781012e-06 -4.436302349e-06 -4.864711785e-06 -5.247887651e-06 -5.627660926e-06)
5(-4.102991804e-06 -4.559409775e-06 -5.021992994e-06 -5.425041736e-06 -5.819519612e-06)
5(-4.186196836e-06 -4.684266082e-06 -5.176788016e-06 -5.608840732e-06 -6.011808465e-06)
5(-4.264035356e-06 -4.807282037e-06 -5.330461031e-06 -5.793448721e-06 -6.196284865e-06)
5(-4.338024617e-06 -4.929071529e-06 -5.481313385e-06 -5.973651252e-06 -6.365972099e-06)
5(-4.413554144e-06 -5.039760197e-06 -5.627312103e-06 -6.143579185e-06 -6.515910452e-06)
5(-4.487011666e-06 -5.139385405e-06 -5.765534455e-06 -6.291778781e-06 -6.641623596e-06)
5(-4.562988637e-06 -5.232164679e-06 -5.889793832e-06 -6.414099037e-06 -6.738891116e-06)
5(-4.634828709e-06 -5.320989015e-06 -5.995027549e-06 -6.512689344e-06 -6.805493635e-06)
5(-4.703977084e-06 -5.3925517e-06 -6.077641102e-06 -6.574151314e-06 -6.837173254e-06)
5(-4.770132888e-06 -5.457872075e-06 -6.129664771e-06 -6.601373792e-06 -6.835698612e-06)
5(-4.830344609e-06 -5.504994535e-06 -6.148693073e-06 -6.593696877e-06 -6.808322989e-06)
5(-4.883715069e-06 -5.532265975e-06 -6.141031653e-06 -6.552136784e-06 -6.7564576e-06)
5(-4.926761489e-06 -5.532288292e-06 -6.10443017e-06 -6.485953591e-06 -6.681926647e-06)
5(-4.957787709e-06 -5.514569823e-06 -6.040555573e-06 -6.391189038e-06 -6.585622887e-06)
5(-4.97303351e-06 -5.473781311e-06 -5.950836473e-06 -6.273039563e-06 -6.471866697e-06)
5(-4.971726868e-06 -5.412733385e-06 -5.84130562e-06 -6.134334276e-06 -6.336386023e-06)
5(-4.945194091e-06 -5.331061737e-06 -5.711683976e-06 -5.972284561e-06 -6.178558482e-06)
5(-4.87689172e-06 -5.213293596e-06 -5.554826736e-06 -5.787915079e-06 -5.995074869e-06)
5(-4.681513326e-06 -4.932907696e-06 -5.236341912e-06 -5.402671114e-06 -5.595311106e-06)
)


60
(
5(-4.806390403e-07 -5.613246233e-07 -6.507087443e-07 -7.724948672e-07 -8.200970076e-07)
5(-6.24360999e-07 -7.157246484e-07 -7.889069218e-07 -9.035073887e-07 -9.707587775e-07)
5(-7.331522096e-07 -8.33475171e-07 -9.108772289e-07 -1.02249742e-06 -1.105306682e-06)
5(-8.196451896e-07 -9.264539808e-07 -1.017719885e-06 -1.130396321e-06 -1.224493421e-06)
5(-9.007276771e-07 -1.012602665e-06 -1.113049576e-06 -1.230864386e-06 -1.333044715e-06)
5(-9.807359842e-07 -1.098454229e-06 -1.203071165e-06 -1.327948563e-06 -1.437194764e-06)
5(-1.058517868e-06 -1.181484525e-06 -1.292753569e-06 -1.423332749e-06 -1.539875702e-06)
5(-1.135141362e-06 -1.263717323e-06 -1.382066031e-06 -1.517527166e-06 -1.641502098e-06)
5(-1.211407813e-06 -1.344745557e-06 -1.469253013e-06 -1.609865304e-06 -1.741559841e-06)
5(-1.286763636e-06 -1.424734351e-06 -1.555833152e-06 -1.700887429e-06 -1.839584086e-06)
5(-1.361503362e-06 -1.504137979e-06 -1.640875079e-06 -1.791077095e-06 -1.93613568e-06)
5(-1.435835575e-06 -1.583118664e-06 -1.725937277e-06 -1.880766096e-06 -2.031576983e-06)
5(-1.510105175e-06 -1.661761099e-06 -1.810131e-06 -1.96928192e-06 -2.126058498e-06)
5(-1.584227426e-06 -1.740182451e-06 -1.894333399e-06 -2.057569777e-06 -2.220940276e-06)
5(-1.658433645e-06 -1.818907505e-06 -1.978217827e-06 -2.1460007e-06 -2.31444461e-06)
5(-1.732766354e-06 -1.897315888e-06 -2.061920354e-06 -2.234534019e-06 -2.40841725e-06)
5(-1.8074864e-06 -1.976250946e-06 -2.146082973e-06 -2.321760604e-06 -2.501849355e-06)
5(-1.882453138e-06 -2.055191221e-06 -2.230536901e-06 -2.411218896e-06 -2.595521953e-06)
5(-1.95799402e-06 -2.134614494e-06 -2.31526073e-06 -2.499095516e-06 -2.690003944e-06)
5(-2.034264993e-06 -2.21478198e-06 -2.401116202e-06 -2.589014816e-06 -2.784264526e-06)
5(-2.111239468e-06 -2.29576186e-06 -2.486576615e-06 -2.678344095e-06 -2.879828215e-06)
5(-2.188507316e-06 -2.376778552e-06 -2.574142106e-06 -2.769663183e-06 -2.975999034e-06)
5(-2.266957689e-06 -2.459556486e-06 -2.661361084e-06 -2.860770305e-06 -3.073278525e-06)
5(-2.346665302e-06 -2.542952097e-06 -2.751286029e-06 -2.953528753e-06 -3.171834066e-06)
5(-2.42694493e-06 -2.627555917e-06 -2.840810772e-06 -3.047839158e-06 -3.271343811e-06)
5(-2.508378252e-06 -2.712585568e-06 -2.932081938e-06 -3.143791203e-06 -3.372948839e-06)
5(-2.590772016e-06 -2.799715088e-06 -3.024666844e-06 -3.241196403e-06 -3.476713318e-06)
5(-2.674664543e-06 -2.887920568e-06 -3.119452261e-06 -3.339851788e-06 -3.581401534e-06)
5(-2.759296658e-06 -2.977229563e-06 -3.215759421e-06 -3.442088745e-06 -3.690952715e-06)
5(-2.84451302e-06 -3.068492132e-06 -3.313245714e-06 -3.545483525e-06 -3.801015202e-06)
5(-2.931148557e-06 -3.160251684e-06 -3.412467775e-06 -3.651722467e-06 -3.915628695e-06)
5(-3.017508571e-06 -3.253088176e-06 -3.516614701e-06 -3.761102348e-06 -4.032602137e-06)
5(-3.104065689e-06 -3.348661477e-06 -3.618653546e-06 -3.873072696e-06 -4.154343524e-06)
5(-3.191123699e-06 -3.443764284e-06 -3.725351703e-06 -3.989438769e-06 -4.279499909e-06)
5(-3.276347391e-06 -3.540303733e-06 -3.833209034e-06 -4.109274942e-06 -4.411862562e-06)
5(-3.361103273e-06 -3.636336418e-06 -3.94396685e-06 -4.231594201e-06 -4.547866522e-06)
5(-3.442284872e-06 -3.733907358e-06 -4.059290342e-06 -4.359471333e-06 -4.689665343e-06)
5(-3.520580726e-06 -3.83148482e-06 -4.174129471e-06 -4.492825372e-06 -4.838518148e-06)
5(-3.59466141e-06 -3.928740055e-06 -4.293186489e-06 -4.631885025e-06 -4.994226517e-06)
5(-3.664177163e-06 -4.024671204e-06 -4.414771144e-06 -4.775585876e-06 -5.161507404e-06)
5(-3.726766004e-06 -4.118551329e-06 -4.538397039e-06 -4.926268388e-06 -5.334103157e-06)
5(-3.785404135e-06 -4.210568375e-06 -4.665419742e-06 -5.083219138e-06 -5.517975468e-06)
5(-3.837115598e-06 -4.300831714e-06 -4.791685679e-06 -5.245435694e-06 -5.704464661e-06)
5(-3.887778697e-06 -4.391255343e-06 -4.918920469e-06 -5.414648694e-06 -5.890159479e-06)
5(-3.938596664e-06 -4.479250379e-06 -5.042744032e-06 -5.584555881e-06 -6.067942747e-06)
5(-3.994442009e-06 -4.567570221e-06 -5.170270445e-06 -5.749580431e-06 -6.236772623e-06)
5(-4.055205938e-06 -4.655348808e-06 -5.291427453e-06 -5.903548674e-06 -6.387707704e-06)
5(-4.125413064e-06 -4.738602622e-06 -5.406825536e-06 -6.036732924e-06 -6.515657231e-06)
5(-4.206660598e-06 -4.822621404e-06 -5.51696839e-06 -6.148917059e-06 -6.615716231e-06)
5(-4.281575998e-06 -4.906092467e-06 -5.604995288e-06 -6.236439275e-06 -6.684452346e-06)
5(-4.369507873e-06 -4.990284932e-06 -5.674951805e-06 -6.293232973e-06 -6.714462777e-06)
5(-4.454930218e-06 -5.060668344e-06 -5.72308572e-06 -6.316994809e-06 -6.718668275e-06)
5(-4.534995233e-06 -5.118977593e-06 -5.746387822e-06 -6.312698815e-06 -6.688141007e-06)
5(-4.601965227e-06 -5.157479643e-06 -5.750119979e-06 -6.275026079e-06 -6.628989281e-06)
5(-4.660694965e-06 -5.182011169e-06 -5.731554727e-06 -6.212747713e-06 -6.541549857e-06)
5(-4.700378945e-06 -5.18655967e-06 -5.692308655e-06 -6.124152562e-06 -6.425508086e-06)
5(-4.725570552e-06 -5.171816092e-06 -5.629059533e-06 -6.006669627e-06 -6.292727053e-06)
5(-4.72688984e-06 -5.135094649e-06 -5.544183567e-06 -5.871555941e-06 -6.136049263e-06)
5(-4.699248509e-06 -5.061038733e-06 -5.421430147e-06 -5.708732367e-06 -5.944935363e-06)
5(-4.579791864e-06 -4.910183288e-06 -5.102954592e-06 -5.349675665e-06 -5.539711372e-06)
)


60
(
5(-4.76554216e-07 -5.527098294e-07 -6.427417392e-07 -7.592313049e-07 -8.062309233e-07)
5(-6.198960732e-07 -7.063960648e-07 -7.791698227e-07 -8.883264441e-07 -9.536594758e-07)
5(-7.282044402e-07 -8.234581862e-07 -8.996300813e-07 -1.005290799e-06 -1.085112306e-06)
5(-8.141309879e-07 -9.15944121e-07 -1.005178325e-06 -1.11169542e-06 -1.201868052e-06)
5(-8.948069773e-07 -1.001427147e-06 -1.099449982e-06 -1.210602234e-06 -1.308519167e-06)
5(-9.743778024e-07 -1.086196252e-06 -1.188482529e-06 -1.306410124e-06 -1.410994606e-06)
5(-1.051700203e-06 -1.168691163e-06 -1.276835549e-06 -1.40013656e-06 -1.51189153e-06)
5(-1.127732755e-06 -1.249948907e-06 -1.364863327e-06 -1.492500145e-06 -1.61107541e-06)
5(-1.20324427e-06 -1.329891656e-06 -1.450591953e-06 -1.583243783e-06 -1.708871259e-06)
5(-1.277934755e-06 -1.409420198e-06 -1.535789224e-06 -1.672835603e-06 -1.804790164e-06)
5(-1.35188337e-06 -1.487284844e-06 -1.619201739e-06 -1.761059564e-06 -1.899017752e-06)
5(-1.425394906e-06 -1.565458049e-06 -1.702867336e-06 -1.848460681e-06 -1.992208319e-06)
5(-1.498713531e-06 -1.642760743e-06 -1.784987922e-06 -1.935469282e-06 -2.084600656e-06)
5(-1.572016531e-06 -1.720029267e-06 -1.867917539e-06 -2.021783179e-06 -2.176475907e-06)
5(-1.645109961e-06 -1.796972402e-06 -1.949513168e-06 -2.107890744e-06 -2.268113839e-06)
5(-1.718277906e-06 -1.874026714e-06 -2.032309092e-06 -2.193722681e-06 -2.359476199e-06)
5(-1.791517683e-06 -1.951047538e-06 -2.113703767e-06 -2.279037548e-06 -2.450148389e-06)
5(-1.865036085e-06 -2.028285304e-06 -2.195449696e-06 -2.366238901e-06 -2.541230595e-06)
5(-1.939080658e-06 -2.105805832e-06 -2.278362634e-06 -2.450783183e-06 -2.632153129e-06)
5(-2.013248734e-06 -2.183516474e-06 -2.360608709e-06 -2.537834363e-06 -2.723701903e-06)
5(-2.088021091e-06 -2.262230129e-06 -2.443847775e-06 -2.624470821e-06 -2.815285554e-06)
5(-2.163412785e-06 -2.340373756e-06 -2.527266861e-06 -2.711295947e-06 -2.907951605e-06)
5(-2.239290195e-06 -2.420141556e-06 -2.612053414e-06 -2.799731653e-06 -3.001160928e-06)
5(-2.316182304e-06 -2.500015362e-06 -2.696994282e-06 -2.888335134e-06 -3.095043132e-06)
5(-2.392788574e-06 -2.580244888e-06 -2.782364007e-06 -2.978012756e-06 -3.190330009e-06)
5(-2.471081177e-06 -2.662280946e-06 -2.869294116e-06 -3.06838973e-06 -3.286871103e-06)
5(-2.549600214e-06 -2.743999726e-06 -2.956727169e-06 -3.16014766e-06 -3.384202055e-06)
5(-2.62890902e-06 -2.827200499e-06 -3.045857936e-06 -3.253845729e-06 -3.483318587e-06)
5(-2.707180492e-06 -2.9114502e-06 -3.135045497e-06 -3.347834987e-06 -3.584816306e-06)
5(-2.787432867e-06 -2.995951745e-06 -3.2256454e-06 -3.444586974e-06 -3.68760492e-06)
5(-2.866254895e-06 -3.079908389e-06 -3.317151476e-06 -3.541721834e-06 -3.794052411e-06)
5(-2.94596102e-06 -3.165440348e-06 -3.410614469e-06 -3.641775391e-06 -3.901679608e-06)
5(-3.024056467e-06 -3.250200532e-06 -3.504742328e-06 -3.742539732e-06 -4.012786705e-06)