/*--------------------------------*- C++ -*----------------------------------*\
| =========                 |                                                 |
| \\      /  F ield         | OpenFOAM: The Open Source CFD Toolbox           |
|  \\    /   O peration     | Version:  2.3.1                                 |
|   \\  /    A nd           | Web:      www.OpenFOAM.org                      |
|    \\/     M anipulation  |                                                 |
\*---------------------------------------------------------------------------*/
FoamFile
{
    version     2.0;
    format      ascii;
    class       dictionary;
    location    "constant";
    object      DPSI44;
}
// * * * * * * * * * * * * * * * * * * * * * * * * * * * * * * * * * * * * * //

DPSI44_table
60
(

60
(
5(4.728144925e-06 5.467750806e-06 5.492155735e-06 5.167062692e-06 5.53649277e-06)
5(4.124608507e-06 5.478395598e-06 6.028978864e-06 5.37120018e-06 5.586149339e-06)
5(6.718684023e-06 6.954402192e-06 5.689521691e-06 4.496875514e-06 3.428582762e-06)
5(8.431550997e-06 8.476237245e-06 5.726536226e-06 6.170463317e-06 8.212457333e-06)
5(8.152371588e-06 8.23678511e-06 6.547827129e-06 6.31424959e-06 6.756376505e-06)
5(7.034454918e-06 7.011935222e-06 6.795714344e-06 6.936926236e-06 6.308412864e-06)
5(6.868384824e-06 7.190194222e-06 7.048142053e-06 7.601055606e-06 8.161414503e-06)
5(7.875804079e-06 8.24690892e-06 7.627758654e-06 7.017928421e-06 6.752882027e-06)
5(7.868332366e-06 8.268022546e-06 7.97509483e-06 7.789839952e-06 7.738349518e-06)
5(8.384179392e-06 8.85685721e-06 8.263559944e-06 8.011081681e-06 8.379850782e-06)
5(8.63240266e-06 9.129111125e-06 8.611861759e-06 8.361743171e-06 8.703066287e-06)
5(8.961885227e-06 9.325586943e-06 8.907688722e-06 8.704929964e-06 8.810763861e-06)
5(9.467441888e-06 9.69485955e-06 9.266925972e-06 9.114896963e-06 9.109509074e-06)
5(9.590192218e-06 9.901711939e-06 9.459970421e-06 9.312932259e-06 9.488440276e-06)
5(9.975738461e-06 1.024051433e-05 9.845362469e-06 9.65009931e-06 9.662534584e-06)
5(1.022181702e-05 1.052389759e-05 1.013175973e-05 9.907460044e-06 9.957923142e-06)
5(1.047830888e-05 1.079993565e-05 1.042554504e-05 1.02275499e-05 1.033355778e-05)
5(1.075026322e-05 1.107647721e-05 1.074015364e-05 1.051673311e-05 1.057365674e-05)
5(1.10526374e-05 1.136012856e-05 1.099055678e-05 1.077399455e-05 1.086827387e-05)
5(1.134292944e-05 1.162529811e-05 1.127564483e-05 1.098299527e-05 1.095193363e-05)
5(1.154186386e-05 1.184168108e-05 1.15451321e-05 1.126654681e-05 1.123035807e-05)
5(1.17659798e-05 1.210624842e-05 1.165146447e-05 1.136638169e-05 1.157134737e-05)
5(1.196520678e-05 1.229501136e-05 1.196782459e-05 1.171221774e-05 1.180706283e-05)
5(1.234762654e-05 1.256726652e-05 1.215070793e-05 1.191476836e-05 1.200407879e-05)
5(1.254948481e-05 1.280242569e-05 1.242412964e-05 1.215110452e-05 1.221226854e-05)
5(1.275865069e-05 1.308706724e-05 1.272537384e-05 1.229980373e-05 1.228119928e-05)
5(1.290897823e-05 1.323734179e-05 1.298554315e-05 1.256699273e-05 1.244731751e-05)
5(1.315865328e-05 1.350830945e-05 1.321037558e-05 1.271648008e-05 1.260260903e-05)
5(1.332549117e-05 1.363455245e-05 1.33530425e-05 1.294391972e-05 1.286841926e-05)
5(1.35907794e-05 1.381384921e-05 1.343415739e-05 1.309568284e-05 1.311261005e-05)
5(1.377891176e-05 1.401941945e-05 1.364435476e-05 1.322919613e-05 1.319054219e-05)
5(1.392251986e-05 1.414093235e-05 1.372484471e-05 1.321081344e-05 1.309688942e-05)
5(1.415247899e-05 1.434726395e-05 1.386436656e-05 1.352151579e-05 1.364609988e-05)
5(1.435168212e-05 1.454919154e-05 1.394738796e-05 1.334820625e-05 1.334061198e-05)
5(1.445068254e-05 1.465221208e-05 1.408200854e-05 1.348704332e-05 1.346635079e-05)
5(1.472482388e-05 1.493654389e-05 1.416094459e-05 1.343449525e-05 1.351549848e-05)
5(1.464481831e-05 1.480541689e-05 1.423130614e-05 1.378310721e-05 1.389694857e-05)
5(1.48978383e-05 1.491889952e-05 1.431402662e-05 1.327148311e-05 1.263856594e-05)
5(1.492346736e-05 1.505424091e-05 1.434891118e-05 1.382582711e-05 1.398548819e-05)
5(1.492178639e-05 1.518384819e-05 1.446249106e-05 1.150454677e-05 9.313749022e-06)
5(1.485902905e-05 1.509389815e-05 1.448997507e-05 1.192856789e-05 1.000334632e-05)
5(1.49727752e-05 1.512738333e-05 1.378432561e-05 1.217564948e-05 1.193250052e-05)
5(1.483254957e-05 1.504348889e-05 1.220765261e-05 1.257749375e-05 1.603386038e-05)
5(1.500103975e-05 1.55578927e-05 1.235691108e-05 1.254762079e-05 1.658561608e-05)
5(1.488418182e-05 1.536100849e-05 1.278715454e-05 1.302142823e-05 1.637404524e-05)
5(1.517776458e-05 1.517715676e-05 1.304464065e-05 1.372323634e-05 1.6548983e-05)
5(1.492721531e-05 1.332630221e-05 1.354851713e-05 1.611657298e-05 1.670561991e-05)
5(1.398147224e-05 1.297649837e-05 1.454698893e-05 1.70625438e-05 1.684491335e-05)
5(1.43063145e-05 1.32373945e-05 1.481471242e-05 1.729837953e-05 1.697318195e-05)
5(1.006765475e-05 1.362555684e-05 1.753868513e-05 1.74387801e-05 1.7056956e-05)
5(1.125381199e-05 1.432668648e-05 1.766884541e-05 1.752550871e-05 1.717225924e-05)
5(1.549871397e-05 1.657929371e-05 1.780259661e-05 1.76091641e-05 1.722495171e-05)
5(1.712645962e-05 1.749349982e-05 1.792984589e-05 1.770547452e-05 1.731507512e-05)
5(1.759680866e-05 1.775409341e-05 1.802777577e-05 1.77663539e-05 1.728718471e-05)
5(1.759086876e-05 1.778834895e-05 1.807397195e-05 1.779030665e-05 1.732569323e-05)
5(1.742899518e-05 1.773704437e-05 1.812078336e-05 1.776920857e-05 1.727037283e-05)
5(1.671034556e-05 1.741214252e-05 1.808824577e-05 1.74553116e-05 1.680913738e-05)
5(1.651649002e-05 1.709626865e-05 1.758212655e-05 1.726892465e-05 1.70198331e-05)
5(1.675341424e-05 1.71618553e-05 1.555776688e-05 1.60657122e-05 1.870381306e-05)
5(1.815695938e-05 1.813553107e-05 1.850615336e-05 1.692293982e-05 1.480592128e-05)
)


60
(
5(5.265822609e-06 5.613462448e-06 5.430815109e-06 5.278893862e-06 5.376489567e-06)
5(5.744322626e-06 6.056904201e-06 5.73101992e-06 5.649885335e-06 5.623090993e-06)
5(6.213562402e-06 6.483443763e-06 6.098122994e-06 6.036842416e-06 5.915450234e-06)
5(6.645665482e-06 6.908882531e-06 6.520355341e-06 6.449126461e-06 6.327828192e-06)
5(7.047735733e-06 7.32929286e-06 6.959981822e-06 6.874126442e-06 6.816102651e-06)
5(7.415132798e-06 7.72192463e-06 7.376950127e-06 7.28159761e-06 7.29790142e-06)
5(7.78221645e-06 8.090631316e-06 7.765948742e-06 7.667920734e-06 7.700293516e-06)
5(8.140991126e-06 8.45337985e-06 8.134497707e-06 8.02291573e-06 8.060856192e-06)
5(8.483708269e-06 8.799676668e-06 8.484968687e-06 8.365157655e-06 8.412596335e-06)
5(8.812344499e-06 9.132744499e-06 8.827186614e-06 8.695605277e-06 8.746895993e-06)
5(9.145283464e-06 9.463200895e-06 9.158001328e-06 9.02230863e-06 9.087969972e-06)
5(9.449506635e-06 9.779522278e-06 9.481353283e-06 9.336711877e-06 9.424874006e-06)
5(9.753903593e-06 1.008763821e-05 9.791117001e-06 9.637576169e-06 9.739962905e-06)
5(1.004871394e-05 1.038628519e-05 1.009658586e-05 9.932194093e-06 1.003800769e-05)
5(1.033382931e-05 1.067588534e-05 1.038962693e-05 1.021701291e-05 1.033277451e-05)
5(1.061317183e-05 1.095923347e-05 1.067302838e-05 1.049023557e-05 1.061627448e-05)
5(1.088986228e-05 1.123911995e-05 1.095153082e-05 1.07550645e-05 1.088697674e-05)
5(1.115914115e-05 1.150978599e-05 1.121900667e-05 1.101309307e-05 1.115460426e-05)
5(1.141544203e-05 1.177237371e-05 1.148290846e-05 1.126382438e-05 1.141106818e-05)
5(1.167064196e-05 1.20291194e-05 1.173822057e-05 1.151014573e-05 1.16639006e-05)
5(1.192000696e-05 1.228093118e-05 1.198451947e-05 1.174302658e-05 1.190345709e-05)
5(1.216729906e-05 1.25259423e-05 1.222675095e-05 1.197221702e-05 1.213035611e-05)
5(1.240415497e-05 1.276498717e-05 1.246168052e-05 1.219453331e-05 1.235776097e-05)
5(1.263325325e-05 1.299688073e-05 1.268443237e-05 1.240457957e-05 1.257889462e-05)
5(1.285937299e-05 1.322155637e-05 1.290550978e-05 1.261249589e-05 1.278551966e-05)
5(1.307799693e-05 1.344495567e-05 1.311915529e-05 1.280484033e-05 1.298156183e-05)
5(1.328565962e-05 1.36571996e-05 1.332823342e-05 1.299388871e-05 1.316788712e-05)
5(1.349857682e-05 1.386306646e-05 1.352315359e-05 1.317357276e-05 1.334417342e-05)
5(1.370340072e-05 1.40642445e-05 1.370931197e-05 1.334731573e-05 1.352605351e-05)
5(1.389364075e-05 1.425454369e-05 1.389190537e-05 1.350870136e-05 1.36825231e-05)
5(1.407893373e-05 1.443894234e-05 1.406428248e-05 1.366495032e-05 1.384265673e-05)
5(1.425661613e-05 1.46112026e-05 1.422839005e-05 1.381399514e-05 1.398688238e-05)
5(1.442622966e-05 1.477978977e-05 1.438245671e-05 1.394892182e-05 1.412453376e-05)
5(1.458536761e-05 1.493573174e-05 1.452782337e-05 1.407817094e-05 1.425263453e-05)
5(1.473887579e-05 1.508513677e-05 1.466321494e-05 1.419885469e-05 1.437609434e-05)
5(1.487651546e-05 1.5220734e-05 1.479089038e-05 1.430913116e-05 1.448223136e-05)
5(1.500928537e-05 1.535101668e-05 1.490438457e-05 1.441117338e-05 1.459543513e-05)
5(1.51290066e-05 1.546520721e-05 1.500967178e-05 1.450815279e-05 1.469496024e-05)
5(1.522691274e-05 1.556876799e-05 1.511544176e-05 1.459780404e-05 1.477959269e-05)
5(1.533134332e-05 1.566463331e-05 1.519987894e-05 1.467971417e-05 1.486751727e-05)
5(1.540239973e-05 1.574027094e-05 1.528679179e-05 1.475937533e-05 1.493816856e-05)
5(1.549642247e-05 1.582044725e-05 1.535096457e-05 1.482309071e-05 1.500836494e-05)
5(1.555159676e-05 1.587787615e-05 1.541520567e-05 1.48851136e-05 1.507091777e-05)
5(1.558435958e-05 1.592943397e-05 1.548583377e-05 1.494573764e-05 1.513167526e-05)
5(1.563996149e-05 1.59738813e-05 1.553679832e-05 1.500986907e-05 1.519960105e-05)
5(1.568819831e-05 1.60209903e-05 1.558961579e-05 1.507429824e-05 1.527663688e-05)
5(1.573288974e-05 1.60667589e-05 1.564439613e-05 1.514486262e-05 1.536039397e-05)
5(1.576825451e-05 1.611491723e-05 1.570903056e-05 1.522219049e-05 1.545100695e-05)
5(1.582011552e-05 1.616205437e-05 1.5771788e-05 1.53187978e-05 1.556410982e-05)
5(1.589369315e-05 1.622221862e-05 1.584930273e-05 1.543184423e-05 1.568440555e-05)
5(1.596667894e-05 1.628690595e-05 1.594072983e-05 1.556329647e-05 1.582531373e-05)
5(1.605966555e-05 1.636679072e-05 1.605160136e-05 1.571987184e-05 1.598754738e-05)
5(1.61638992e-05 1.64639827e-05 1.617939247e-05 1.587720004e-05 1.61397382e-05)
5(1.628167414e-05 1.658259106e-05 1.633271518e-05 1.606121643e-05 1.632341549e-05)
5(1.64577894e-05 1.67305067e-05 1.649566286e-05 1.624194513e-05 1.647943176e-05)
5(1.665353363e-05 1.689866485e-05 1.667045224e-05 1.641978048e-05 1.662677177e-05)
5(1.688160905e-05 1.709388854e-05 1.684862048e-05 1.657346658e-05 1.67390526e-05)
5(1.714312445e-05 1.729754907e-05 1.701325067e-05 1.670151697e-05 1.681008044e-05)
5(1.744845148e-05 1.752725116e-05 1.716044842e-05 1.677229806e-05 1.68103283e-05)
5(1.833034587e-05 1.658325895e-05 1.659245375e-05 1.849610244e-05 1.85157589e-05)
)


60
(
5(5.388429434e-06 5.605496277e-06 5.405630612e-06 5.289426571e-06 5.318852442e-06)
5(5.836636602e-06 6.086030518e-06 5.784425794e-06 5.709283953e-06 5.686761965e-06)
5(6.263957512e-06 6.53194044e-06 6.199553603e-06 6.128527356e-06 6.082004305e-06)
5(6.678623477e-06 6.95733007e-06 6.630794554e-06 6.549748335e-06 6.515485548e-06)
5(7.076549929e-06 7.365907058e-06 7.05961739e-06 6.966589678e-06 6.971270384e-06)
5(7.461411392e-06 7.756610447e-06 7.466814572e-06 7.364409105e-06 7.405116702e-06)
5(7.827601584e-06 8.129772166e-06 7.852942851e-06 7.741503523e-06 7.800171607e-06)
5(8.180858601e-06 8.489734767e-06 8.217585609e-06 8.098805734e-06 8.170545019e-06)
5(8.518913745e-06 8.836312771e-06 8.568557953e-06 8.440408446e-06 8.521965222e-06)
5(8.847765393e-06 9.171207619e-06 8.908245841e-06 8.775896871e-06 8.87220788e-06)
5(9.168424191e-06 9.49911399e-06 9.238931576e-06 9.095966768e-06 9.205214314e-06)
5(9.476851536e-06 9.814709718e-06 9.55877123e-06 9.406444422e-06 9.528345841e-06)
5(9.777249246e-06 1.012020138e-05 9.867103714e-06 9.706012777e-06 9.838366291e-06)
5(1.007050586e-05 1.041740606e-05 1.016576182e-05 9.996404864e-06 1.013758712e-05)
5(1.035315926e-05 1.070706073e-05 1.045585302e-05 1.027560139e-05 1.042685509e-05)
5(1.063232382e-05 1.098880713e-05 1.073700415e-05 1.054779998e-05 1.070583193e-05)
5(1.089727052e-05 1.126233553e-05 1.101266397e-05 1.081034237e-05 1.097491895e-05)
5(1.116023658e-05 1.152814903e-05 1.127859158e-05 1.106513084e-05 1.123247402e-05)
5(1.141784477e-05 1.179028704e-05 1.153592926e-05 1.131017067e-05 1.148592848e-05)
5(1.16669666e-05 1.204287058e-05 1.178752751e-05 1.155074502e-05 1.173006703e-05)
5(1.19158453e-05 1.229299679e-05 1.203078576e-05 1.178316636e-05 1.196952657e-05)
5(1.215283751e-05 1.253111431e-05 1.226539494e-05 1.200751613e-05 1.219762586e-05)
5(1.238719868e-05 1.276838491e-05 1.249737316e-05 1.222300217e-05 1.241381968e-05)
5(1.261417549e-05 1.299743696e-05 1.271979461e-05 1.243219688e-05 1.262764004e-05)
5(1.283673255e-05 1.322148271e-05 1.293588889e-05 1.263395041e-05 1.283315862e-05)
5(1.305092716e-05 1.343625019e-05 1.314494853e-05 1.28273609e-05 1.302489338e-05)
5(1.32564133e-05 1.364403615e-05 1.334733328e-05 1.301698363e-05 1.321763284e-05)
5(1.346840339e-05 1.385141244e-05 1.354176347e-05 1.319352486e-05 1.339119624e-05)
5(1.365859707e-05 1.404418929e-05 1.372747065e-05 1.336709568e-05 1.357044073e-05)
5(1.38494673e-05 1.423505003e-05 1.390965393e-05 1.352846018e-05 1.372652847e-05)
5(1.403617071e-05 1.441713723e-05 1.407806718e-05 1.368465856e-05 1.388644471e-05)
5(1.421044077e-05 1.45893044e-05 1.424145776e-05 1.38346001e-05 1.403620479e-05)
5(1.437319042e-05 1.475672399e-05 1.440010355e-05 1.39731789e-05 1.417515011e-05)
5(1.453966054e-05 1.491491626e-05 1.454446668e-05 1.410576954e-05 1.430731312e-05)
5(1.469006317e-05 1.506140655e-05 1.468411009e-05 1.42351583e-05 1.443520892e-05)
5(1.484239924e-05 1.520890936e-05 1.481352907e-05 1.435171674e-05 1.455822637e-05)
5(1.497231499e-05 1.533840905e-05 1.493559052e-05 1.446180224e-05 1.4669784e-05)
5(1.509439838e-05 1.54575704e-05 1.504863678e-05 1.456676326e-05 1.47759827e-05)
5(1.52088627e-05 1.55676108e-05 1.515335027e-05 1.466640763e-05 1.487650198e-05)
5(1.530684593e-05 1.56658401e-05 1.525131933e-05 1.47669589e-05 1.498510974e-05)
5(1.540294863e-05 1.576018514e-05 1.533832168e-05 1.486628016e-05 1.510700332e-05)
5(1.548133638e-05 1.583556046e-05 1.542004043e-05 1.496849144e-05 1.522447354e-05)
5(1.555069276e-05 1.590214328e-05 1.549958389e-05 1.506884512e-05 1.533536964e-05)
5(1.561153687e-05 1.595692253e-05 1.557960356e-05 1.516503545e-05 1.542216742e-05)
5(1.565588422e-05 1.600370651e-05 1.566714572e-05 1.526178345e-05 1.54961152e-05)
5(1.570163434e-05 1.605691935e-05 1.574762762e-05 1.534436901e-05 1.556626335e-05)
5(1.574711618e-05 1.611833068e-05 1.582815063e-05 1.54218501e-05 1.56412907e-05)
5(1.579649537e-05 1.618766342e-05 1.590969831e-05 1.54978194e-05 1.572247651e-05)
5(1.586142073e-05 1.626669368e-05 1.599076997e-05 1.557376528e-05 1.580901464e-05)
5(1.597312931e-05 1.635881261e-05 1.605967553e-05 1.56490049e-05 1.589657119e-05)
5(1.610310015e-05 1.64573982e-05 1.613112835e-05 1.572933498e-05 1.598270334e-05)
5(1.624180671e-05 1.655890692e-05 1.620481534e-05 1.581517906e-05 1.607176212e-05)
5(1.637259656e-05 1.666018557e-05 1.628381146e-05 1.590425597e-05 1.616574272e-05)
5(1.650107598e-05 1.675842126e-05 1.636627767e-05 1.599413765e-05 1.624943768e-05)
5(1.661379599e-05 1.685466779e-05 1.646107002e-05 1.609040797e-05 1.633367816e-05)
5(1.673845463e-05 1.695928051e-05 1.655893084e-05 1.618051077e-05 1.640393682e-05)
5(1.688508949e-05 1.707268747e-05 1.666138305e-05 1.626714547e-05 1.645219853e-05)
5(1.706152741e-05 1.720913236e-05 1.676840936e-05 1.63375722e-05 1.647683348e-05)
5(1.734888354e-05 1.742293706e-05 1.691997308e-05 1.642135803e-05 1.64773861e-05)
5(1.807630059e-05 1.63547148e-05 1.599718187e-05 1.815557956e-05 1.885570321e-05)
)


60
(
5(5.427106612e-06 5.562318339e-06 5.365553586e-06 5.267834367e-06 5.276782213e-06)
5(5.855346803e-06 6.065925018e-06 5.791191659e-06 5.713653184e-06 5.710371172e-06)
5(6.265088112e-06 6.522301423e-06 6.229587758e-06 6.148529381e-06 6.148958925e-06)
5(6.668358291e-06 6.945686284e-06 6.664288465e-06 6.575629443e-06 6.595907995e-06)
5(7.067258826e-06 7.349707208e-06 7.086634445e-06 6.988420515e-06 7.033211673e-06)
5(7.454271161e-06 7.738679115e-06 7.489862175e-06 7.381262907e-06 7.447143321e-06)
5(7.822655523e-06 8.112049485e-06 7.870617018e-06 7.754674321e-06 7.837768149e-06)
5(8.170605164e-06 8.470854517e-06 8.234268091e-06 8.111823203e-06 8.210311069e-06)
5(8.504920382e-06 8.818068709e-06 8.585489139e-06 8.454079226e-06 8.56512609e-06)
5(8.831731467e-06 9.153169572e-06 8.923549671e-06 8.78537264e-06 8.908970482e-06)
5(9.146070529e-06 9.476674967e-06 9.250952417e-06 9.10360178e-06 9.239117804e-06)
5(9.454520129e-06 9.790534627e-06 9.566309195e-06 9.411945739e-06 9.559552694e-06)
5(9.752553596e-06 1.009480274e-05 9.873173777e-06 9.709847343e-06 9.865760992e-06)
5(1.004030864e-05 1.038940086e-05 1.017009467e-05 9.99615037e-06 1.015789836e-05)
5(1.031802729e-05 1.067576056e-05 1.045733705e-05 1.027451357e-05 1.044733252e-05)
5(1.059196879e-05 1.095531813e-05 1.073511874e-05 1.054224138e-05 1.072325467e-05)
5(1.085994774e-05 1.122778302e-05 1.100652995e-05 1.080246481e-05 1.098761718e-05)
5(1.111599966e-05 1.148966561e-05 1.126838653e-05 1.105547895e-05 1.124759497e-05)
5(1.137231031e-05 1.174905375e-05 1.15228656e-05 1.129777323e-05 1.149428405e-05)
5(1.161707041e-05 1.19976592e-05 1.176923252e-05 1.153611566e-05 1.173930141e-05)
5(1.185553944e-05 1.224351599e-05 1.201280936e-05 1.17639478e-05 1.196928332e-05)
5(1.209632984e-05 1.248279235e-05 1.224294768e-05 1.198394887e-05 1.21940036e-05)
5(1.232525499e-05 1.2715513e-05 1.24722e-05 1.2197945e-05 1.240723423e-05)
5(1.254453731e-05 1.293685558e-05 1.269294414e-05 1.24068984e-05 1.261398178e-05)
5(1.275998727e-05 1.315840266e-05 1.290691988e-05 1.260651899e-05 1.28207002e-05)
5(1.297556543e-05 1.3372161e-05 1.311102789e-05 1.279783346e-05 1.301334552e-05)
5(1.318166548e-05 1.357899631e-05 1.330996247e-05 1.298217712e-05 1.319793221e-05)
5(1.338271768e-05 1.377949499e-05 1.350161298e-05 1.316131706e-05 1.3378962e-05)
5(1.357691235e-05 1.397320666e-05 1.368449058e-05 1.332917087e-05 1.35481346e-05)
5(1.376438259e-05 1.416025437e-05 1.386368006e-05 1.34941305e-05 1.371219331e-05)
5(1.394528985e-05 1.434047138e-05 1.403315655e-05 1.364759817e-05 1.386528281e-05)
5(1.411886398e-05 1.450913841e-05 1.419509624e-05 1.380086279e-05 1.401699371e-05)
5(1.428477526e-05 1.467754671e-05 1.434921915e-05 1.393762122e-05 1.415889151e-05)
5(1.444433465e-05 1.483434702e-05 1.449664963e-05 1.407383164e-05 1.429563676e-05)
5(1.459471586e-05 1.498233514e-05 1.463575917e-05 1.420008221e-05 1.442036077e-05)
5(1.4738828e-05 1.512304788e-05 1.476651887e-05 1.432270636e-05 1.454596376e-05)
5(1.487282723e-05 1.525205142e-05 1.488931472e-05 1.44375504e-05 1.465883927e-05)
5(1.49979154e-05 1.537542061e-05 1.500210285e-05 1.453871239e-05 1.476178182e-05)
5(1.511385058e-05 1.54873343e-05 1.510624868e-05 1.464196669e-05 1.487231436e-05)
5(1.521858541e-05 1.558956723e-05 1.520197168e-05 1.474266032e-05 1.498598915e-05)
5(1.531285151e-05 1.56808315e-05 1.528916577e-05 1.485162108e-05 1.512096441e-05)
5(1.53994048e-05 1.576150779e-05 1.536972693e-05 1.496221966e-05 1.525895954e-05)
5(1.547443085e-05 1.582877155e-05 1.545037349e-05 1.507055351e-05 1.537709349e-05)
5(1.554248489e-05 1.588661118e-05 1.553324758e-05 1.517398315e-05 1.546951309e-05)
5(1.560337244e-05 1.594005717e-05 1.561749174e-05 1.526947716e-05 1.554147018e-05)
5(1.565906249e-05 1.599579644e-05 1.570154622e-05 1.535941254e-05 1.561209517e-05)
5(1.571418464e-05 1.606824823e-05 1.578808338e-05 1.543588508e-05 1.568521663e-05)
5(1.577979997e-05 1.615029218e-05 1.587315502e-05 1.550798882e-05 1.576036888e-05)
5(1.58827325e-05 1.625478142e-05 1.595657697e-05 1.557761035e-05 1.58414056e-05)
5(1.601379587e-05 1.636810348e-05 1.603654477e-05 1.564454237e-05 1.59130314e-05)
5(1.618395516e-05 1.649825917e-05 1.611508559e-05 1.571205928e-05 1.598153175e-05)
5(1.637301118e-05 1.663827684e-05 1.619779779e-05 1.578129055e-05 1.604402589e-05)
5(1.655379736e-05 1.677499861e-05 1.628058365e-05 1.584631641e-05 1.609938108e-05)
5(1.671610242e-05 1.690491704e-05 1.636654325e-05 1.590856833e-05 1.614898506e-05)
5(1.685593589e-05 1.70237162e-05 1.645486286e-05 1.597033998e-05 1.619367906e-05)
5(1.699171123e-05 1.713836342e-05 1.654081293e-05 1.602617773e-05 1.622737101e-05)
5(1.711197857e-05 1.725024989e-05 1.663888633e-05 1.607891998e-05 1.624222258e-05)
5(1.725977131e-05 1.737776104e-05 1.674320411e-05 1.613743772e-05 1.625937244e-05)
5(1.749330844e-05 1.75514766e-05 1.689565507e-05 1.624274758e-05 1.627346527e-05)
5(1.570953137e-05 1.616319267e-05 1.744533627e-05 1.74502945e-05 1.657529412e-05)
)


60
(
5(5.431556882e-06 5.507379189e-06 5.317714113e-06 5.232967808e-06 5.239791883e-06)
5(5.848154728e-06 6.028700455e-06 5.775695303e-06 5.695257558e-06 5.713994335e-06)
5(6.246281241e-06 6.490507838e-06 6.228701329e-06 6.139876374e-06 6.175464311e-06)
5(6.641380139e-06 6.910947561e-06 6.664470741e-06 6.569535677e-06 6.626778135e-06)
5(7.038342144e-06 7.311375583e-06 7.082101116e-06 6.979688839e-06 7.055610879e-06)
5(7.42640164e-06 7.698457175e-06 7.480090146e-06 7.368325214e-06 7.458536884e-06)
5(7.792556414e-06 8.070447264e-06 7.858281819e-06 7.738921447e-06 7.843579148e-06)
5(8.136961548e-06 8.427707644e-06 8.220893363e-06 8.095297306e-06 8.213973388e-06)
5(8.467883896e-06 8.772926464e-06 8.568578581e-06 8.436162129e-06 8.570435588e-06)
5(8.787971815e-06 9.105942667e-06 8.905810913e-06 8.764754925e-06 8.911118112e-06)
5(9.101644566e-06 9.427741413e-06 9.229073716e-06 9.08051571e-06 9.238735714e-06)
5(9.405080669e-06 9.73881368e-06 9.543680192e-06 9.386378302e-06 9.552315652e-06)
5(9.698488441e-06 1.004062136e-05 9.846746298e-06 9.680235443e-06 9.855870991e-06)
5(9.987393919e-06 1.033394799e-05 1.01397704e-05 9.966145222e-06 1.014871994e-05)
5(1.026151377e-05 1.061746959e-05 1.0423858e-05 1.024019972e-05 1.043131483e-05)
5(1.053125773e-05 1.089164274e-05 1.069868344e-05 1.050744971e-05 1.070303234e-05)
5(1.079317436e-05 1.11614823e-05 1.096679239e-05 1.076394603e-05 1.096647297e-05)
5(1.10490967e-05 1.142305772e-05 1.122390285e-05 1.101248484e-05 1.122499889e-05)
5(1.129917356e-05 1.167658598e-05 1.147693819e-05 1.125477208e-05 1.146712116e-05)
5(1.154130999e-05 1.192437981e-05 1.172117844e-05 1.148819635e-05 1.170601654e-05)
5(1.177811161e-05 1.216631613e-05 1.195876029e-05 1.17143704e-05 1.193698629e-05)
5(1.200951646e-05 1.240054432e-05 1.218930044e-05 1.193276565e-05 1.215586061e-05)
5(1.223475433e-05 1.2629344e-05 1.24133036e-05 1.214553862e-05 1.237200698e-05)
5(1.245518166e-05 1.285267711e-05 1.263064335e-05 1.234954772e-05 1.257754866e-05)
5(1.266979693e-05 1.306946792e-05 1.284106437e-05 1.254753988e-05 1.277742359e-05)
5(1.287300171e-05 1.327888273e-05 1.304711349e-05 1.273804995e-05 1.296758374e-05)
5(1.30813696e-05 1.348225826e-05 1.323956173e-05 1.29223705e-05 1.315457322e-05)
5(1.327831439e-05 1.368050503e-05 1.342918216e-05 1.309896573e-05 1.333315454e-05)
5(1.346882937e-05 1.387214688e-05 1.361227007e-05 1.326709499e-05 1.350093053e-05)
5(1.365465217e-05 1.405729182e-05 1.378791518e-05 1.34283884e-05 1.366133608e-05)
5(1.383357226e-05 1.423425615e-05 1.395549291e-05 1.358343693e-05 1.381573325e-05)
5(1.400489636e-05 1.440394155e-05 1.411514385e-05 1.372882463e-05 1.395951415e-05)
5(1.417061906e-05 1.456673748e-05 1.426726864e-05 1.38718908e-05 1.410560357e-05)
5(1.432570947e-05 1.472198974e-05 1.44133923e-05 1.400531495e-05 1.424016099e-05)
5(1.44765703e-05 1.48701689e-05 1.455094581e-05 1.413255039e-05 1.436874586e-05)
5(1.461983857e-05 1.501072587e-05 1.468019299e-05 1.425179077e-05 1.449031293e-05)
5(1.475321868e-05 1.514046628e-05 1.480051401e-05 1.436338352e-05 1.460303199e-05)
5(1.488005028e-05 1.526187789e-05 1.491172953e-05 1.44660679e-05 1.47051953e-05)
5(1.499882375e-05 1.53742505e-05 1.501314493e-05 1.456525073e-05 1.480962723e-05)
5(1.510760109e-05 1.547768359e-05 1.510654566e-05 1.466586997e-05 1.492481981e-05)
5(1.520767577e-05 1.557228146e-05 1.519086788e-05 1.477009911e-05 1.505588448e-05)
5(1.529972776e-05 1.565741104e-05 1.527023597e-05 1.487572674e-05 1.518896918e-05)
5(1.538788421e-05 1.573225852e-05 1.53492591e-05 1.498159334e-05 1.530611051e-05)
5(1.547450289e-05 1.580095405e-05 1.542983212e-05 1.507890742e-05 1.539223062e-05)
5(1.555816734e-05 1.58669788e-05 1.551314486e-05 1.516865549e-05 1.545530121e-05)
5(1.56358238e-05 1.593939958e-05 1.559643062e-05 1.52455004e-05 1.551186527e-05)
5(1.571515405e-05 1.602679381e-05 1.568297189e-05 1.531398658e-05 1.557387775e-05)
5(1.58016601e-05 1.612682412e-05 1.576988823e-05 1.537843688e-05 1.564552569e-05)
5(1.591663192e-05 1.62445435e-05 1.586235446e-05 1.544358653e-05 1.57137657e-05)
5(1.607180048e-05 1.638113441e-05 1.595357009e-05 1.550982831e-05 1.578381085e-05)
5(1.62605079e-05 1.653188548e-05 1.604932554e-05 1.558160854e-05 1.58487198e-05)
5(1.645850761e-05 1.669336827e-05 1.615634497e-05 1.565650959e-05 1.590912485e-05)
5(1.665705473e-05 1.686156391e-05 1.627076402e-05 1.573065661e-05 1.596598686e-05)
5(1.684592925e-05 1.703085775e-05 1.639448492e-05 1.580427491e-05 1.601466014e-05)
5(1.702398771e-05 1.719322168e-05 1.651781983e-05 1.587440389e-05 1.605319545e-05)
5(1.718778195e-05 1.734810894e-05 1.663876927e-05 1.593763801e-05 1.608327378e-05)
5(1.734215083e-05 1.749522693e-05 1.675897357e-05 1.599808338e-05 1.610250646e-05)
5(1.749356154e-05 1.762152261e-05 1.688096822e-05 1.608436946e-05 1.613052306e-05)
5(1.765334146e-05 1.774448594e-05 1.704496866e-05 1.623874448e-05 1.619293906e-05)
5(1.643109815e-05 1.595504921e-05 1.680577528e-05 1.703247916e-05 1.580193833e-05)
)


60
(
5(5.419768334e-06 5.449310722e-06 5.265667149e-06 5.192962179e-06 5.207231833e-06)
5(5.828355261e-06 5.984948592e-06 5.749322935e-06 5.666945024e-06 5.707009479e-06)
5(6.216526239e-06 6.449427434e-06 6.212823029e-06 6.11815612e-06 6.182780918e-06)
5(6.606419006e-06 6.86679948e-06 6.647751085e-06 6.548395883e-06 6.63430775e-06)
5(7.001970112e-06 7.264032941e-06 7.060906737e-06 6.955898578e-06 7.056036631e-06)
5(7.388249839e-06 7.649311825e-06 7.455022054e-06 7.340648839e-06 7.4518559e-06)
5(7.751045988e-06 8.01793276e-06 7.830144662e-06 7.709180389e-06 7.831760941e-06)
5(8.092863417e-06 8.373871628e-06 8.189759902e-06 8.062885193e-06 8.200644623e-06)
5(8.418544201e-06 8.716117185e-06 8.53587567e-06 8.402502157e-06 8.554991347e-06)
5(8.737553921e-06 9.047733271e-06 8.86878498e-06 8.727939155e-06 8.89418099e-06)
5(9.045572121e-06 9.366158415e-06 9.190805149e-06 9.041741846e-06 9.217093704e-06)
5(9.346611145e-06 9.674851832e-06 9.500903406e-06 9.344122336e-06 9.528463574e-06)
5(9.637819104e-06 9.973445224e-06 9.801091315e-06 9.636321744e-06 9.827735163e-06)
5(9.91909406e-06 1.026305121e-05 1.009147961e-05 9.918579657e-06 1.011792085e-05)
5(1.019322351e-05 1.054457298e-05 1.037219889e-05 1.019074171e-05 1.039727562e-05)
5(1.045835762e-05 1.08173313e-05 1.064520782e-05 1.045476935e-05 1.066708422e-05)
5(1.071855519e-05 1.108293927e-05 1.09080165e-05 1.070869342e-05 1.092727158e-05)
5(1.097016893e-05 1.134071485e-05 1.116525508e-05 1.095621403e-05 1.117817713e-05)
5(1.121557336e-05 1.159192491e-05 1.141273456e-05 1.119406494e-05 1.14223017e-05)
5(1.145585389e-05 1.183641738e-05 1.165386021e-05 1.142582279e-05 1.165786353e-05)
5(1.168875736e-05 1.207452236e-05 1.188876798e-05 1.165031165e-05 1.188580317e-05)
5(1.191624643e-05 1.230677956e-05 1.211554801e-05 1.186571428e-05 1.210551707e-05)
5(1.213963909e-05 1.253237269e-05 1.233740912e-05 1.207662598e-05 1.23162648e-05)
5(1.235558714e-05 1.275213139e-05 1.255255001e-05 1.227934002e-05 1.251989073e-05)
5(1.256630185e-05 1.296586026e-05 1.275936779e-05 1.247411624e-05 1.271753066e-05)
5(1.277372114e-05 1.317278378e-05 1.295959382e-05 1.266413153e-05 1.29077756e-05)
5(1.297325368e-05 1.337432656e-05 1.315424901e-05 1.284623597e-05 1.309033605e-05)
5(1.316707526e-05 1.356959008e-05 1.334059749e-05 1.302024736e-05 1.326679526e-05)
5(1.335482258e-05 1.375816968e-05 1.352034302e-05 1.318720365e-05 1.34348541e-05)
5(1.353938471e-05 1.394002289e-05 1.369350074e-05 1.334856899e-05 1.359396042e-05)
5(1.371438614e-05 1.411535968e-05 1.385984098e-05 1.350122561e-05 1.374596956e-05)
5(1.388312992e-05 1.428427975e-05 1.401868956e-05 1.364642351e-05 1.389178565e-05)
5(1.404671516e-05 1.444582923e-05 1.416874878e-05 1.378522639e-05 1.403196588e-05)
5(1.420250653e-05 1.459847288e-05 1.431160887e-05 1.391810023e-05 1.416481339e-05)
5(1.435144144e-05 1.474411465e-05 1.444736672e-05 1.404384615e-05 1.429005513e-05)
5(1.449246658e-05 1.488279002e-05 1.457421939e-05 1.416105371e-05 1.441002606e-05)
5(1.462795345e-05 1.501445601e-05 1.469285948e-05 1.426881245e-05 1.451927787e-05)
5(1.475608877e-05 1.513660948e-05 1.480266245e-05 1.436844405e-05 1.461739525e-05)
5(1.487823435e-05 1.525135185e-05 1.49039833e-05 1.446347932e-05 1.471413568e-05)
5(1.499184689e-05 1.535873368e-05 1.499530109e-05 1.455948059e-05 1.482694212e-05)
5(1.51015452e-05 1.545956438e-05 1.507937125e-05 1.465975876e-05 1.495228983e-05)
5(1.520878595e-05 1.555471822e-05 1.515979205e-05 1.476073655e-05 1.507789558e-05)
5(1.531470104e-05 1.564338638e-05 1.523976106e-05 1.485799233e-05 1.518480475e-05)
5(1.542220827e-05 1.572851827e-05 1.532408475e-05 1.494683532e-05 1.525713246e-05)
5(1.552949538e-05 1.581341595e-05 1.541186619e-05 1.502615913e-05 1.530312458e-05)
5(1.563411563e-05 1.590666022e-05 1.550080491e-05 1.509425426e-05 1.53444111e-05)
5(1.573796563e-05 1.601569165e-05 1.559443864e-05 1.515260322e-05 1.538951482e-05)
5(1.584001072e-05 1.613148815e-05 1.569183261e-05 1.521123696e-05 1.544390372e-05)
5(1.59619898e-05 1.626557736e-05 1.579318808e-05 1.526810498e-05 1.550507898e-05)
5(1.611791229e-05 1.640848683e-05 1.589792987e-05 1.533858119e-05 1.556884074e-05)
5(1.629438359e-05 1.655801791e-05 1.600829245e-05 1.542135266e-05 1.563662139e-05)
5(1.647934244e-05 1.671714555e-05 1.613489028e-05 1.551740095e-05 1.570950613e-05)
5(1.664830577e-05 1.687789431e-05 1.627975175e-05 1.562398852e-05 1.578626124e-05)