/*--------------------------------*- C++ -*----------------------------------*\
| =========                 |                                                 |
| \\      /  F ield         | OpenFOAM: The Open Source CFD Toolbox           |
|  \\    /   O peration     | Version:  2.3.1                                 |
|   \\  /    A nd           | Web:      www.OpenFOAM.org                      |
|    \\/     M anipulation  |                                                 |
\*---------------------------------------------------------------------------*/
FoamFile
{
    version     2.0;
    format      ascii;
    class       dictionary;
    location    "constant";
    object      DPSI12;
}
// * * * * * * * * * * * * * * * * * * * * * * * * * * * * * * * * * * * * * //

DPSI12_table
60
(

60
(
5(1.274557925e-10 7.632407341e-11 1.465709159e-10 7.645194606e-11 1.660899107e-10)
5(1.30730749e-10 2.709714354e-11 1.053667696e-10 6.204948827e-11 1.311028818e-10)
5(6.82450574e-11 -1.725991842e-11 2.902551306e-11 3.633861354e-11 2.653549584e-11)
5(-2.22500262e-12 -9.741623695e-13 -3.241003271e-12 7.080387263e-13 -1.446795581e-11)
5(-5.687598159e-11 7.88595208e-12 1.899167338e-11 -1.602354923e-11 8.727105065e-12)
5(-4.197175497e-11 7.428451445e-12 1.629980351e-11 5.299398039e-12 -1.018821978e-11)
5(3.340131903e-11 3.413340195e-12 -1.487701455e-11 4.172579104e-12 5.220445256e-12)
5(-2.932433978e-11 -1.436796317e-12 -5.494671756e-12 -3.88196111e-12 1.365332839e-11)
5(-7.065652472e-11 -4.267974687e-12 -7.501981356e-13 1.558977235e-12 -6.826838124e-12)
5(-2.754336657e-11 -2.814562054e-12 -6.013486697e-12 1.566883401e-12 -1.582108604e-12)
5(3.261235437e-11 3.711511113e-13 5.519356846e-12 -1.009778094e-12 1.244130599e-12)
5(8.067273946e-11 -3.169068617e-13 6.068608386e-12 -2.72616128e-12 1.80241004e-13)
5(3.119019439e-11 -2.059856311e-12 1.148051162e-13 7.486354911e-13 -2.20678585e-13)
5(-1.955345288e-12 5.205105836e-13 6.666163499e-13 1.438141264e-12 1.927261972e-12)
5(-2.200984737e-12 -1.186084586e-12 -3.917798054e-13 -2.701541209e-12 -2.384768043e-15)
5(-8.332873922e-12 -3.080091192e-12 -3.031714899e-12 -1.086684474e-12 -1.801277439e-12)
5(1.317766041e-12 -4.368643948e-13 -8.067373656e-13 -2.05979642e-12 -2.123967055e-12)
5(3.801326891e-12 -1.289636646e-12 -1.022697793e-12 -2.064516838e-12 -1.440579985e-12)
5(-2.529963197e-12 -4.974055114e-12 -4.125827256e-12 -4.150430188e-12 -9.572781838e-13)
5(-5.678488933e-12 -4.354185739e-12 -2.777018381e-12 -4.505467866e-12 -6.794776137e-13)
5(-4.844628641e-12 -2.859367465e-12 -3.33097209e-12 3.127817951e-12 1.062789433e-12)
5(-1.024342185e-11 -8.044755677e-12 -6.533116863e-12 -2.578367135e-12 -2.879772153e-12)
5(-1.110685681e-11 -1.428706922e-11 -7.558181097e-12 -1.024975874e-11 -6.414664645e-12)
5(-1.378525103e-11 -1.921808968e-11 -1.268208191e-11 -1.13269225e-11 -6.813161314e-12)
5(-2.001215972e-11 -2.440175029e-11 -2.06847731e-11 -1.868447867e-11 -9.885765738e-12)
5(-2.454638023e-11 -2.580796794e-11 -2.177533871e-11 -2.352904114e-11 -1.243211906e-11)
5(-3.120995395e-11 -2.625627889e-11 -2.839426142e-11 -2.820852417e-11 -1.697188679e-11)
5(-4.626571843e-11 -4.311422272e-11 -3.981002432e-11 -3.38538368e-11 -2.351850852e-11)
5(-6.331897603e-11 -6.784604695e-11 -4.916152279e-11 -3.849180034e-11 -2.955911505e-11)
5(-8.234237197e-11 -9.007835842e-11 -7.453719398e-11 -5.985607376e-11 -3.943806359e-11)
5(-1.081079506e-10 -1.10339957e-10 -9.18069174e-11 -7.102613308e-11 -3.287724604e-11)
5(-1.351665879e-10 -1.418012264e-10 -1.166153972e-10 -8.335003062e-11 -6.053170113e-11)
5(-1.764809864e-10 -1.875730093e-10 -1.638451147e-10 -1.073114819e-10 -5.64770869e-11)
5(-2.268535044e-10 -2.219670134e-10 -1.866035731e-10 -1.193824637e-10 -2.908839162e-11)
5(-2.749007407e-10 -2.730080172e-10 -2.409599039e-10 -1.339951333e-10 -5.160611644e-11)
5(-3.214034065e-10 -2.778018102e-10 -1.907037384e-10 -8.984183358e-11 -4.375610691e-11)
5(-3.587435989e-10 -2.910739742e-10 -1.346385704e-10 -6.451125358e-11 9.466277042e-11)
5(-3.83390907e-10 -2.946435471e-10 -1.831671964e-10 -1.563591812e-11 4.674122721e-11)
5(-3.953551076e-10 -2.225771131e-10 -1.565143923e-10 6.024164971e-11 1.63895314e-10)
5(-3.265479596e-10 -8.533032081e-11 5.416387424e-11 1.355292994e-10 2.322384206e-10)
5(-1.645882154e-10 8.529998723e-11 2.631779116e-10 2.66325616e-10 1.725160272e-12)
5(9.28113935e-12 2.729697542e-10 3.666598047e-10 4.208397649e-10 2.627415766e-12)
5(1.926770157e-10 3.842229929e-10 2.321338283e-10 2.609971171e-10 -8.170593732e-12)
5(3.922383155e-10 4.665542809e-10 2.601596872e-10 -3.329583067e-27 -7.496727561e-13)
5(6.035031415e-10 5.195921028e-10 4.72956244e-10 -8.713900979e-27 8.367369624e-12)
5(7.143198127e-10 4.778648792e-10 3.093063203e-10 -1.392928078e-12 7.674828814e-13)
5(5.871531374e-10 4.382533076e-10 1.216160189e-10 9.848740567e-17 -1.766819314e-25)
5(5.375046063e-10 2.282868731e-10 3.592508923e-11 1.423912008e-12 -4.07371486e-25)
5(4.554892078e-10 5.876589734e-11 6.9755235e-12 -2.632586079e-25 -9.016660263e-25)
5(2.143635525e-10 2.607211506e-11 6.850818901e-13 -5.768349275e-25 -1.94418534e-24)
5(1.02291789e-10 4.647300656e-13 -2.987169127e-25 -1.224892203e-24 -4.068764883e-24)
5(4.444920387e-11 -1.618696098e-25 -6.307201026e-25 -2.529550948e-24 -8.298700648e-24)
5(8.923821697e-12 -3.342323332e-25 -1.303559193e-24 -5.07950959e-24 -1.659141474e-23)
5(1.006006756e-13 -6.757491477e-25 -2.625137367e-24 -9.996622214e-24 -3.218300698e-23)
5(-7.972792356e-25 -1.341875943e-24 -5.174560057e-24 -1.905402465e-23 -6.062377205e-23)
5(-2.714298715e-24 -2.638366095e-24 -1.003956921e-23 -3.539735275e-23 -1.081951191e-22)
5(-4.086120636e-24 -8.250745805e-24 -1.935246093e-23 -6.367680838e-23 -1.867481271e-22)
5(-3.995742445e-24 -1.672259794e-23 -4.801053095e-23 -7.038776059e-23 -3.055779469e-22)
5(-4.205743203e-24 -2.654315964e-23 -1.100550198e-22 -4.320309533e-22 -1.053466004e-21)
5(-4.571736881e-24 -3.289942195e-23 -1.50722323e-22 -8.174872156e-22 -1.751799087e-21)
)


60
(
5(1.508837301e-10 -1.10339492e-11 2.079607623e-10 9.126506849e-11 2.441582571e-10)
5(1.119381073e-10 -1.204070997e-11 1.479404138e-10 6.630391768e-11 1.731856491e-10)
5(3.450314833e-11 -1.535670457e-11 4.012894194e-11 1.717342063e-11 5.053934379e-11)
5(-2.143648954e-11 -2.229564129e-11 -2.031982349e-11 -1.359676137e-11 -1.3572351e-11)
5(-5.252022815e-11 -2.727032436e-11 -4.501074664e-11 -2.832322425e-11 -4.262418538e-11)
5(-4.989580899e-11 -2.456005063e-11 -3.73213792e-11 -2.35121333e-11 -3.647605647e-11)
5(-3.17974269e-11 -1.975034808e-11 -1.763830854e-11 -1.124471082e-11 -1.398948628e-11)
5(-1.949939154e-11 -1.930745571e-11 -5.63424476e-12 -7.707110615e-12 -1.771687095e-12)
5(-1.577192299e-11 -1.978539912e-11 -7.141133622e-12 -9.366446837e-12 -4.46180372e-12)
5(-2.461434376e-11 -1.973692523e-11 -1.45995116e-11 -1.243702061e-11 -1.10762343e-11)
5(-3.048880675e-11 -2.167908425e-11 -1.972404051e-11 -1.538067242e-11 -1.345539594e-11)
5(-2.894791953e-11 -2.308796709e-11 -2.108228877e-11 -1.641629142e-11 -1.460191722e-11)
5(-3.146049476e-11 -2.353307701e-11 -2.098393168e-11 -1.502844944e-11 -1.315578982e-11)
5(-3.108339992e-11 -2.48957182e-11 -2.053598571e-11 -1.433653881e-11 -1.120816793e-11)
5(-2.98066157e-11 -2.476281275e-11 -1.994457387e-11 -1.516622687e-11 -1.168969578e-11)
5(-3.243203778e-11 -2.423100552e-11 -1.94274084e-11 -1.513083815e-11 -1.238557576e-11)
5(-3.590704667e-11 -2.494740933e-11 -2.030295124e-11 -1.594487967e-11 -1.303686686e-11)
5(-3.4594477e-11 -2.693405498e-11 -2.168642124e-11 -1.750958351e-11 -1.354951851e-11)
5(-3.502845025e-11 -2.825539864e-11 -2.262582805e-11 -1.863103101e-11 -1.338835715e-11)
5(-3.624320761e-11 -2.815868028e-11 -2.325457511e-11 -2.000575157e-11 -1.557896284e-11)
5(-3.786675614e-11 -2.830123011e-11 -2.443506042e-11 -2.055946589e-11 -1.883645563e-11)
5(-3.910731295e-11 -2.991901755e-11 -2.638489321e-11 -2.223805631e-11 -2.074714842e-11)
5(-3.491845313e-11 -3.231365622e-11 -2.869186531e-11 -2.790932261e-11 -2.623694133e-11)
5(-3.571519494e-11 -3.544701661e-11 -3.338135437e-11 -3.539735218e-11 -3.479426712e-11)
5(-3.903270302e-11 -4.03262129e-11 -3.9341486e-11 -4.489707699e-11 -4.587807447e-11)
5(-4.026475523e-11 -4.727230479e-11 -4.880528242e-11 -5.86259429e-11 -6.185885351e-11)
5(-4.806139034e-11 -5.673070732e-11 -6.472563671e-11 -7.757162425e-11 -8.33870088e-11)
5(-5.754344286e-11 -7.02883007e-11 -8.474960717e-11 -1.02687217e-10 -1.095161654e-10)
5(-6.835338498e-11 -9.223337062e-11 -1.109705779e-10 -1.346539046e-10 -1.435491695e-10)
5(-8.636207142e-11 -1.220821393e-10 -1.462576074e-10 -1.750190051e-10 -1.852994653e-10)
5(-1.130509951e-10 -1.593483352e-10 -1.913929902e-10 -2.242090242e-10 -2.327446799e-10)
5(-1.475486809e-10 -2.060763409e-10 -2.454941838e-10 -2.804375184e-10 -2.856915034e-10)
5(-1.910495096e-10 -2.62515737e-10 -3.075927469e-10 -3.410340886e-10 -3.366776115e-10)
5(-2.450151996e-10 -3.262776617e-10 -3.750130679e-10 -4.001864619e-10 -3.807631586e-10)
5(-3.061996531e-10 -3.93333243e-10 -4.408532257e-10 -4.50205366e-10 -4.105119348e-10)
5(-3.732755335e-10 -4.568582564e-10 -4.954236058e-10 -4.795219116e-10 -4.139044347e-10)
5(-4.375293492e-10 -5.060456423e-10 -5.251085377e-10 -4.729577639e-10 -3.770073266e-10)
5(-4.848886728e-10 -5.257803557e-10 -5.128480667e-10 -4.16324041e-10 -2.771390161e-10)
5(-5.058870324e-10 -5.006755068e-10 -4.4192351e-10 -2.947872355e-10 -9.885606597e-11)
5(-4.791665855e-10 -4.119861787e-10 -2.971437502e-10 -1.023941709e-10 1.47831905e-10)
5(-3.864940954e-10 -2.51335624e-10 -8.146977117e-11 1.5525896e-10 4.218512159e-10)
5(-2.197018481e-10 -1.764621609e-11 1.930982924e-10 4.545947472e-10 6.669048028e-10)
5(2.085271159e-11 2.787834651e-10 5.008580564e-10 7.420402646e-10 8.327117659e-10)
5(3.20974041e-10 5.908155908e-10 7.951520384e-10 9.525802025e-10 8.897829863e-10)
5(6.417618139e-10 8.700567891e-10 1.021073588e-09 1.034842022e-09 8.319513855e-10)
5(9.240743497e-10 1.067476456e-09 1.125739598e-09 9.701446304e-10 6.768369833e-10)
5(1.115709413e-09 1.138973681e-09 1.07797838e-09 7.907306403e-10 4.727960122e-10)
5(1.17006478e-09 1.069934892e-09 8.93486472e-10 5.6002209e-10 2.791672917e-10)
5(1.077701394e-09 8.80983828e-10 6.359092193e-10 3.400152553e-10 1.381707657e-10)
5(8.669194999e-10 6.265449412e-10 3.850177182e-10 1.731735021e-10 5.765291186e-11)
5(6.00718654e-10 3.755562804e-10 1.953696976e-10 7.287657247e-11 2.053668498e-11)
5(3.471063415e-10 1.85287135e-10 8.022013523e-11 2.575915583e-11 6.174018771e-12)
5(1.607815371e-10 7.369624495e-11 2.693950934e-11 7.578597498e-12 1.583720874e-12)
5(6.022452456e-11 2.302530289e-11 7.366729879e-12 1.837105625e-12 3.426165335e-13)
5(1.596337004e-11 5.293698498e-12 1.500966943e-12 3.600207588e-13 6.465165092e-14)
5(2.965424442e-12 9.355597243e-13 2.325396678e-13 5.480233812e-14 9.614800327e-15)
5(3.288115373e-13 9.495238504e-14 2.60423551e-14 6.01970863e-15 1.124957494e-15)
5(2.210956176e-14 7.26596521e-15 1.463802247e-15 4.33306009e-16 7.452602183e-17)
5(6.695334021e-16 2.178657041e-16 -3.62620809e-14 1.301714966e-17 2.284654059e-18)
5(5.753628717e-18 2.119762019e-18 -7.27457376e-14 -4.116558787e-18 2.676464324e-20)
)


60
(
5(1.187847973e-10 -1.061212602e-10 2.740491125e-10 1.152072282e-10 3.522263411e-10)
5(8.455885442e-11 -9.94018406e-11 1.904325488e-10 7.794451048e-11 2.50192413e-10)
5(-1.172298282e-12 -8.08939826e-11 2.815405347e-11 1.377852466e-12 5.988289262e-11)
5(-8.388183297e-11 -7.978028726e-11 -7.233436567e-11 -5.156123471e-11 -4.742927295e-11)
5(-1.415941177e-10 -8.92275482e-11 -1.155699333e-10 -7.678427571e-11 -9.773420624e-11)
5(-1.458954117e-10 -8.912825998e-11 -1.030738132e-10 -6.957106183e-11 -8.897731677e-11)
5(-1.102689215e-10 -8.018574576e-11 -6.677266708e-11 -5.008306665e-11 -4.803230271e-11)
5(-8.087627078e-11 -7.465482818e-11 -4.481711679e-11 -4.108442642e-11 -2.758997665e-11)
5(-8.091725162e-11 -7.61549153e-11 -4.767631359e-11 -4.322352681e-11 -2.605759855e-11)
5(-1.016986838e-10 -8.190499445e-11 -6.121195121e-11 -5.045527574e-11 -3.664758687e-11)
5(-1.14849531e-10 -8.744458831e-11 -7.153269586e-11 -5.579081419e-11 -4.896550757e-11)
5(-1.124781063e-10 -8.734876107e-11 -7.621395496e-11 -5.660190137e-11 -4.863455787e-11)
5(-1.11192078e-10 -8.516118907e-11 -7.404078719e-11 -5.413625403e-11 -4.279033144e-11)
5(-1.132155466e-10 -8.752456319e-11 -7.037216513e-11 -5.242448536e-11 -3.849776286e-11)
5(-1.198601623e-10 -9.024301304e-11 -7.004294196e-11 -5.115950054e-11 -3.76501409e-11)
5(-1.17624933e-10 -9.194601074e-11 -7.012077061e-11 -4.790959574e-11 -3.513969741e-11)
5(-1.121988893e-10 -9.070498698e-11 -6.877119674e-11 -4.514596413e-11 -3.530428501e-11)
5(-1.190469423e-10 -8.585782723e-11 -6.50463668e-11 -4.484481879e-11 -3.462947521e-11)
5(-1.152958243e-10 -8.1900622e-11 -6.042629815e-11 -4.309223034e-11 -2.74846326e-11)
5(-1.194096576e-10 -7.690741915e-11 -5.658009537e-11 -3.903153992e-11 -1.994501788e-11)
5(-1.042707618e-10 -6.813691873e-11 -5.031087653e-11 -3.305643793e-11 -1.882693716e-11)
5(-8.841008446e-11 -5.921417259e-11 -4.066658789e-11 -2.439905124e-11 -1.866258716e-11)
5(-8.426983017e-11 -5.116234742e-11 -3.029459295e-11 -1.883782318e-11 -1.468011397e-11)
5(-7.218901666e-11 -4.235470538e-11 -2.386038182e-11 -1.905743738e-11 -1.612615833e-11)
5(-5.335112599e-11 -3.224099493e-11 -1.994965756e-11 -2.039266439e-11 -2.578400723e-11)
5(-2.972480041e-11 -2.244932846e-11 -1.772403573e-11 -2.576803506e-11 -3.587224989e-11)
5(-2.697579113e-11 -1.044944269e-11 -1.601922842e-11 -3.600773367e-11 -5.416280385e-11)
5(3.474335267e-13 -3.823280093e-12 -2.014990923e-11 -5.408417247e-11 -8.233330516e-11)
5(2.331936307e-11 -6.400461343e-12 -3.214389467e-11 -8.214939624e-11 -1.207575026e-10)
5(2.740633208e-11 -1.062670359e-11 -5.529338404e-11 -1.216053595e-10 -1.717816896e-10)
5(3.460810444e-11 -2.928813244e-11 -9.520493428e-11 -1.758592515e-10 -2.307874404e-10)
5(2.994067985e-11 -6.632655964e-11 -1.470035815e-10 -2.406867757e-10 -3.024092035e-10)
5(1.51082684e-11 -1.100614536e-10 -2.095836849e-10 -3.141957058e-10 -3.751956182e-10)
5(-1.699087661e-11 -1.657968863e-10 -2.854813619e-10 -3.927272859e-10 -4.437747461e-10)
5(-7.393195873e-11 -2.370243054e-10 -3.667655409e-10 -4.66489321e-10 -4.993506417e-10)
5(-1.245518009e-10 -3.12721365e-10 -4.42032946e-10 -5.221338063e-10 -5.297507863e-10)
5(-1.797999207e-10 -3.80692046e-10 -4.992654553e-10 -5.440857072e-10 -5.136156912e-10)
5(-2.509087485e-10 -4.276134324e-10 -5.186006373e-10 -5.137932527e-10 -4.244694755e-10)
5(-2.973545768e-10 -4.387178982e-10 -4.794303536e-10 -4.124013133e-10 -2.449095773e-10)
5(-3.166103654e-10 -3.93133442e-10 -3.639709979e-10 -2.259573914e-10 2.38923389e-11)
5(-2.716249802e-10 -2.698995328e-10 -1.619481507e-10 4.826399342e-11 3.532762102e-10)
5(-1.568227643e-10 -6.025910863e-11 1.240094672e-10 3.935530956e-10 6.929911093e-10)
5(3.615008851e-11 2.263372849e-10 4.699758264e-10 7.655895828e-10 9.951803229e-10)
5(3.081012097e-10 5.654234737e-10 8.374156698e-10 1.096384614e-09 1.207344134e-09)
5(6.269348886e-10 9.129432405e-10 1.168572416e-09 1.318355122e-09 1.290066347e-09)
5(9.543974275e-10 1.202410589e-09 1.39359456e-09 1.38914152e-09 1.224075635e-09)
5(1.222045089e-09 1.381332424e-09 1.455145082e-09 1.295617762e-09 1.025025096e-09)
5(1.373898123e-09 1.410898119e-09 1.338644424e-09 1.066781981e-09 7.530494312e-10)
5(1.374242966e-09 1.274926306e-09 1.081077703e-09 7.731567006e-10 4.779031905e-10)
5(1.216052205e-09 1.012716916e-09 7.586268019e-10 4.839917265e-10 2.59802654e-10)
5(9.440391992e-10 6.964108644e-10 4.573584965e-10 2.569675278e-10 1.186837667e-10)
5(6.287470833e-10 4.031170598e-10 2.299532679e-10 1.148335527e-10 4.497270502e-11)
5(3.444559176e-10 1.90398374e-10 9.3727129e-11 4.143178774e-11 1.446425417e-11)
5(1.480280698e-10 7.111985584e-11 3.018812732e-11 1.204519153e-11 3.774959324e-12)
5(4.665568796e-11 1.976396363e-11 7.183021835e-12 2.637851442e-12 7.759704009e-13)
5(1.049276131e-11 3.918779935e-12 1.268815305e-12 4.552905142e-13 1.312986301e-13)
5(1.403626308e-12 5.161415966e-13 1.430124497e-13 5.46460721e-14 1.499193494e-14)
5(1.095655239e-13 3.925033217e-14 1.030844302e-14 9.013619823e-15 1.040121241e-15)
5(2.632033514e-15 7.318842078e-16 -7.913552001e-14 1.225699385e-16 3.984020023e-17)
5(3.830421013e-17 -1.455222139e-14 -1.588849089e-13 -1.069377488e-14 3.74469596e-19)
)


60
(
5(-5.699445906e-12 -3.01488347e-10 3.014116767e-10 1.111289768e-10 4.571854659e-10)
5(-3.144396103e-11 -2.787709145e-10 1.924287115e-10 5.845237277e-11 3.192324452e-10)
5(-1.003191851e-10 -2.1262158e-10 -2.738834208e-11 -4.98021026e-11 5.273433718e-11)
5(-2.051165416e-10 -1.906914158e-10 -1.778816239e-10 -1.289438282e-10 -1.174365103e-10)
5(-3.003156314e-10 -2.053214823e-10 -2.429813958e-10 -1.665622293e-10 -2.029856036e-10)
5(-3.057146047e-10 -2.042867871e-10 -2.188009605e-10 -1.574659895e-10 -1.842133507e-10)
5(-2.451676066e-10 -1.898177395e-10 -1.603327239e-10 -1.28824819e-10 -1.144721469e-10)
5(-2.099088855e-10 -1.869706706e-10 -1.258081166e-10 -1.111321112e-10 -7.752244529e-11)
5(-2.179416813e-10 -1.890613655e-10 -1.305363302e-10 -1.128008435e-10 -7.98048099e-11)
5(-2.353012259e-10 -1.968774468e-10 -1.564432947e-10 -1.27627918e-10 -1.022680418e-10)
5(-2.577069841e-10 -2.056638688e-10 -1.771377941e-10 -1.389047906e-10 -1.167298059e-10)
5(-2.758082202e-10 -2.102000564e-10 -1.841899036e-10 -1.3738528e-10 -1.107635984e-10)
5(-2.685302872e-10 -2.136947293e-10 -1.780796777e-10 -1.297928683e-10 -1.089243806e-10)
5(-2.559255359e-10 -2.160684416e-10 -1.683603168e-10 -1.270277251e-10 -9.486711901e-11)
5(-2.633102982e-10 -2.137563464e-10 -1.62971052e-10 -1.241370794e-10 -8.329368678e-11)
5(-2.827608892e-10 -2.090147875e-10 -1.622427351e-10 -1.150399368e-10 -8.300482717e-11)
5(-2.719732467e-10 -2.064819988e-10 -1.612864896e-10 -1.0781498e-10 -7.258825385e-11)
5(-2.69683857e-10 -1.977177124e-10 -1.519255971e-10 -1.018699518e-10 -6.793664338e-11)
5(-2.65621732e-10 -1.869280525e-10 -1.374610108e-10 -8.949445196e-11 -5.129574762e-11)
5(-2.406221416e-10 -1.745329511e-10 -1.163319222e-10 -6.952877787e-11 -2.882518539e-11)
5(-2.386970091e-10 -1.471593057e-10 -9.193777379e-11 -4.668533293e-11 -2.305272137e-11)
5(-2.167011668e-10 -1.187554305e-10 -7.07797436e-11 -1.997168885e-11 -7.34313421e-12)
5(-1.537311402e-10 -9.399720134e-11 -4.556111609e-11 6.832915491e-12 1.593756598e-11)
5(-1.061688778e-10 -5.809966875e-11 -7.606457323e-12 2.531603066e-11 4.486348776e-11)
5(-8.066971217e-11 -1.028670426e-11 3.506937943e-11 4.248185649e-11 5.562216941e-11)
5(-2.733892818e-11 3.846251539e-11 6.87359744e-11 6.148779641e-11 4.391345007e-11)
5(3.082349182e-11 8.466711231e-11 9.83375938e-11 7.553442081e-11 5.390376193e-11)
5(1.031913836e-10 1.319391793e-10 1.271034055e-10 8.010143856e-11 3.304378322e-11)
5(1.833491493e-10 1.734990872e-10 1.502914199e-10 7.730829586e-11 9.418872623e-12)
5(2.429582187e-10 2.071809618e-10 1.549422049e-10 5.649071093e-11 -2.782534176e-11)
5(3.043529605e-10 2.288009175e-10 1.402168407e-10 1.271413449e-11 -9.490073283e-11)
5(3.667042497e-10 2.355102558e-10 1.156203026e-10 -4.50549053e-11 -1.676108559e-10)
5(3.994828044e-10 2.26536064e-10 7.323205478e-11 -1.197553219e-10 -2.570179534e-10)
5(4.20968771e-10 1.929983617e-10 3.782005871e-12 -2.074195507e-10 -3.49060435e-10)
5(4.220833039e-10 1.406561017e-10 -8.452172738e-11 -2.964574769e-10 -4.349330888e-10)
5(3.82170794e-10 6.918511464e-11 -1.786500452e-10 -3.807340849e-10 -4.94961653e-10)
5(3.339538769e-10 -1.487081679e-11 -2.630067378e-10 -4.423717006e-10 -5.224052034e-10)
5(2.600343277e-10 -9.051418737e-11 -3.201153003e-10 -4.561537046e-10 -4.711070024e-10)
5(1.81049406e-10 -1.47176081e-10 -3.292252312e-10 -4.004800105e-10 -3.200166698e-10)
5(1.30905553e-10 -1.58277395e-10 -2.699596996e-10 -2.561010848e-10 -6.280095505e-11)
5(8.939707814e-11 -1.021062908e-10 -1.225373401e-10 -6.450732026e-12 2.740433658e-10)
5(1.043691666e-10 3.315216441e-11 1.234598784e-10 3.400444137e-10 6.5884523e-10)
5(2.055717149e-10 2.578207389e-10 4.561105786e-10 7.465687296e-10 1.048611791e-09)
5(3.813502087e-10 5.635308296e-10 8.463533287e-10 1.151920226e-09 1.380848246e-09)
5(6.339023262e-10 9.154149146e-10 1.239925713e-09 1.484086762e-09 1.606420145e-09)
5(9.340200511e-10 1.255563702e-09 1.561494915e-09 1.678317846e-09 1.664001852e-09)
5(1.2294089e-09 1.520950539e-09 1.731682194e-09 1.698322542e-09 1.542818168e-09)
5(1.460849919e-09 1.655808622e-09 1.712633683e-09 1.541808774e-09 1.273320838e-09)
5(1.573584723e-09 1.6181959e-09 1.514462783e-09 1.244821752e-09 9.245516221e-10)
5(1.522530959e-09 1.409289727e-09 1.174577679e-09 8.794132179e-10 5.867159415e-10)
5(1.320943383e-09 1.082111579e-09 7.872065327e-10 5.368853575e-10 3.18114281e-10)
5(1.015310117e-09 7.112730507e-10 4.517356919e-10 2.788743997e-10 1.444959917e-10)
5(6.637500906e-10 3.873374301e-10 2.15301716e-10 1.179196747e-10 5.367309796e-11)
5(3.494207474e-10 1.704141596e-10 8.104618401e-11 4.044222418e-11 1.635921605e-11)
5(1.430993783e-10 5.689565034e-11 2.260713127e-11 1.062818276e-11 3.895374088e-12)
5(4.360927205e-11 1.33479669e-11 4.398502646e-12 1.9953896e-12 6.922874512e-13)
5(7.886651652e-12 1.944366678e-12 5.819000623e-13 2.511788291e-13 9.236435041e-14)
5(6.328442143e-13 1.445834127e-13 3.91275104e-14 -2.29773928e-14 6.294955964e-15)
5(4.550809286e-14 -1.659515119e-12 1.399150981e-15 -2.687716399e-14 2.247137463e-16)
5(1.206093489e-15 -3.254861519e-12 -9.65016885e-16 2.992829966e-14 3.833354183e-18)
)


60
(
5(-2.50875677e-10 -6.163942108e-10 2.6570031e-10 5.689056604e-11 5.342233389e-10)
5(-2.569732364e-10 -5.698490738e-10 1.286868508e-10 -1.237830909e-11 3.571630609e-10)
5(-2.826523201e-10 -4.28926248e-10 -1.495483531e-10 -1.523478515e-10 5.360974553e-12)
5(-3.970439567e-10 -3.692561581e-10 -3.489623859e-10 -2.601137915e-10 -2.349264484e-10)
5(-5.28930475e-10 -3.836471448e-10 -4.329172953e-10 -3.120411085e-10 -3.6086409e-10)
5(-5.437478753e-10 -3.856633519e-10 -3.965456261e-10 -2.976693912e-10 -3.35117597e-10)
5(-4.621675978e-10 -3.676959432e-10 -3.146527397e-10 -2.535682081e-10 -2.266250558e-10)
5(-4.045841294e-10 -3.621819927e-10 -2.648885907e-10 -2.297701029e-10 -1.667970895e-10)
5(-4.170420438e-10 -3.713625435e-10 -2.705758102e-10 -2.355745896e-10 -1.757199466e-10)
5(-4.50049263e-10 -3.839730265e-10 -3.075772401e-10 -2.547075667e-10 -2.080719056e-10)
5(-4.836105891e-10 -3.961948221e-10 -3.379918462e-10 -2.664885517e-10 -2.260608995e-10)
5(-5.030315231e-10 -4.073714355e-10 -3.477273054e-10 -2.666680018e-10 -2.241503387e-10)
5(-5.239429917e-10 -4.057539825e-10 -3.424091257e-10 -2.603712387e-10 -2.053709682e-10)
5(-5.072104363e-10 -4.035067332e-10 -3.345707384e-10 -2.517002013e-10 -1.900942535e-10)
5(-4.772343488e-10 -4.032518799e-10 -3.304806097e-10 -2.418189662e-10 -1.850639898e-10)
5(-5.102979089e-10 -4.023855147e-10 -3.183921487e-10 -2.315101987e-10 -1.62791234e-10)
5(-5.184720873e-10 -3.940245317e-10 -2.97887426e-10 -2.198275822e-10 -1.43040099e-10)
5(-5.0026676e-10 -3.739453257e-10 -2.829869311e-10 -1.9199605e-10 -1.224686163e-10)
5(-4.864934298e-10 -3.543143112e-10 -2.576035451e-10 -1.573359041e-10 -9.531864175e-11)
5(-4.620748958e-10 -3.26120887e-10 -2.165757562e-10 -1.235530773e-10 -5.522335093e-11)
5(-4.098950801e-10 -2.79486587e-10 -1.725847486e-10 -8.106953389e-11 -2.402850344e-11)
5(-3.666570362e-10 -2.266193188e-10 -1.243319111e-10 -3.214063881e-11 1.709772411e-11)
5(-3.217187238e-10 -1.642426565e-10 -5.923246003e-11 2.309607169e-11 7.916945204e-11)
5(-2.229832332e-10 -8.707191374e-11 1.980621381e-11 8.393050538e-11 1.264363833e-10)
5(-1.25933804e-10 -3.763230725e-12 9.728724789e-11 1.438971435e-10 1.617063616e-10)
5(-1.062120053e-11 1.022136846e-10 1.746654609e-10 2.004491008e-10 2.073369045e-10)
5(1.135176659e-10 2.139311278e-10 2.591919103e-10 2.551642961e-10 2.496652114e-10)
5(2.4034264e-10 3.111454448e-10 3.477979044e-10 3.08272696e-10 2.572290521e-10)
5(3.758246635e-10 4.213976972e-10 4.269162657e-10 3.489549713e-10 2.533762423e-10)
5(5.305648084e-10 5.396160708e-10 4.853007719e-10 3.655989547e-10 2.367094248e-10)
5(7.199570909e-10 6.3303554e-10 5.268413533e-10 3.586017791e-10 1.875684855e-10)
5(8.614492034e-10 7.02519844e-10 5.532950478e-10 3.284371124e-10 1.363631761e-10)
5(9.74808156e-10 7.476553389e-10 5.536042647e-10 2.711912907e-10 6.172469236e-11)
5(1.062373208e-09 7.70916261e-10 5.125307792e-10 1.885974064e-10 -5.447740532e-11)
5(1.128604982e-09 7.705125796e-10 4.39078364e-10 8.936526123e-11 -1.639932595e-10)
5(1.182422194e-09 7.148830827e-10 3.460531742e-10 -1.9181449e-11 -2.682626017e-10)
5(1.172171062e-09 6.317793684e-10 2.379134097e-10 -1.159921435e-10 -3.445603373e-10)
5(1.108977493e-09 5.503518036e-10 1.347504498e-10 -1.814563029e-10 -3.503792648e-10)
5(1.014258157e-09 4.481572459e-10 6.033169419e-11 -1.946711617e-10 -2.569418406e-10)
5(8.837243529e-10 3.527104313e-10 3.973870383e-11 -1.238700392e-10 -5.347055151e-11)
5(7.599954045e-10 3.066000943e-10 9.840464702e-11 5.538604948e-11 2.401326893e-10)
5(6.623315927e-10 3.265763346e-10 2.54508002e-10 3.483863181e-10 6.150815406e-10)
5(6.010650886e-10 4.401398394e-10 5.125156431e-10 7.331255346e-10 1.041645726e-09)
5(6.235374326e-10 6.460644503e-10 8.69046569e-10 1.162258693e-09 1.453532505e-09)
5(7.399636594e-10 9.246258218e-10 1.266280387e-09 1.566302367e-09 1.795735993e-09)
5(9.283438903e-10 1.248839838e-09 1.638918892e-09 1.868744759e-09 1.99440549e-09)
5(1.173074702e-09 1.556643091e-09 1.921590565e-09 2.014561522e-09 1.999619273e-09)
5(1.430203557e-09 1.785022016e-09 2.02451947e-09 1.97006312e-09 1.804846792e-09)
5(1.631244154e-09 1.876573244e-09 1.919725372e-09 1.728240609e-09 1.457304221e-09)
5(1.717551039e-09 1.789780299e-09 1.631184925e-09 1.350449882e-09 1.036041292e-09)
5(1.655789762e-09 1.53411614e-09 1.224462774e-09 9.277544144e-10 6.357175679e-10)
5(1.44265429e-09 1.148515843e-09 7.938835823e-10 5.47645927e-10 3.370003234e-10)
5(1.119960742e-09 7.342122786e-10 4.323639702e-10 2.710907894e-10 1.491710151e-10)
5(7.538284754e-10 3.977466884e-10 1.905715067e-10 1.070362099e-10 5.097462807e-11)
5(4.094775818e-10 1.71263579e-10 6.410108659e-11 3.25750072e-11 1.479025772e-11)
5(1.727624738e-10 5.314353081e-11 1.563855072e-11 7.004882253e-12 2.967105913e-12)
5(5.843355726e-11 1.129876166e-11 2.406278173e-12 1.028193529e-12 3.527055835e-13)
5(1.184145505e-11 1.360716005e-12 1.8716836e-13 7.427840034e-14 3.253024365e-14)
5(1.115321382e-12 9.049479567e-14 -3.644739449e-13 3.364788504e-15 1.175133568e-15)
5(-1.136041094e-14 5.426177382e-14 -7.440169668e-13 3.694769769e-14 1.856922205e-17)
)


60
(
5(-6.429952472e-10 -1.07768471e-09 1.419753564e-10 -6.147535069e-11 5.570421593e-10)
5(-6.130417493e-10 -9.980539611e-10 -2.412702709e-11 -1.501946189e-10 3.41539822e-10)
5(-5.589358265e-10 -7.421566212e-10 -3.541065386e-10 -3.204920173e-10 -9.995935185e-11)
5(-6.770692239e-10 -6.202381588e-10 -5.968322412e-10 -4.557757508e-10 -4.192020035e-10)
5(-8.541551068e-10 -6.399654013e-10 -6.964994887e-10 -5.228034628e-10 -5.83100665e-10)
5(-8.630763725e-10 -6.479951794e-10 -6.483675774e-10 -5.025425503e-10 -5.462086609e-10)
5(-7.541313768e-10 -6.201747804e-10 -5.401241805e-10 -4.421895071e-10 -3.972984508e-10)
5(-6.899997576e-10 -6.147285874e-10 -4.719201018e-10 -4.09798506e-10 -3.130502089e-10)
5(-7.04083657e-10 -6.259009407e-10 -4.791484073e-10 -4.180619473e-10 -3.205950638e-10)
5(-7.589602023e-10 -6.494555363e-10 -5.31451211e-10 -4.441058542e-10 -3.688509873e-10)
5(-7.970116143e-10 -6.704723483e-10 -5.752698946e-10 -4.610519567e-10 -3.943502598e-10)
5(-8.294521641e-10 -6.80443043e-10 -5.891023539e-10 -4.609291764e-10 -3.881732024e-10)
5(-8.291785923e-10 -6.854979752e-10 -5.790250726e-10 -4.486064324e-10 -3.608924398e-10)
5(-8.326307584e-10 -6.858414917e-10 -5.630837233e-10 -4.34201282e-10 -3.3541761e-10)
5(-8.476429954e-10 -6.836656659e-10 -5.534159261e-10 -4.184653093e-10 -3.133384273e-10)
5(-8.395539033e-10 -6.729856887e-10 -5.411134116e-10 -3.986093409e-10 -2.905429977e-10)
5(-8.523625267e-10 -6.592752744e-10 -5.212497453e-10 -3.693465467e-10 -2.658408686e-10)
5(-8.224024731e-10 -6.36275187e-10 -4.857339777e-10 -3.317459199e-10 -2.15188128e-10)
5(-7.931715473e-10 -5.969501934e-10 -4.361729519e-10 -2.869101594e-10 -1.735131401e-10)
5(-7.662866613e-10 -5.437258116e-10 -3.747251563e-10 -2.259373819e-10 -1.023441752e-10)
5(-6.744108281e-10 -4.710120055e-10 -2.960867107e-10 -1.501526745e-10 -2.96966119e-11)
5(-6.158752571e-10 -3.852853634e-10 -2.078272385e-10 -5.752670186e-11 4.59833888e-11)
5(-5.2844104e-10 -2.82874851e-10 -1.026400349e-10 4.645275126e-11 1.395299245e-10)
5(-3.558593944e-10 -1.523920762e-10 2.278305717e-11 1.4912148e-10 2.276259612e-10)
5(-2.112146604e-10 3.039924159e-12 1.559487438e-10 2.584342829e-10 3.223194287e-10)
5(-7.079747103e-11 1.67865315e-10 3.012172996e-10 3.77264171e-10 4.158453085e-10)
5(1.523117186e-10 3.421676996e-10 4.692594362e-10 4.930936559e-10 4.906148501e-10)
5(4.440760913e-10 5.42371078e-10 6.414554175e-10 6.088153978e-10 5.73616675e-10)
5(6.809616691e-10 7.584040289e-10 7.936291929e-10 7.219879759e-10 6.428558738e-10)
5(9.163024597e-10 9.542326582e-10 9.326325945e-10 8.067890338e-10 6.536010077e-10)
5(1.199380563e-09 1.132473356e-09 1.067065875e-09 8.592201517e-10 6.538428553e-10)
5(1.471486692e-09 1.323247565e-09 1.167861273e-09 8.836867507e-10 6.349510097e-10)
5(1.752554495e-09 1.479076398e-09 1.22653047e-09 8.723487917e-10 5.500743446e-10)
5(1.954231146e-09 1.578619148e-09 1.245034224e-09 8.207444954e-10 4.618800491e-10)
5(2.135175124e-09 1.638264223e-09 1.215620716e-09 7.305832339e-10 3.557509922e-10)
5(2.252457361e-09 1.639428722e-09 1.145880504e-09 6.136172949e-10 2.06298448e-10)
5(2.300015482e-09 1.601567997e-09 1.031156398e-09 4.864026155e-10 8.26092236e-11)
5(2.292093235e-09 1.516824706e-09 8.996751831e-10 3.649964854e-10 8.806995079e-12)
5(2.18097907e-09 1.36878806e-09 7.75476608e-10 2.753954103e-10 2.462086388e-11)
5(2.02881131e-09 1.205764714e-09 6.587918274e-10 2.536477036e-10 1.3595776e-10)
5(1.815837827e-09 1.053394271e-09 5.91268343e-10 3.253489417e-10 3.498809093e-10)
5(1.562474331e-09 9.287893923e-10 6.086056163e-10 5.113039456e-10 6.621966551e-10)