/*--------------------------------*- C++ -*----------------------------------*\
| =========                 |                                                 |
| \\      /  F ield         | OpenFOAM: The Open Source CFD Toolbox           |
|  \\    /   O peration     | Version:  2.3.1                                 |
|   \\  /    A nd           | Web:      www.OpenFOAM.org                      |
|    \\/     M anipulation  |                                                 |
\*---------------------------------------------------------------------------*/
FoamFile
{
    version     2.0;
    format      ascii;
    class       dictionary;
    location    "constant";
    object      GRPSI57;
}
// * * * * * * * * * * * * * * * * * * * * * * * * * * * * * * * * * * * * * //

GRPSI57_table
60
(

60
(
5(-0.06495680639 -0.08390638052 -0.08271200568 -0.07763707726 -0.0927060978)
5(-0.05522645925 -0.0816367436 -0.08700539214 -0.07647648138 -0.0869892064)
5(-0.09929363822 -0.09354883446 -0.07642231817 -0.06030235654 -0.05556410746)
5(-0.1247673109 -0.1066604181 -0.07016315101 -0.078642025 -0.1055112733)
5(-0.1059409064 -0.09747777356 -0.07599202638 -0.07364988926 -0.08433036646)
5(-0.07932853015 -0.07766177912 -0.07698354276 -0.07728312187 -0.07659418629)
5(-0.07237950854 -0.07602277734 -0.0751409877 -0.08101061869 -0.09140530812)
5(-0.08128469467 -0.08377775986 -0.07638711707 -0.070393278 -0.0742831469)
5(-0.07576949197 -0.07949175308 -0.07637923589 -0.07459048094 -0.07963650428)
5(-0.07751639272 -0.08161559231 -0.07530613743 -0.07351651923 -0.08213555549)
5(-0.07655321309 -0.0809172107 -0.07547535657 -0.07378634694 -0.08190318904)
5(-0.0774261798 -0.0800860436 -0.07547325142 -0.07414471095 -0.08008882645)
5(-0.08004047249 -0.08094423984 -0.07592321685 -0.07492808144 -0.07985773637)
5(-0.07807291035 -0.08010435524 -0.07500079133 -0.0740661525 -0.08026652246)
5(-0.07911440406 -0.08052475547 -0.07582009854 -0.0744833343 -0.07926157839)
5(-0.07862581328 -0.08042544052 -0.0756330228 -0.07409879272 -0.07915660758)
5(-0.07835477942 -0.08042121876 -0.07573964711 -0.07438283819 -0.07977404025)
5(-0.07833547639 -0.08051908968 -0.07606747792 -0.07448753053 -0.07954280821)
5(-0.0786285039 -0.08065610643 -0.07599848644 -0.07443013715 -0.07954701038)
5(-0.07879842777 -0.08061546338 -0.07614736326 -0.07401626377 -0.0781703)
5(-0.07840744827 -0.08032954913 -0.07636550655 -0.07433287141 -0.07818637969)
5(-0.07816495157 -0.08039468813 -0.07504264168 -0.07329886074 -0.07913686283)
5(-0.07776829425 -0.07987371131 -0.07545090621 -0.07397105068 -0.0790194173)
5(-0.07893353452 -0.08000603415 -0.07480417083 -0.0737666781 -0.07900354832)
5(-0.07863721312 -0.07997425251 -0.07499239921 -0.07371139596 -0.07874928541)
5(-0.07839035716 -0.08035482261 -0.07546116394 -0.07304527661 -0.07748751338)
5(-0.07773354082 -0.07977529777 -0.07576531549 -0.07330699679 -0.07690041732)
5(-0.07792277709 -0.08007064928 -0.07571745992 -0.07284957198 -0.07648274557)
5(-0.07737907676 -0.07924764416 -0.07514536527 -0.07302750821 -0.07688049744)
5(-0.07766085772 -0.07883490865 -0.07412995362 -0.07278622562 -0.07732150358)
5(-0.07736003508 -0.07867643301 -0.07403332631 -0.07227339377 -0.07647296586)
5(-0.07678720196 -0.07791105844 -0.07320570058 -0.07103454594 -0.07469260563)
5(-0.07689908851 -0.07781381402 -0.07267764454 -0.07170306091 -0.07677937227)
5(-0.07678297559 -0.0777189088 -0.07180015652 -0.06936197729 -0.07377848356)
5(-0.07597519676 -0.07695617203 -0.07133949748 -0.06917116678 -0.0736004859)
5(-0.07645320848 -0.0774962144 -0.07043384904 -0.06764215626 -0.07295583476)
5(-0.07442723958 -0.07530120194 -0.06981432695 -0.06868759546 -0.07392170133)
5(-0.07479915945 -0.07474238801 -0.06909603673 -0.06517576375 -0.06684507058)
5(-0.07353955745 -0.0742942293 -0.06819735689 -0.06706033028 -0.07277484793)
5(-0.07200240444 -0.07382195887 -0.06772242039 -0.05727017652 -0.05473702556)
5(-0.07022806169 -0.07204301417 -0.06715922321 -0.05875797379 -0.05705546781)
5(-0.06974203974 -0.07108589136 -0.06342713478 -0.05981587485 -0.06520722314)
5(-0.06733452576 -0.06961144267 -0.05635169887 -0.06121357205 -0.08161210595)
5(-0.06709392211 -0.07176410978 -0.05655138367 -0.05913328563 -0.08159810137)
5(-0.06504632631 -0.06948207806 -0.05653156916 -0.06116236256 -0.0831794166)
5(-0.06640898442 -0.06741537186 -0.05751728682 -0.06374314594 -0.08087347754)
5(-0.06412407892 -0.05803591977 -0.05977634571 -0.07375348572 -0.07990204064)
5(-0.05767267154 -0.05595667545 -0.06429208431 -0.07746986421 -0.08059623916)
5(-0.05890146743 -0.05653047086 -0.06435128807 -0.07780317329 -0.08106324473)
5(-0.03634627662 -0.05791050679 -0.0765405076 -0.07743109723 -0.08125591623)
5(-0.0400253935 -0.06042093373 -0.07785660117 -0.07755683263 -0.08021693688)
5(-0.06393547924 -0.07184730475 -0.07740778508 -0.07743464581 -0.07981285173)
5(-0.07494714034 -0.07666946915 -0.0768175388 -0.0768707875 -0.07849829536)
5(-0.07439654688 -0.0768002425 -0.07633303201 -0.07649800106 -0.07953387622)
5(-0.07496421522 -0.07719262219 -0.07664858279 -0.07588378684 -0.07789143728)
5(-0.06912391964 -0.07413162186 -0.07556675354 -0.07491092503 -0.07782766706)
5(-0.06112324051 -0.0692701203 -0.07436811551 -0.07534665174 -0.07937407254)
5(-0.05820205388 -0.06638634106 -0.07339709417 -0.07065380192 -0.06908404372)
5(-0.06116445591 -0.06741322226 -0.06282512966 -0.06996758941 -0.08794690812)
5(-0.0709880807 -0.07457382003 -0.07794930283 -0.07129081083 -0.06484257534)
)


60
(
5(-0.07418436253 -0.08480653477 -0.08155429289 -0.07838395058 -0.0890880224)
5(-0.07852919979 -0.08347653513 -0.07932593678 -0.07711966245 -0.08401132181)
5(-0.08100139507 -0.08278820546 -0.07817618782 -0.07637605778 -0.08097475575)
5(-0.08173082583 -0.08284937207 -0.0779259898 -0.07611525315 -0.08034644501)
5(-0.08144698658 -0.08314877703 -0.07806597966 -0.07629387501 -0.08130635819)
5(-0.08069292205 -0.08319857485 -0.07816663144 -0.07655390111 -0.082478767)
5(-0.08043346652 -0.0830950105 -0.07821457411 -0.07666077803 -0.08264896233)
5(-0.08053559895 -0.08307856683 -0.07818600016 -0.07654842987 -0.08234639412)
5(-0.08064932321 -0.08302584356 -0.07811312024 -0.07647364772 -0.08212341888)
5(-0.08063611211 -0.0829528321 -0.07808274701 -0.07641387438 -0.08193180682)
5(-0.08079827156 -0.0829821452 -0.07803567957 -0.07643668496 -0.08196802963)
5(-0.08064091124 -0.08297321684 -0.07807341111 -0.07642781062 -0.08201432145)
5(-0.08062633961 -0.08297899562 -0.07801415685 -0.07637063365 -0.08204460522)
5(-0.08058395291 -0.08296650388 -0.07801599544 -0.07633278388 -0.08198263173)
5(-0.08063394349 -0.08295835215 -0.07795989517 -0.07623511749 -0.08183320544)
5(-0.08059957085 -0.08295343693 -0.0779161033 -0.07614225669 -0.08175960979)
5(-0.0806424715 -0.08297439315 -0.07786147727 -0.0760373159 -0.08165799205)
5(-0.08061968102 -0.08296487893 -0.07778966775 -0.07594550193 -0.08162174518)
5(-0.08054927704 -0.08293658722 -0.07773850838 -0.07585500102 -0.08155688266)
5(-0.0805109643 -0.08290238964 -0.07767822584 -0.07572846374 -0.08139429079)
5(-0.08057916783 -0.08288603532 -0.07754586689 -0.07556829258 -0.08123775416)
5(-0.08066157271 -0.08285672745 -0.07742005205 -0.07539165362 -0.08099508533)
5(-0.08055652195 -0.08276862242 -0.07730251737 -0.0752088194 -0.08079332695)
5(-0.08040248962 -0.08264693626 -0.07711483569 -0.07497818495 -0.08061808141)
5(-0.08027312944 -0.08250880325 -0.07693645335 -0.07472860239 -0.08032877515)
5(-0.08011816404 -0.08238271086 -0.07671077854 -0.07436780547 -0.07996131153)
5(-0.07989734317 -0.08219486227 -0.076483795 -0.07399007339 -0.07950493814)
5(-0.07971060967 -0.08193101949 -0.07617089886 -0.07358710476 -0.07898384111)
5(-0.07946446613 -0.08162920788 -0.07576969657 -0.07315722355 -0.07856900359)
5(-0.07911554097 -0.08127050369 -0.07532588344 -0.07263168839 -0.07803707632)
5(-0.07873389546 -0.08086961744 -0.07479358659 -0.07205816336 -0.07753449296)
5(-0.07827466245 -0.08034897352 -0.07420615016 -0.07143815123 -0.07688728673)
5(-0.07772195902 -0.07981109342 -0.07354741102 -0.07068287238 -0.07617115056)
5(-0.07705979205 -0.07913335959 -0.07281800301 -0.06987820053 -0.07532732218)
5(-0.07632048527 -0.0783917419 -0.07199985876 -0.06897394261 -0.07441116624)
5(-0.07545827506 -0.07752861351 -0.07108780319 -0.06797569533 -0.07337473623)
5(-0.07449677746 -0.07661048372 -0.07004935332 -0.06691832331 -0.07246212997)
5(-0.07344814061 -0.07555809412 -0.06893046899 -0.06581439644 -0.07143590254)
5(-0.07216608766 -0.07441542881 -0.06779528182 -0.06454674386 -0.07016769403)
5(-0.07097970882 -0.07320602231 -0.06651302098 -0.06303757058 -0.06848143499)
5(-0.06952554106 -0.07185221547 -0.06526510165 -0.06131242637 -0.06627353932)
5(-0.06834238067 -0.07060021414 -0.0637706163 -0.05944658225 -0.06420997951)
5(-0.06684173395 -0.06923912248 -0.06217117067 -0.05759693932 -0.06248804832)
5(-0.06525970649 -0.06795892002 -0.0604926453 -0.05582045006 -0.06131374309)
5(-0.06404718586 -0.06664774082 -0.05868446421 -0.05453673057 -0.0609528285)
5(-0.06304495254 -0.06528760358 -0.05697743009 -0.05391943374 -0.0614142619)
5(-0.0622297447 -0.06396052031 -0.05561270527 -0.05366720408 -0.06180029354)
5(-0.06149829447 -0.062765849 -0.05478180229 -0.05391059535 -0.06229098964)
5(-0.06065422679 -0.06164609572 -0.05461929015 -0.05473776376 -0.06287491186)
5(-0.0599425742 -0.06108201221 -0.05522582802 -0.05588974698 -0.06354928812)
5(-0.05922887981 -0.06097334556 -0.05636524417 -0.05750719524 -0.06500171346)
5(-0.05933702794 -0.06156550058 -0.05774025484 -0.05928333602 -0.06688013559)
5(-0.06032173824 -0.06279325608 -0.05950151707 -0.06118450571 -0.06863075119)
5(-0.061932071 -0.06452331082 -0.06171885681 -0.06326246922 -0.07020177547)
5(-0.06416782787 -0.06662097942 -0.06396845138 -0.06535925968 -0.07185574759)
5(-0.06688436385 -0.06897937207 -0.06618593211 -0.06741531524 -0.07353314654)
5(-0.06973940801 -0.0712173984 -0.0683755384 -0.06947170604 -0.07488772407)
5(-0.07213957881 -0.07327201359 -0.07054803937 -0.07155129258 -0.07641095478)
5(-0.07476849084 -0.07577717724 -0.07256819989 -0.07322749209 -0.07810444804)
5(-0.07942589226 -0.07415990136 -0.07439814628 -0.08181894256 -0.08373550301)
)


60
(
5(-0.07709137042 -0.08553958275 -0.08193988487 -0.07905997045 -0.08822796626)
5(-0.08011612183 -0.0844714111 -0.08015860244 -0.07801058141 -0.08453065831)
5(-0.08162713022 -0.08394030295 -0.07928818936 -0.07751791125 -0.08271291946)
5(-0.08209791962 -0.08401030185 -0.07911866752 -0.07731169699 -0.08230874302)
5(-0.08184873544 -0.08416597377 -0.07920626641 -0.07741856588 -0.08290781106)
5(-0.08146720241 -0.08421490104 -0.07927589734 -0.0775822684 -0.08357534177)
5(-0.08130564314 -0.08420243529 -0.07930556685 -0.07761642295 -0.08372093963)
5(-0.08136928792 -0.08418123425 -0.07926363555 -0.07754959329 -0.08356509604)
5(-0.08144516696 -0.08413162122 -0.07920665682 -0.07746355967 -0.08333188118)
5(-0.08151513194 -0.08411299409 -0.07916662996 -0.07745399409 -0.08328558449)
5(-0.081542756 -0.08413628264 -0.07915364774 -0.0774351085 -0.08329273081)
5(-0.08154090639 -0.08415585288 -0.07914401268 -0.07741485559 -0.0833124852)
5(-0.08153278433 -0.0841574115 -0.07912388417 -0.07735838818 -0.08325104671)
5(-0.08159604488 -0.08416201843 -0.07907730639 -0.07731823317 -0.08320984555)
5(-0.08157016147 -0.08416381799 -0.07909261038 -0.07723792635 -0.08304810643)
5(-0.0816167111 -0.08417326271 -0.07901979128 -0.07716244081 -0.08301511339)
5(-0.0815558988 -0.08416370724 -0.07900255937 -0.07707593425 -0.08291826542)
5(-0.08152973312 -0.08413856147 -0.0789363342 -0.07697749809 -0.08282971761)
5(-0.08159232723 -0.08414734498 -0.07884605933 -0.0768033418 -0.08261692769)
5(-0.08153937093 -0.08409832548 -0.07876216387 -0.07666623576 -0.08246542382)
5(-0.08154583386 -0.08409637774 -0.07867334044 -0.0765074607 -0.08231516212)
5(-0.08149767219 -0.08400961027 -0.07851769613 -0.07632683686 -0.08213982981)
5(-0.08145401014 -0.08394986523 -0.07836235432 -0.076094884 -0.08191077968)
5(-0.08133465466 -0.08384269633 -0.07818054318 -0.07586949875 -0.08172864914)
5(-0.08121514234 -0.0837327853 -0.07797818631 -0.07560903056 -0.08151211677)
5(-0.08105036984 -0.08357017195 -0.07775065257 -0.07526287528 -0.0811144195)
5(-0.08082077919 -0.08337501373 -0.07750085048 -0.0749036649 -0.0807348771)
5(-0.08066340708 -0.08317688325 -0.0771926776 -0.07446755441 -0.08024011305)
5(-0.08033875407 -0.08287025672 -0.07681184434 -0.07403855938 -0.07985518944)
5(-0.0800351233 -0.08255220905 -0.07639688113 -0.07349425731 -0.07926404715)
5(-0.07972447247 -0.08218022459 -0.07588319474 -0.07289550471 -0.07866059664)
5(-0.0793427503 -0.08174154574 -0.07533108283 -0.07226384398 -0.07800586348)
5(-0.07879994536 -0.08124677633 -0.07474717478 -0.07151260048 -0.0772244587)
5(-0.07834230227 -0.08069018331 -0.0740248291 -0.07066984019 -0.07632808652)
5(-0.07769771563 -0.08001717239 -0.07325273922 -0.06975829811 -0.07534774692)
5(-0.07698145491 -0.07931121917 -0.0723823567 -0.06871270305 -0.07430167613)
5(-0.07613535652 -0.07848990423 -0.07145017664 -0.06763767277 -0.07321944419)
5(-0.07522791688 -0.07758382963 -0.07042200485 -0.06649440805 -0.07208454879)
5(-0.07429729608 -0.07661645098 -0.06933512724 -0.06521600356 -0.07069735851)
5(-0.0732803151 -0.0755875275 -0.06821600749 -0.06376469971 -0.06899212434)
5(-0.07236745081 -0.0746109354 -0.0670072699 -0.06205471332 -0.06694930682)
5(-0.07133737041 -0.07352539769 -0.06567087175 -0.06020863068 -0.06478894282)
5(-0.07039013268 -0.07250958316 -0.06419111362 -0.05837417769 -0.06299516178)
5(-0.06958144878 -0.07157565721 -0.06260617051 -0.05667041367 -0.06169835194)
5(-0.06876813885 -0.0706698938 -0.06108651358 -0.05523146272 -0.06086154703)
5(-0.06821624776 -0.06979254222 -0.05960993929 -0.05404609959 -0.06024115729)
5(-0.06798137271 -0.06891877105 -0.05830766114 -0.05330303498 -0.05984691706)
5(-0.06774963743 -0.06802998405 -0.0574084497 -0.05313485061 -0.0597631325)
5(-0.06735279753 -0.06733700253 -0.05706269216 -0.05343434225 -0.06006450771)
5(-0.06712117728 -0.06696607717 -0.05705904435 -0.05405269173 -0.06079827183)
5(-0.06686913089 -0.06681096496 -0.05754609598 -0.05499901781 -0.06165864269)
5(-0.06687408231 -0.06689894046 -0.05849977186 -0.05672573745 -0.0633757298)
5(-0.06710142322 -0.06751854395 -0.05986459304 -0.05860173993 -0.06540995845)
5(-0.06791213929 -0.06845916666 -0.06148202395 -0.06070678681 -0.06745571976)
5(-0.06890481697 -0.06968110703 -0.06355541106 -0.0629789161 -0.06930440718)
5(-0.07025354285 -0.07121027096 -0.06587030581 -0.06532443204 -0.07107525152)
5(-0.07198743273 -0.07291424279 -0.0682011405 -0.06770083213 -0.07284043611)
5(-0.07368852047 -0.07478470633 -0.07033656358 -0.06995820946 -0.07512418394)
5(-0.07647385766 -0.07715774134 -0.07279650404 -0.07272131563 -0.07769124821)
5(-0.08002835279 -0.07583256476 -0.07442933791 -0.08118449356 -0.08514708805)
)


60
(
5(-0.07878371042 -0.08613849512 -0.08240445394 -0.07966513131 -0.08801463455)
5(-0.08102276421 -0.08520970643 -0.08087850528 -0.07876968198 -0.08517900205)
5(-0.08217909804 -0.08480220318 -0.08013899779 -0.07837977513 -0.08390686301)
5(-0.08250788391 -0.08486894481 -0.08000373201 -0.07822720536 -0.0836769524)
5(-0.08235217429 -0.08498387609 -0.08006811045 -0.07829521434 -0.08406978566)
5(-0.08208036381 -0.08502429511 -0.08013698666 -0.07841720318 -0.08452865945)
5(-0.08201147607 -0.08503571466 -0.08013403807 -0.07842660504 -0.0846450872)
5(-0.08206068823 -0.08502325765 -0.08009315881 -0.07837695247 -0.08455341438)
5(-0.08214503011 -0.08502413148 -0.08006918068 -0.07830434896 -0.0843735694)
5(-0.0822062387 -0.0850141886 -0.08003840839 -0.0782826431 -0.08431060793)
5(-0.08222406328 -0.08501914751 -0.08001843128 -0.07825326222 -0.08428389363)
5(-0.08226131499 -0.08504643176 -0.07999260765 -0.0782255833 -0.08429749984)
5(-0.08226765398 -0.08506597633 -0.07998404092 -0.07818341519 -0.08426304722)
5(-0.08230537079 -0.08507559828 -0.07996112902 -0.07812366144 -0.08417089062)
5(-0.08228462259 -0.08507952012 -0.07994022618 -0.0780566688 -0.08410730291)
5(-0.08234357517 -0.08509075321 -0.07988693202 -0.07798805758 -0.08404018236)
5(-0.082376693 -0.08510586836 -0.07985138519 -0.07789635615 -0.08392498564)
5(-0.08233297302 -0.08507989695 -0.07984922196 -0.07780840365 -0.08374518426)
5(-0.08236158634 -0.08508737336 -0.07974593042 -0.07767546335 -0.08367222624)
5(-0.08233432486 -0.0850523522 -0.07967065731 -0.07755840507 -0.08354587504)
5(-0.0822858682 -0.08502998665 -0.07960255964 -0.07741977721 -0.08340854023)
5(-0.0822633596 -0.08496997354 -0.07944973778 -0.07720753367 -0.08319217925)
5(-0.08221876499 -0.08491369159 -0.07932921504 -0.07696900515 -0.08288819841)
5(-0.08217360683 -0.08480462647 -0.07913710004 -0.07674248745 -0.08264642093)
5(-0.08201466556 -0.08469518065 -0.0789569552 -0.07647557832 -0.08241294199)
5(-0.08189460658 -0.08457809716 -0.07874663022 -0.07615371064 -0.08207574856)
5(-0.08176449247 -0.08442347819 -0.07849363736 -0.07580146372 -0.08169811663)
5(-0.08158576973 -0.0842258049 -0.07820043725 -0.07542481085 -0.08131458728)
5(-0.08134550287 -0.08397885825 -0.07784203061 -0.07497095191 -0.08087005623)
5(-0.0810546667 -0.08369256899 -0.07746875882 -0.07450722552 -0.08040740467)
5(-0.08073160171 -0.08336157637 -0.07702412076 -0.07396226452 -0.07986783855)
5(-0.08033473297 -0.08295475743 -0.07653632282 -0.07339766254 -0.07929746135)
5(-0.07988257998 -0.08253963723 -0.07599099479 -0.07267327412 -0.07856125313)
5(-0.07941180547 -0.08206244054 -0.07539133603 -0.07191341789 -0.07775723934)
5(-0.07885836066 -0.08151531158 -0.07472748595 -0.07104512214 -0.07680753487)
5(-0.07829027367 -0.08092323 -0.07399976558 -0.07014391229 -0.07584447977)
5(-0.07765343882 -0.08026978538 -0.07321627142 -0.0691969279 -0.07484744489)
5(-0.07698962457 -0.07959957912 -0.07236251887 -0.0681294285 -0.07374335294)
5(-0.07631464889 -0.07889059752 -0.07147478106 -0.06701470539 -0.07254639481)
5(-0.07563961313 -0.07817373584 -0.07056162488 -0.06569052152 -0.07096565183)
5(-0.07501729003 -0.07745630707 -0.06961051915 -0.06424131695 -0.06915691972)
5(-0.07452975158 -0.076815518 -0.06859834351 -0.06265918106 -0.06722295951)
5(-0.07407187332 -0.07623043691 -0.06754115229 -0.06102473568 -0.06535616728)
5(-0.07374862098 -0.07576016648 -0.06643549058 -0.05947787775 -0.06385648631)
5(-0.07358319679 -0.07536776718 -0.06530474681 -0.05808940803 -0.06272166002)
5(-0.07357026035 -0.0749856122 -0.06427616797 -0.0570168213 -0.0618822707)
5(-0.07374499335 -0.07471310384 -0.06348488943 -0.05621194141 -0.06113531828)
5(-0.07387149565 -0.07436827825 -0.06289433122 -0.05577456728 -0.06062553297)
5(-0.07425001385 -0.07423964368 -0.06250870434 -0.05572382601 -0.06065951685)
5(-0.07420347633 -0.07398355163 -0.062399688 -0.05604967024 -0.06106359141)
5(-0.07417096962 -0.07385540324 -0.06259432982 -0.05673433866 -0.06181985453)
5(-0.07431625166 -0.07381139521 -0.06302961409 -0.05787563833 -0.06299858723)
5(-0.07443817685 -0.07393407072 -0.0638283839 -0.05930958935 -0.06439237549)
5(-0.07459474688 -0.07429398463 -0.06493069745 -0.06103618118 -0.06620418986)
5(-0.07487033046 -0.0746905316 -0.06623434131 -0.06319813673 -0.06843832358)
5(-0.07528521269 -0.07538011309 -0.06785634631 -0.06530262075 -0.07036756238)
5(-0.07589115602 -0.07635330705 -0.069710979 -0.06781075348 -0.07301500705)
5(-0.07707310768 -0.07767903563 -0.07166892891 -0.07040619255 -0.07575949086)
5(-0.07895564876 -0.07953206605 -0.07439071664 -0.07318893747 -0.07770492499)
5(-0.07716185444 -0.07811152893 -0.07793906167 -0.07909983667 -0.08138275341)
)


60
(
5(-0.07995492441 -0.08665750117 -0.08286249922 -0.08020706744 -0.08804921437)
5(-0.08170726563 -0.08583434139 -0.08150238161 -0.07942338293 -0.08580341979)
5(-0.08267525062 -0.0855007975 -0.08084123771 -0.07910006959 -0.08484400814)
5(-0.08293493398 -0.08557063014 -0.08073295845 -0.07897536489 -0.08469113916)
5(-0.0828156249 -0.08567170365 -0.08078680868 -0.07902776693 -0.08500969889)
5(-0.08262048102 -0.08570236872 -0.08083372981 -0.07912975617 -0.08537630914)
5(-0.08258155889 -0.08573138439 -0.08083777672 -0.07912277031 -0.08545119707)
5(-0.08264103699 -0.08573437327 -0.08081351659 -0.07908338707 -0.08536745052)
5(-0.08271982464 -0.0857329235 -0.08077738318 -0.07902802994 -0.08524731588)
5(-0.08275715167 -0.08574109182 -0.08077515999 -0.07899863524 -0.08517198246)
5(-0.08278942294 -0.08575333273 -0.08074377062 -0.07896507882 -0.08515985892)
5(-0.08280463671 -0.08577286094 -0.08074300145 -0.07894978604 -0.08515465434)
5(-0.08283075424 -0.08580808274 -0.08073007103 -0.07887606931 -0.08507740779)
5(-0.08289970566 -0.08582908291 -0.08069990105 -0.07884634865 -0.08505135535)
5(-0.08290138293 -0.0858454369 -0.08067544162 -0.07876785343 -0.0849743145)
5(-0.08294523382 -0.08584286905 -0.08063726148 -0.07871530129 -0.0848965839)
5(-0.08294468839 -0.08586400691 -0.0806154463 -0.07862252349 -0.0847974798)
5(-0.08298228823 -0.08586961839 -0.08054764762 -0.07853239517 -0.08472644364)
5(-0.08300777444 -0.08585998881 -0.08049788658 -0.07843963322 -0.08459569647)
5(-0.08298571029 -0.08585011569 -0.08045457069 -0.07829825917 -0.08440189806)
5(-0.08294955332 -0.08582669097 -0.08041654922 -0.07816195833 -0.08419464684)
5(-0.08291957967 -0.08578484656 -0.08027085321 -0.07798606697 -0.08408054098)
5(-0.08288756052 -0.08573198617 -0.08014087843 -0.07780557117 -0.08390579731)
5(-0.08281800217 -0.08566981389 -0.08000583042 -0.07760452671 -0.08371901819)
5(-0.0827228867 -0.08557795627 -0.07983512291 -0.07736517637 -0.08349313276)
5(-0.08255954276 -0.08545016074 -0.07965785582 -0.07705702335 -0.08313911378)
5(-0.08243490478 -0.08530677075 -0.07943305586 -0.07672752228 -0.08276756955)
5(-0.08229596972 -0.08514845742 -0.07917104211 -0.07638319824 -0.08242525736)
5(-0.08209328052 -0.08494764957 -0.07888287989 -0.07599297156 -0.08202220195)
5(-0.08188324912 -0.08471930187 -0.07855364621 -0.07555305267 -0.08155416755)
5(-0.08159926333 -0.08444044416 -0.07818726094 -0.07507449864 -0.08105610039)
5(-0.08126140325 -0.08412133774 -0.07778358625 -0.07452551008 -0.08046511989)
5(-0.08093430487 -0.08378017662 -0.07732609538 -0.07395405629 -0.0798819702)
5(-0.08055262205 -0.08340884642 -0.07682795257 -0.07327780748 -0.07916478061)
5(-0.08018238583 -0.08300258438 -0.07627184873 -0.0725557157 -0.07839051688)
5(-0.07978240234 -0.08257065923 -0.07566819833 -0.07178225448 -0.07758702843)
5(-0.07931335419 -0.08209556726 -0.07504602212 -0.07099320231 -0.0767721407)
5(-0.07887907195 -0.08161471531 -0.07440011682 -0.07014077141 -0.07583166785)
5(-0.07847905291 -0.0811329098 -0.07371172504 -0.06922475609 -0.07481282878)
5(-0.07810686906 -0.08067083229 -0.07302938814 -0.06817211771 -0.07352025465)
5(-0.07780813317 -0.08026476406 -0.07236031212 -0.06696896189 -0.0719386945)
5(-0.07757795365 -0.07993445638 -0.07170293348 -0.06570011411 -0.07028532036)
5(-0.07749812305 -0.07970910285 -0.0710457469 -0.06449462113 -0.06881783112)
5(-0.07753596881 -0.07960548212 -0.07038851677 -0.06336715083 -0.06763226356)
5(-0.07772254147 -0.07958735461 -0.06979470509 -0.06240142494 -0.06666560744)
5(-0.077921837 -0.07961790726 -0.0693100073 -0.06160446602 -0.06590289497)
5(-0.07825389254 -0.07970571505 -0.06901202903 -0.06103934167 -0.06521216286)
5(-0.0785525045 -0.07972156877 -0.06885411755 -0.06074886701 -0.06468013197)
5(-0.07882566924 -0.0798344029 -0.06894173549 -0.06063907627 -0.06423781811)
5(-0.07925217089 -0.07999874138 -0.06897170179 -0.06069737862 -0.06419666552)
5(-0.07970350025 -0.08013325724 -0.06909429452 -0.06106558714 -0.06450559948)
5(-0.07999966127 -0.08020927399 -0.06931979714 -0.06172526305 -0.06522981854)
5(-0.08022179262 -0.08020052597 -0.06954891837 -0.06272409118 -0.06652960494)
5(-0.08027903497 -0.08014211687 -0.0700141461 -0.06404668402 -0.06807027462)
5(-0.08025491564 -0.08000130317 -0.07067287739 -0.06571667874 -0.0698352934)
5(-0.08024921134 -0.08018696449 -0.07162050772 -0.06739235252 -0.07166840724)
5(-0.08040944835 -0.08053864998 -0.07289249935 -0.0694100889 -0.07370303071)
5(-0.08071365254 -0.08112357142 -0.07436238632 -0.07166850424 -0.07614572614)
5(-0.08155018529 -0.08217247858 -0.0764488279 -0.07441417331 -0.07872546268)
5(-0.07970390149 -0.0780974196 -0.0770094794 -0.07921918739 -0.0809103537)
)


60
(
5(-0.08083758286 -0.08711321218 -0.08328614752 -0.08070049674 -0.08821753992)
5(-0.08224677034 -0.08637134666 -0.08206074827 -0.08000609475 -0.08638661594)
5(-0.08309216617 -0.08609257895 -0.0814552587 -0.07972952276 -0.08564151985)
5(-0.0833441482 -0.08617224238 -0.08135100717 -0.07961700208 -0.08553232641)
5(-0.08325903603 -0.08626684409 -0.08140065876 -0.07966083996 -0.08579501455)
5(-0.08309320287 -0.08630232397 -0.08144750062 -0.07974766946 -0.08611178274)
5(-0.08306320414 -0.08632278763 -0.08145249096 -0.07974403666 -0.08616546252)
5(-0.08313337423 -0.08634637935 -0.08143179576 -0.07969724858 -0.08609029013)
5(-0.08319954275 -0.08634744204 -0.08140355764 -0.07965262322 -0.08599347251)
5(-0.0832660502 -0.08636449585 -0.08138247271 -0.07962697359 -0.08595194326)
5(-0.08327995596 -0.08638408892 -0.08138926808 -0.07960131413 -0.085912314)
5(-0.08331174114 -0.08641263232 -0.08137240194 -0.07956829904 -0.08590531769)
5(-0.08332884553 -0.08643183482 -0.08136715996 -0.07953809082 -0.08587668582)
5(-0.08337287084 -0.08646493848 -0.08134970595 -0.07946839586 -0.08579438593)
5(-0.08342154724 -0.0864967472 -0.08132331263 -0.07940536581 -0.0857360535)
5(-0.0834270185 -0.08651093862 -0.0813014103 -0.07934231902 -0.08567667617)
5(-0.08347358379 -0.08652743846 -0.08126135637 -0.07927181612 -0.08560221263)
5(-0.08349509421 -0.0865354547 -0.0812302106 -0.07919770513 -0.08551080424)
5(-0.08349278455 -0.08653914298 -0.08118647373 -0.07909060553 -0.08539376503)
5(-0.08350207081 -0.08653283089 -0.08113629079 -0.07897828185 -0.08524757309)
5(-0.08350134837 -0.08651439235 -0.08106203942 -0.0788695239 -0.08514240528)
5(-0.08349523664 -0.08649136685 -0.08095798755 -0.07870462897 -0.08498077989)
5(-0.08345227008 -0.08644854293 -0.0808915919 -0.07854141031 -0.08474445261)
5(-0.08337550893 -0.08638985394 -0.08079327829 -0.07835454908 -0.08452674053)
5(-0.08329210565 -0.08632137123 -0.08061571472 -0.07813285953 -0.08438492642)
5(-0.08322304408 -0.08622623813 -0.08044352259 -0.0778948774 -0.08413214179)
5(-0.08310456855 -0.0861183651 -0.08027840389 -0.07763146645 -0.08383828678)
5(-0.0829501924 -0.08598757388 -0.08007208599 -0.07733699896 -0.08355478132)
5(-0.08276431499 -0.08582097321 -0.07982397115 -0.07699999343 -0.08322967599)
5(-0.08259564788 -0.08562729552 -0.07954728504 -0.07661306866 -0.08279051041)
5(-0.08235028203 -0.08540353747 -0.07925466699 -0.07618112842 -0.08230971577)
5(-0.08206651353 -0.08516250622 -0.07893502897 -0.07571365437 -0.0818157497)
5(-0.08182687194 -0.08489980442 -0.07855695013 -0.07522372539 -0.08130628742)
5(-0.0815588035 -0.08461100398 -0.07815623509 -0.07466728289 -0.08068530006)
5(-0.08130482756 -0.08430929497 -0.07772579401 -0.07409439372 -0.0800509618)
5(-0.0810317995 -0.08399660475 -0.07726459025 -0.07346711127 -0.07936645204)
5(-0.08073643874 -0.08370220993 -0.07681780879 -0.07282534179 -0.07868304711)
5(-0.0804782964 -0.08339654423 -0.07635994281 -0.07218050673 -0.0779559199)
5(-0.08027495748 -0.0831306087 -0.07591430069 -0.07147115942 -0.07709997737)
5(-0.0801324254 -0.08290804255 -0.07546655092 -0.07067610688 -0.07610277164)
5(-0.08005571058 -0.08274120573 -0.07507728823 -0.06979816287 -0.07486845017)
5(-0.0801413838 -0.08268496413 -0.074711386 -0.06893619663 -0.07367816571)
5(-0.080348753 -0.08273926392 -0.07436972488 -0.06813749145 -0.07266530798)
5(-0.08060799742 -0.0828698363 -0.07410313597 -0.06744278805 -0.07181097935)
5(-0.08091343386 -0.08303427806 -0.07392981281 -0.06690819789 -0.07111189242)
5(-0.08127030723 -0.08324718525 -0.07384099309 -0.06658061019 -0.07070329747)
5(-0.08161727364 -0.08347368408 -0.0739593652 -0.06641815194 -0.07024766799)
5(-0.08190737414 -0.08367155871 -0.074219277 -0.06644963673 -0.06989646275)
5(-0.08217731932 -0.08401524116 -0.07455339707 -0.06649137507 -0.06972911901)
5(-0.08252935277 -0.08432349633 -0.07489573816 -0.06669861817 -0.06972339993)
5(-0.08296009762 -0.08457498394 -0.07518325079 -0.06694652867 -0.06971642601)
5(-0.08344103622 -0.08479660222 -0.07540229417 -0.0673836184 -0.07011481668)
5(-0.08377960119 -0.08487105166 -0.07551847619 -0.06788306978 -0.07069168931)
5(-0.08401732375 -0.08484543407 -0.0756685488 -0.06858684367 -0.07151013411)
5(-0.0839707589 -0.0846609439 -0.07586817231 -0.06954439051 -0.07270356532)
5(-0.08389964452 -0.08449075751 -0.0761686732 -0.07075493932 -0.07425440274)
5(-0.08363250563 -0.08419315663 -0.07675316672 -0.07239293437 -0.07603334294)
5(-0.08363281847 -0.08434978829 -0.07765460174 -0.07397384832 -0.07770525125)
5(-0.08361337884 -0.08426925561 -0.07886194262 -0.07661616298 -0.08043357311)
5(-0.08065456741 -0.07989375583 -0.07814972995 -0.07976464321 -0.08236277076)
)


60
(
5(-0.08154596457 -0.0875247666 -0.08368330619 -0.08114521435 -0.08842738495)
5(-0.08268284835 -0.08684311527 -0.08256850287 -0.08052577554 -0.08691792753)
5(-0.08347087375 -0.08661186145 -0.08199608361 -0.08028092543 -0.08632253279)
5(-0.08373186862 -0.08670334855 -0.08189830707 -0.08018563031 -0.08624947494)
5(-0.08365910982 -0.08679085989 -0.08194297412 -0.08021984941 -0.08647636055)
5(-0.08350704626 -0.08682902694 -0.08199527004 -0.08028789366 -0.08673625487)
5(-0.08350038553 -0.08684802586 -0.08199099114 -0.08029877869 -0.08681124127)
5(-0.08356440788 -0.08688100327 -0.08198255105 -0.08024235816 -0.08671721287)
5(-0.08362436228 -0.08688551145 -0.08195731307 -0.08020653216 -0.0866450988)
5(-0.08368909595 -0.08690972884 -0.08193612994 -0.0801813295 -0.08662076086)
5(-0.083711211 -0.0869253149 -0.08193475551 -0.08016557209 -0.08660105198)
5(-0.0837560476 -0.0869714404 -0.08193683286 -0.08012762783 -0.08656842313)
5(-0.08376271655 -0.0869880144 -0.08192566375 -0.08009032638 -0.08654263753)
5(-0.08380870198 -0.08701641196 -0.08191127296 -0.08004732401 -0.08649622403)
5(-0.0838399774 -0.08704088639 -0.08188850405 -0.07998507422 -0.0864349357)
5(-0.08389072815 -0.08707234476 -0.08187126605 -0.07991181071 -0.08633505069)