/*--------------------------------*- C++ -*----------------------------------*\
| =========                 |                                                 |
| \\      /  F ield         | OpenFOAM: The Open Source CFD Toolbox           |
|  \\    /   O peration     | Version:  2.3.1                                 |
|   \\  /    A nd           | Web:      www.OpenFOAM.org                      |
|    \\/     M anipulation  |                                                 |
\*---------------------------------------------------------------------------*/
FoamFile
{
    version     2.0;
    format      ascii;
    class       dictionary;
    location    "constant";
    object      GRPSI38;
}
// * * * * * * * * * * * * * * * * * * * * * * * * * * * * * * * * * * * * * //

GRPSI38_table
60
(

60
(
5(1.154153343e-12 1.010744246e-12 1.67382345e-12 1.424863127e-12 1.917171265e-12)
5(1.133981536e-12 1.482905356e-12 1.365873846e-12 1.341674235e-12 1.304232909e-12)
5(-2.824489549e-10 1.563462936e-12 1.435954692e-12 1.510123178e-12 1.282614523e-12)
5(-8.40275492e-10 1.852018875e-12 1.631373263e-12 1.923239088e-12 1.339851269e-12)
5(-1.037476979e-09 2.415367628e-12 2.195748485e-12 2.394662133e-12 1.981535626e-12)
5(-8.515285919e-10 3.240465075e-12 3.338180754e-12 3.303636724e-12 3.029349629e-12)
5(3.420232443e-12 4.346226095e-12 4.438841399e-12 4.596354129e-12 4.166149631e-12)
5(4.821758459e-12 5.799918091e-12 5.717723927e-12 6.1596678e-12 5.906665867e-12)
5(-9.830302649e-10 7.748446399e-12 7.540580258e-12 8.334880726e-12 7.874804658e-12)
5(-1.707309859e-09 9.271015798e-12 9.960713397e-12 1.138083971e-11 1.085310407e-11)
5(-1.884056533e-09 1.206158614e-11 1.379837126e-11 1.552323507e-11 1.493459293e-11)
5(-5.402989813e-10 1.909921324e-11 1.936508731e-11 2.13453803e-11 2.047744905e-11)
5(2.077474319e-11 2.586011355e-11 2.666380086e-11 2.895747641e-11 2.805605662e-11)
5(2.788484435e-11 3.493311799e-11 3.621145686e-11 3.9433413e-11 3.792147336e-11)
5(3.813753641e-11 4.741754608e-11 4.919930445e-11 5.301131874e-11 5.097306333e-11)
5(8.511889692e-12 5.921790009e-11 6.458017756e-11 7.064680123e-11 6.840056396e-11)
5(3.114120721e-11 8.181872582e-11 8.669730638e-11 9.566327981e-11 9.235433625e-11)
5(7.895014775e-11 1.126909066e-10 1.205863107e-10 1.293403043e-10 1.243814506e-10)
5(1.274511122e-10 1.548487652e-10 1.63484121e-10 1.75565582e-10 1.679297586e-10)
5(1.716220988e-10 2.10342885e-10 2.212519116e-10 2.38449537e-10 2.302577533e-10)
5(2.331241054e-10 2.864144009e-10 3.034159298e-10 3.288469397e-10 3.222606629e-10)
5(3.172154605e-10 3.917986625e-10 4.158297858e-10 4.623577376e-10 4.545801639e-10)
5(4.298868764e-10 5.39139399e-10 5.810823762e-10 6.498137339e-10 6.483096424e-10)
5(5.893207379e-10 7.490568205e-10 8.247708048e-10 9.383760072e-10 9.488586424e-10)
5(8.162126776e-10 1.041110147e-09 1.187302925e-09 1.378976387e-09 1.421184743e-09)
5(1.145876203e-09 1.469771143e-09 1.740376893e-09 2.07454934e-09 2.190168198e-09)
5(1.644619353e-09 2.211472217e-09 2.644576485e-09 3.20412229e-09 3.444060554e-09)
5(2.40626338e-09 3.42751057e-09 4.07598172e-09 5.049943014e-09 5.484674491e-09)
5(3.582214014e-09 5.271918555e-09 6.450349143e-09 8.097344836e-09 8.846462293e-09)
5(5.453266932e-09 8.222999483e-09 1.031492097e-08 1.311623919e-08 1.435532271e-08)
5(8.462278358e-09 1.296154846e-08 1.648677917e-08 2.097814626e-08 2.299788889e-08)
5(1.330320754e-08 2.063426604e-08 2.650882451e-08 3.369202359e-08 3.686413191e-08)
5(2.099852829e-08 3.243910669e-08 4.184416863e-08 5.270944318e-08 5.660583653e-08)
5(3.289312483e-08 5.039184068e-08 6.47097538e-08 8.089748359e-08 8.631321365e-08)
5(5.109630627e-08 7.756385919e-08 9.88578897e-08 1.203862474e-07 1.260465733e-07)
5(7.826811142e-08 1.152267716e-07 1.442095332e-07 1.730727421e-07 1.765361851e-07)
5(1.175056094e-07 1.704179421e-07 2.120802419e-07 2.419945626e-07 2.370488233e-07)
5(1.717365696e-07 2.393338648e-07 2.932186362e-07 3.205680298e-07 3.084900258e-07)
5(2.427943608e-07 3.269972964e-07 3.863276353e-07 4.079155168e-07 3.671694808e-07)
5(3.290942819e-07 4.280882295e-07 4.845321828e-07 4.878960989e-07 4.179218252e-07)
5(4.331181553e-07 5.389738923e-07 5.870817897e-07 5.504315235e-07 4.274999754e-07)
5(5.45547634e-07 6.419931879e-07 6.646952976e-07 5.761549855e-07 3.980347458e-07)
5(6.509201676e-07 7.232436933e-07 7.035019386e-07 5.557292079e-07 3.35179634e-07)
5(7.303879548e-07 7.492632943e-07 6.705519368e-07 4.754980976e-07 2.532641335e-07)
5(7.642274881e-07 7.265389073e-07 5.996089292e-07 3.626915353e-07 1.689739255e-07)
5(7.448962436e-07 6.399836194e-07 4.81646039e-07 2.439180065e-07 9.741493785e-08)
5(6.613118042e-07 5.115503109e-07 3.349648739e-07 1.430367091e-07 4.772035963e-08)
5(5.208873134e-07 3.632131111e-07 1.999379806e-07 7.188257433e-08 1.974371231e-08)
5(3.69414596e-07 2.199723744e-07 1.00514031e-07 3.038573995e-08 6.952924934e-09)
5(2.216798764e-07 1.114446367e-07 4.228261857e-08 1.05906708e-08 2.160466971e-09)
5(1.113712092e-07 4.572033872e-08 1.423838132e-08 3.173560174e-09 5.935070885e-10)
5(4.367810219e-08 1.485408052e-08 3.941048629e-09 8.221948547e-10 1.471674148e-10)
5(1.375789872e-08 3.77940002e-09 9.142583894e-10 1.859618748e-10 3.249058374e-11)
5(2.907871541e-09 7.014264806e-10 1.648071691e-10 3.587127638e-11 6.400192203e-12)
5(4.228813311e-10 1.056964736e-10 2.418758398e-11 5.640011724e-12 1.015767815e-12)
5(3.636681826e-11 9.693811031e-12 2.721021917e-12 6.559891667e-13 1.295466627e-13)
5(2.090586934e-12 7.228776895e-13 1.608407576e-13 5.046200932e-14 9.482823346e-15)
5(5.949480185e-14 2.218905844e-14 5.383668194e-15 3.676446917e-15 3.232480987e-16)
5(2.530885568e-16 -2.35832891e-15 5.528705265e-15 -2.994909463e-15 2.953925588e-18)
5(1.496889401e-20 4.580395601e-20 3.146546284e-11 1.673721923e-19 5.5595056e-19)
)


60
(
5(1.510391349e-12 1.300683033e-12 2.342799672e-12 2.102702825e-12 2.760027941e-12)
5(1.54890659e-12 1.766613145e-12 1.962904968e-12 1.98650895e-12 2.013405758e-12)
5(-1.401388484e-10 2.086778503e-12 2.062517614e-12 2.223845854e-12 1.988545792e-12)
5(-4.188002004e-10 2.611601178e-12 2.500826353e-12 2.827742328e-12 2.374956995e-12)
5(-5.16965276e-10 3.463941892e-12 3.433888548e-12 3.770762531e-12 3.408781239e-12)
5(-4.232801304e-10 4.722400074e-12 5.007866741e-12 5.289553692e-12 5.119222078e-12)
5(5.163842575e-12 6.46012554e-12 6.898028817e-12 7.373530032e-12 7.204344862e-12)
5(7.159498675e-12 8.817310769e-12 9.283441571e-12 1.009036675e-11 1.002700147e-11)
5(-4.850661833e-10 1.203845778e-11 1.255909826e-11 1.37944464e-11 1.361896433e-11)
5(-8.44709469e-10 1.590793192e-11 1.706903845e-11 1.890712355e-11 1.848003703e-11)
5(-9.29678258e-10 2.160164448e-11 2.354519998e-11 2.581287264e-11 2.520514966e-11)
5(-2.52874314e-10 3.091351809e-11 3.249921267e-11 3.51380328e-11 3.418140532e-11)
5(3.399601654e-11 4.196990487e-11 4.432320264e-11 4.722452794e-11 4.574791385e-11)
5(4.612390796e-11 5.671616373e-11 5.977489812e-11 6.318308753e-11 6.053086337e-11)
5(6.288611129e-11 7.642798875e-11 8.023994713e-11 8.37419619e-11 7.994849241e-11)
5(6.427689763e-11 1.001767212e-10 1.061783055e-10 1.103936814e-10 1.049918359e-10)
5(9.540018531e-11 1.347383945e-10 1.409294017e-10 1.458190882e-10 1.379833426e-10)
5(1.459546771e-10 1.804982782e-10 1.88500933e-10 1.923238801e-10 1.82050194e-10)
5(2.055561063e-10 2.406969996e-10 2.49648571e-10 2.542012281e-10 2.405645849e-10)
5(2.735993675e-10 3.192090772e-10 3.302979172e-10 3.363250599e-10 3.202109369e-10)
5(3.649309924e-10 4.224279322e-10 4.3859892e-10 4.481089884e-10 4.296001683e-10)
5(4.834296495e-10 5.5942243e-10 5.823368901e-10 6.028632873e-10 5.867859109e-10)
5(6.386320665e-10 7.419554805e-10 7.786286723e-10 8.128206695e-10 8.022766127e-10)
5(8.49092945e-10 9.869789857e-10 1.049355426e-09 1.112808779e-09 1.11795043e-09)
5(1.126112675e-09 1.314384252e-09 1.429039632e-09 1.546147371e-09 1.585592239e-09)
5(1.501707735e-09 1.764799228e-09 1.972978472e-09 2.192256748e-09 2.304578183e-09)
5(2.022427479e-09 2.44635195e-09 2.789021601e-09 3.17373114e-09 3.424109548e-09)
5(2.762990232e-09 3.464263028e-09 4.005044097e-09 4.70616321e-09 5.186027986e-09)
5(3.795151504e-09 4.944056389e-09 5.909865371e-09 7.134429857e-09 8.02027885e-09)
5(5.354386604e-09 7.192665897e-09 8.898661437e-09 1.102621154e-08 1.260849091e-08)
5(7.651895426e-09 1.066727469e-08 1.354632326e-08 1.707951637e-08 1.964991274e-08)
5(1.11845745e-08 1.612335022e-08 2.094298086e-08 2.672996958e-08 3.094526558e-08)
5(1.663747441e-08 2.444458131e-08 3.226526378e-08 4.132787611e-08 4.723896567e-08)
5(2.493827295e-08 3.705367844e-08 4.926303337e-08 6.300608158e-08 7.20901375e-08)
5(3.738230838e-08 5.605173627e-08 7.459983089e-08 9.406557819e-08 1.059516303e-07)
5(5.599103348e-08 8.299796861e-08 1.094404343e-07 1.367313093e-07 1.513200086e-07)
5(8.32251151e-08 1.223539937e-07 1.607366769e-07 1.9393735e-07 2.082006603e-07)
5(1.203097056e-07 1.735188469e-07 2.251485634e-07 2.63335857e-07 2.772941074e-07)
5(1.710100605e-07 2.407322382e-07 3.030206641e-07 3.447403055e-07 3.457271452e-07)
5(2.340241561e-07 3.212396792e-07 3.913805332e-07 4.289809186e-07 4.137322848e-07)
5(3.119582817e-07 4.145969725e-07 4.891322204e-07 5.073137899e-07 4.572023689e-07)
5(4.020005378e-07 5.093800694e-07 5.759344901e-07 5.640258572e-07 4.706156108e-07)
5(4.925013995e-07 5.957791348e-07 6.396241451e-07 5.856377901e-07 4.47929644e-07)
5(5.719935764e-07 6.514553199e-07 6.549497692e-07 5.557186811e-07 3.911128767e-07)
5(6.267451696e-07 6.684546394e-07 6.295981609e-07 4.822544688e-07 3.10107136e-07)
5(6.446992876e-07 6.33142498e-07 5.532049702e-07 3.788304904e-07 2.195340487e-07)
5(6.10752425e-07 5.514018297e-07 4.344540643e-07 2.655950255e-07 1.37081737e-07)
5(5.261060931e-07 4.332565129e-07 3.02095711e-07 1.639710791e-07 7.387552815e-08)
5(4.111106911e-07 2.996093832e-07 1.824078763e-07 8.791548605e-08 3.399659464e-08)
5(2.814732481e-07 1.794341927e-07 9.412967877e-08 3.942689686e-08 1.318510861e-08)
5(1.654943107e-07 8.993714425e-08 4.034810268e-08 1.490805034e-08 4.248440438e-09)
5(7.98117971e-08 3.63683796e-08 1.379051986e-08 4.512727058e-09 1.200209101e-09)
5(3.007102709e-08 1.145532774e-08 3.70728253e-09 1.119849188e-09 2.852298325e-10)
5(8.136956093e-09 2.657915042e-09 7.290965873e-10 2.142338447e-10 5.623832003e-11)
5(1.543415634e-09 4.32258785e-10 1.098017368e-10 3.451775106e-11 9.6474761e-12)
5(1.688693676e-10 4.686774912e-11 1.105269853e-11 4.095516722e-12 1.160504096e-12)
5(1.073070041e-11 2.477913824e-12 7.655671977e-13 2.869789662e-13 8.656216798e-14)
5(2.054121187e-13 -1.995731276e-14 2.413277355e-14 -4.904270244e-14 3.587055262e-15)
5(1.263189922e-15 -1.658097944e-11 7.797147611e-15 -1.055967015e-11 1.98099435e-17)
5(2.933275719e-19 1.16543968e-19 3.463531816e-11 4.565351087e-19 1.102743222e-18)
)


60
(
5(2.353195826e-12 2.123032605e-12 4.01963796e-12 3.919406397e-12 4.87608575e-12)
5(2.616553071e-12 2.860160026e-12 3.637706016e-12 3.854717447e-12 3.944929009e-12)
5(3.036173037e-12 3.740018376e-12 3.987513394e-12 4.428300162e-12 4.10784172e-12)
5(3.785221229e-12 4.898222593e-12 5.114270927e-12 5.712879412e-12 5.233085837e-12)
5(5.107702965e-12 6.621194148e-12 7.151086077e-12 7.903972099e-12 7.489276925e-12)
5(7.208232595e-12 9.174400577e-12 1.02134174e-11 1.117678695e-11 1.110060216e-11)
5(1.007190885e-11 1.274690766e-11 1.435205686e-11 1.568081875e-11 1.580890253e-11)
5(1.388130789e-11 1.769487235e-11 1.98327152e-11 2.170273648e-11 2.174150069e-11)
5(1.912892338e-11 2.451989508e-11 2.720652653e-11 2.978161123e-11 2.96222086e-11)
5(2.662353041e-11 3.393069854e-11 3.738613367e-11 4.07071189e-11 4.004488588e-11)
5(3.688757887e-11 4.674230674e-11 5.125780536e-11 5.528119375e-11 5.405115976e-11)
5(5.113296635e-11 6.39452727e-11 6.99145228e-11 7.432073514e-11 7.189346621e-11)
5(7.041416558e-11 8.678231451e-11 9.444282735e-11 9.871323373e-11 9.456256737e-11)
5(9.550547408e-11 1.168348792e-10 1.260590991e-10 1.298097069e-10 1.233670788e-10)
5(1.29187227e-10 1.560169583e-10 1.667514662e-10 1.69409689e-10 1.588361406e-10)
5(1.738632289e-10 2.066602732e-10 2.190545778e-10 2.199506675e-10 2.046664279e-10)
5(2.330566742e-10 2.72523532e-10 2.865532665e-10 2.845446759e-10 2.631774236e-10)
5(3.079438044e-10 3.576459857e-10 3.735371586e-10 3.677378111e-10 3.391031685e-10)
5(4.094314575e-10 4.663860463e-10 4.8461462e-10 4.75184332e-10 4.395045664e-10)
5(5.339680866e-10 6.061621618e-10 6.276885119e-10 6.134161234e-10 5.689800871e-10)
5(6.980929058e-10 7.856913502e-10 8.105535841e-10 7.914350121e-10 7.386832412e-10)
5(9.17822375e-10 1.012924307e-09 1.044937037e-09 1.02254414e-09 9.733140008e-10)
5(1.191627614e-09 1.30284794e-09 1.347924381e-09 1.321097079e-09 1.269706246e-09)
5(1.517210411e-09 1.671593581e-09 1.7372466e-09 1.709071543e-09 1.67448572e-09)
5(1.952498951e-09 2.138420501e-09 2.233094033e-09 2.219428025e-09 2.205843873e-09)
5(2.493849042e-09 2.723085211e-09 2.872415879e-09 2.893194107e-09 2.945188097e-09)
5(3.17145982e-09 3.457650878e-09 3.704135521e-09 3.797639193e-09 3.984945858e-09)
5(4.008923445e-09 4.386233843e-09 4.792224105e-09 5.032594378e-09 5.464846178e-09)
5(5.059313467e-09 5.571612671e-09 6.245079231e-09 6.765249935e-09 7.620649296e-09)
5(6.371065104e-09 7.10448431e-09 8.239436444e-09 9.254805705e-09 1.083362879e-08)
5(7.994826359e-09 9.128433893e-09 1.104284199e-08 1.29295503e-08 1.580241795e-08)
5(1.010043179e-08 1.188624512e-08 1.510240437e-08 1.845821985e-08 2.334286652e-08)
5(1.28613514e-08 1.576556604e-08 2.108042707e-08 2.685858764e-08 3.476706413e-08)
5(1.656447201e-08 2.1388752e-08 2.999122272e-08 3.944450807e-08 5.183203687e-08)
5(2.173285178e-08 2.962889115e-08 4.323597281e-08 5.835397094e-08 7.739189959e-08)
5(2.891783676e-08 4.186609107e-08 6.277416472e-08 8.605421543e-08 1.127657258e-07)
5(3.927391457e-08 5.975139059e-08 9.117531909e-08 1.253898811e-07 1.62111379e-07)
5(5.484859114e-08 8.580553172e-08 1.311996948e-07 1.790844988e-07 2.263980374e-07)
5(7.671209195e-08 1.228696349e-07 1.858183947e-07 2.489420733e-07 3.049616041e-07)
5(1.072803381e-07 1.729430997e-07 2.567505768e-07 3.345929476e-07 3.945915469e-07)
5(1.495675819e-07 2.391462194e-07 3.435469717e-07 4.316382618e-07 4.84911583e-07)
5(2.050157269e-07 3.189539249e-07 4.401639877e-07 5.300127372e-07 5.633263056e-07)
5(2.737546862e-07 4.094859312e-07 5.374084611e-07 6.14241524e-07 6.091689972e-07)
5(3.52040706e-07 5.015279185e-07 6.195047784e-07 6.643436742e-07 6.102860307e-07)
5(4.347600618e-07 5.780535463e-07 6.680126174e-07 6.640014007e-07 5.598247068e-07)
5(5.07322865e-07 6.228520272e-07 6.652669975e-07 6.057815909e-07 4.624297605e-07)
5(5.530483094e-07 6.213898802e-07 6.04475023e-07 4.986120395e-07 3.4082965e-07)
5(5.601006891e-07 5.657378737e-07 4.939322855e-07 3.634765995e-07 2.192548013e-07)
5(5.165209317e-07 4.616669021e-07 3.545157168e-07 2.310502719e-07 1.223552977e-07)
5(4.285545733e-07 3.315357993e-07 2.169011798e-07 1.247260947e-07 5.762427934e-08)
5(3.119661791e-07 2.030843256e-07 1.125767158e-07 5.699866679e-08 2.261574328e-08)
5(1.936170313e-07 1.012156552e-07 4.756028028e-08 2.074440551e-08 7.148353551e-09)
5(9.569947248e-08 4.030365483e-08 1.558456125e-08 6.059645098e-09 1.894519478e-09)
5(3.629341863e-08 1.198177698e-08 3.705780113e-09 1.35786898e-09 4.000405164e-10)
5(1.016300474e-08 2.444600284e-09 6.01104269e-10 2.195733525e-10 6.613307581e-11)
5(1.636721128e-09 3.028109976e-10 6.702200574e-11 2.491063725e-11 8.735674145e-12)
5(1.092905282e-10 2.523110802e-11 3.901364086e-12 1.858949719e-12 6.182953471e-13)
5(7.172202283e-12 1.339313127e-12 1.279553232e-13 5.414909774e-13 2.356682169e-14)
5(8.146809392e-14 1.070976476e-10 -1.069294876e-12 1.013506714e-10 2.19751661e-16)
5(1.821767121e-15 1.398870969e-17 -1.573273146e-11 1.046402388e-18 1.98902771e-18)
)


60
(
5(3.466609413e-12 3.406783014e-12 6.393805272e-12 6.69073347e-12 7.865360215e-12)
5(4.172757354e-12 4.83132385e-12 6.280951619e-12 6.912942018e-12 6.98256144e-12)
5(5.109228479e-12 6.497205713e-12 7.236848556e-12 8.193961305e-12 7.67828936e-12)
5(6.502736521e-12 8.622110528e-12 9.477901025e-12 1.072357908e-11 9.906618665e-12)
5(8.840411614e-12 1.174132047e-11 1.332228456e-11 1.485095049e-11 1.421780957e-11)
5(1.249790505e-11 1.63882453e-11 1.898111422e-11 2.095708103e-11 2.085923895e-11)
5(1.756710426e-11 2.286856486e-11 2.670782506e-11 2.934872732e-11 2.970787153e-11)
5(2.441294121e-11 3.187698451e-11 3.702301621e-11 4.061130264e-11 4.072023396e-11)
5(3.388397983e-11 4.419189209e-11 5.076896387e-11 5.559852606e-11 5.524689494e-11)
5(4.706758791e-11 6.099193682e-11 6.948338785e-11 7.549462277e-11 7.412931077e-11)
5(6.52678283e-11 8.37244517e-11 9.469200923e-11 1.015674493e-10 9.922750337e-11)
5(9.022144584e-11 1.139081984e-10 1.279988632e-10 1.350690128e-10 1.302941516e-10)
5(1.23197793e-10 1.536453526e-10 1.709511287e-10 1.775746735e-10 1.696400284e-10)
5(1.680108789e-10 2.05054974e-10 2.258336819e-10 2.309355781e-10 2.174161213e-10)
5(2.241871674e-10 2.711982626e-10 2.953490354e-10 2.979989377e-10 2.780152164e-10)
5(2.970485512e-10 3.554814696e-10 3.836001023e-10 3.825679818e-10 3.541284856e-10)
5(3.955082783e-10 4.633923287e-10 4.952980841e-10 4.895172638e-10 4.511111209e-10)
5(5.189855725e-10 6.008951383e-10 6.368302294e-10 6.250569946e-10 5.729915197e-10)
5(6.777865587e-10 7.752574274e-10 8.165372097e-10 7.96853612e-10 7.317488081e-10)
5(8.81025324e-10 9.969307347e-10 1.04481067e-09 1.016175107e-09 9.382533201e-10)
5(1.13831269e-09 1.276828605e-09 1.334357838e-09 1.296362752e-09 1.205410516e-09)
5(1.464285045e-09 1.629685263e-09 1.701540425e-09 1.651810185e-09 1.554032142e-09)
5(1.874679898e-09 2.073466085e-09 2.164593782e-09 2.103763598e-09 1.991282047e-09)
5(2.394168268e-09 2.630276156e-09 2.745380626e-09 2.673133108e-09 2.581046976e-09)
5(3.044638031e-09 3.321329758e-09 3.470295947e-09 3.388404664e-09 3.29480772e-09)
5(3.824832373e-09 4.165978613e-09 4.369524592e-09 4.277875558e-09 4.238609687e-09)
5(4.789653896e-09 5.17067652e-09 5.468634243e-09 5.389215352e-09 5.440386414e-09)
5(5.959218379e-09 6.381164394e-09 6.800407708e-09 6.759796686e-09 6.982349696e-09)
5(7.375998612e-09 7.803988574e-09 8.40220073e-09 8.475877618e-09 9.025187696e-09)
5(8.939331987e-09 9.456110772e-09 1.033724867e-08 1.063175135e-08 1.17118311e-08)
5(1.079488284e-08 1.1350073e-08 1.271025213e-08 1.342863667e-08 1.56223523e-08)
5(1.285742093e-08 1.347851816e-08 1.564308933e-08 1.724107802e-08 2.130065577e-08)
5(1.504787811e-08 1.598578083e-08 1.94480321e-08 2.257633496e-08 2.933095536e-08)
5(1.740842341e-08 1.904004013e-08 2.465751494e-08 3.046154397e-08 4.141151807e-08)
5(2.013339452e-08 2.293751596e-08 3.200288377e-08 4.222970046e-08 5.977456532e-08)
5(2.336644079e-08 2.838877262e-08 4.294908619e-08 5.996728097e-08 8.635431994e-08)
5(2.703526256e-08 3.654725249e-08 5.959361332e-08 8.657222864e-08 1.25540307e-07)
5(3.30005097e-08 4.92134382e-08 8.474157796e-08 1.258380667e-07 1.812061105e-07)
5(4.146270314e-08 6.915242007e-08 1.221995627e-07 1.814442517e-07 2.54778546e-07)
5(5.591025294e-08 9.994125562e-08 1.752079675e-07 2.56514694e-07 3.471299484e-07)
5(7.922607331e-08 1.454853797e-07 2.472052894e-07 3.518372111e-07 4.557063966e-07)
5(1.136019298e-07 2.085333833e-07 3.390542635e-07 4.627739137e-07 5.679967976e-07)
5(1.650424528e-07 2.91368231e-07 4.460337873e-07 5.787894426e-07 6.66245355e-07)
5(2.346411152e-07 3.903628669e-07 5.578735447e-07 6.815091794e-07 7.315054456e-07)
5(3.214984128e-07 4.965902192e-07 6.558788001e-07 7.473895319e-07 7.423506939e-07)
5(4.191318828e-07 5.9367299e-07 7.199100038e-07 7.562647143e-07 6.909162803e-07)
5(5.165834006e-07 6.600296285e-07 7.271965775e-07 7.001030226e-07 5.805054442e-07)
5(5.933877046e-07 6.783307264e-07 6.660098146e-07 5.817764155e-07 4.341489629e-07)
5(6.267897651e-07 6.335418192e-07 5.462190064e-07 4.273391683e-07 2.835803381e-07)
5(6.044300709e-07 5.29561212e-07 3.92842143e-07 2.742451063e-07 1.58210781e-07)
5(5.230872107e-07 3.870042239e-07 2.416059247e-07 1.483294044e-07 7.456223823e-08)
5(3.993779856e-07 2.38055305e-07 1.230118479e-07 6.649358965e-08 2.920295497e-08)
5(2.598039384e-07 1.229031232e-07 5.003427898e-08 2.319404871e-08 8.657071865e-09)
5(1.377584577e-07 5.013163468e-08 1.524082341e-08 6.174280181e-09 2.185319821e-09)
5(5.470717387e-08 1.441810379e-08 3.291788214e-09 1.137582151e-09 3.841727156e-10)
5(1.7747028e-08 2.828498077e-09 4.443668242e-10 1.440343718e-10 4.109788838e-11)
5(3.333220171e-09 3.157495842e-10 2.981073158e-11 1.171331759e-11 3.704129876e-12)
5(3.061915893e-10 2.068340926e-11 1.277785862e-12 7.96002055e-13 1.362779582e-13)
5(1.96119546e-11 9.590549413e-11 -5.552533926e-14 6.008807227e-11 1.154693629e-15)
5(2.232804957e-11 8.287109402e-14 1.3048329e-10 1.624889905e-18 2.603931937e-18)
)


60
(
5(4.85230946e-12 5.143818839e-12 9.506583368e-12 1.050618639e-11 1.175145472e-11)
5(6.236514022e-12 7.528808562e-12 9.945311885e-12 1.123885036e-11 1.120773815e-11)
5(7.815549016e-12 1.027317922e-11 1.187858711e-11 1.355590943e-11 1.2726884e-11)
5(1.014465695e-11 1.373860474e-11 1.573716319e-11 1.784727832e-11 1.691487417e-11)
5(1.39073741e-11 1.874056218e-11 2.201164964e-11 2.469717946e-11 2.416404278e-11)
5(1.960713816e-11 2.612866717e-11 3.120679577e-11 3.476415864e-11 3.492697339e-11)
5(2.764123176e-11 3.646674091e-11 4.377097112e-11 4.845667012e-11 4.964575354e-11)
5(3.846923515e-11 5.080352784e-11 6.051683467e-11 6.675156618e-11 6.755030294e-11)
5(5.350085358e-11 7.038247221e-11 8.280499526e-11 9.096786983e-11 9.10778991e-11)
5(7.398739843e-11 9.680564612e-11 1.128175777e-10 1.227154524e-10 1.214829614e-10)
5(1.027136826e-10 1.320942142e-10 1.526484331e-10 1.637878998e-10 1.608443534e-10)
5(1.399678566e-10 1.78445932e-10 2.043655566e-10 2.158915156e-10 2.095280425e-10)
5(1.906727466e-10 2.385351159e-10 2.702617785e-10 2.812281857e-10 2.699854346e-10)
5(2.560216334e-10 3.153068844e-10 3.53295367e-10 3.624685734e-10 3.426217474e-10)
5(3.423151123e-10 4.13284291e-10 4.576629589e-10 4.633710857e-10 4.355776338e-10)
5(4.510956069e-10 5.373999076e-10 5.884642763e-10 5.886889617e-10 5.483293378e-10)
5(5.891435452e-10 6.936050139e-10 7.521187468e-10 7.455898016e-10 6.944137789e-10)
5(7.697011224e-10 8.903659386e-10 9.572313891e-10 9.428362415e-10 8.746313221e-10)
5(9.896482533e-10 1.137900732e-09 1.215842875e-09 1.192266195e-09 1.111436803e-09)
5(1.280774848e-09 1.448657098e-09 1.54149271e-09 1.508134063e-09 1.4093229e-09)
5(1.644270856e-09 1.838860574e-09 1.951913454e-09 1.908583181e-09 1.794461509e-09)
5(2.073286455e-09 2.328285194e-09 2.467573682e-09 2.414147815e-09 2.287940665e-09)
5(2.641672306e-09 2.939581633e-09 3.115283912e-09 3.050510797e-09 2.918879673e-09)
5(3.368227764e-09 3.697742159e-09 3.920437246e-09 3.848241448e-09 3.716840005e-09)
5(4.22575113e-09 4.627321993e-09 4.918529094e-09 4.835675007e-09 4.750132053e-09)
5(5.292362639e-09 5.761538266e-09 6.140465564e-09 6.039293445e-09 5.967474439e-09)
5(6.602042095e-09 7.128623837e-09 7.601003921e-09 7.486276966e-09 7.470919535e-09)
5(8.156292904e-09 8.736232787e-09 9.32348977e-09 9.194704791e-09 9.32003319e-09)
5(9.947920441e-09 1.056692296e-08 1.130419032e-08 1.117095405e-08 1.154084189e-08)
5(1.200665859e-08 1.260477895e-08 1.353697993e-08 1.342834118e-08 1.418035764e-08)
5(1.435941994e-08 1.48027382e-08 1.597589226e-08 1.598407538e-08 1.752131355e-08)
5(1.677352203e-08 1.704208491e-08 1.859649198e-08 1.88696793e-08 2.169917408e-08)
5(1.91668554e-08 1.921776948e-08 2.137571174e-08 2.228949015e-08 2.718117728e-08)
5(2.131946268e-08 2.110859226e-08 2.434806047e-08 2.674528124e-08 3.587677407e-08)
5(2.317971204e-08 2.26715783e-08 2.781189852e-08 3.292312837e-08 4.707196701e-08)
5(2.461154382e-08 2.408936547e-08 3.25588471e-08 4.232458999e-08 6.551249429e-08)
5(2.502208374e-08 2.596894464e-08 3.994608722e-08 5.759152597e-08 9.285134924e-08)
5(2.488073277e-08 2.92345279e-08 5.229300309e-08 8.189242291e-08 1.342822203e-07)
5(2.505311937e-08 3.596064422e-08 7.282514514e-08 1.201220874e-07 1.953359331e-07)
5(2.78914583e-08 4.94494492e-08 1.064622102e-07 1.774061719e-07 2.793742704e-07)
5(3.471952272e-08 7.434654906e-08 1.586911094e-07 2.583291881e-07 3.847671649e-07)
5(5.119786886e-08 1.163042959e-07 2.346458282e-07 3.645362026e-07 5.131792856e-07)
5(8.180435104e-08 1.80747944e-07 3.359220005e-07 4.921426163e-07 6.457580542e-07)
5(1.324654135e-07 2.710610921e-07 4.589211324e-07 6.287404903e-07 7.660577479e-07)
5(2.077787818e-07 3.857998699e-07 5.910423845e-07 7.515998513e-07 8.451657008e-07)
5(3.090791574e-07 5.158240571e-07 7.135747453e-07 8.332024348e-07 8.651723861e-07)
5(4.251384834e-07 6.416619587e-07 7.975118402e-07 8.488053363e-07 8.070088119e-07)
5(5.547079513e-07 7.386773386e-07 8.141647289e-07 7.890484782e-07 6.793312745e-07)
5(6.638737549e-07 7.813647305e-07 7.560212446e-07 6.573110419e-07 5.061893467e-07)
5(7.248703708e-07 7.510810757e-07 6.263778937e-07 4.814068485e-07 3.278015549e-07)
5(7.279551264e-07 6.445012708e-07 4.518899115e-07 3.040101459e-07 1.80652226e-07)
5(6.548458986e-07 4.924455666e-07 2.774584995e-07 1.615008291e-07 8.396575752e-08)
5(5.189780616e-07 3.134222822e-07 1.426699627e-07 6.825640918e-08 3.051483996e-08)
5(3.626182704e-07 1.674332574e-07 5.645125061e-08 2.302423604e-08 8.764438479e-09)
5(2.035971265e-07 7.108625864e-08 1.625741476e-08 5.447238281e-09 1.731589472e-09)
5(1.008581063e-07 2.221846838e-08 2.833630777e-09 8.322238599e-10 2.392805743e-10)
5(3.607737822e-08 5.412385819e-09 4.090539547e-10 7.495318914e-11 1.706655457e-11)
5(1.008436852e-08 5.772334368e-10 2.500197856e-11 3.21989491e-12 8.412363726e-13)
5(2.179083985e-09 -5.619499327e-11 1.800283049e-12 -1.013043699e-10 5.552654143e-15)
5(2.796550624e-09 7.025755527e-11 4.908447934e-10 3.246628139e-16 4.011114572e-18)
)


60
(
5(6.528704441e-12 7.331974898e-12 1.339645919e-11 1.540162227e-11 1.667588557e-11)
5(8.804690845e-12 1.098455816e-11 1.465555467e-11 1.696187873e-11 1.672691436e-11)
5(1.13083838e-11 1.517686401e-11 1.795679298e-11 2.068232676e-11 1.956055933e-11)
5(1.483176877e-11 2.036666445e-11 2.397663706e-11 2.727728033e-11 2.588675859e-11)
5(2.046225045e-11 2.778930305e-11 3.349129648e-11 3.761583292e-11 3.715844691e-11)
5(2.875172918e-11 3.869498341e-11 4.709866024e-11 5.259989084e-11 5.345597363e-11)
5(4.052901243e-11 5.389244283e-11 6.569754246e-11 7.301048434e-11 7.494381103e-11)
5(5.662486063e-11 7.486191557e-11 9.053017401e-11 1.0021663e-10 1.022623493e-10)
5(7.818122344e-11 1.034980721e-10 1.234552947e-10 1.358601493e-10 1.369083848e-10)
5(1.086820957e-10 1.416944701e-10 1.672405928e-10 1.822535441e-10 1.828912137e-10)
5(1.48851252e-10 1.920755778e-10 2.246224812e-10 2.413720744e-10 2.391004573e-10)
5(2.025457958e-10 2.573712114e-10 2.982115602e-10 3.157989722e-10 3.097051364e-10)
5(2.739381071e-10 3.411318991e-10 3.911284099e-10 4.079523697e-10 3.94892635e-10)
5(3.652769164e-10 4.478208689e-10 5.066822943e-10 5.21454724e-10 4.996768587e-10)
5(4.841872636e-10 5.823451864e-10 6.503360746e-10 6.610636998e-10 6.281009558e-10)
5(6.335594993e-10 7.504989202e-10 8.284836863e-10 8.3277576e-10 7.875202666e-10)
5(8.217104263e-10 9.600411951e-10 1.050571162e-09 1.04597378e-09 9.868134062e-10)
5(1.055869656e-09 1.221786131e-09 1.326514487e-09 1.312566377e-09 1.241227277e-09)
5(1.364167709e-09 1.54931455e-09 1.671214053e-09 1.648046473e-09 1.556023518e-09)
5(1.729994863e-09 1.956197956e-09 2.100430253e-09 2.069460858e-09 1.971774764e-09)
5(2.201166941e-09 2.463728286e-09 2.638810485e-09 2.6009214e-09 2.478242944e-09)
5(2.796215364e-09 3.098509987e-09 3.314951708e-09 3.269422535e-09 3.147240917e-09)
5(3.501488806e-09 3.887976165e-09 4.160638704e-09 4.108239558e-09 3.989250892e-09)
5(4.439050942e-09 4.862831278e-09 5.211608247e-09 5.155984606e-09 5.038593398e-09)
5(5.534377687e-09 6.061341701e-09 6.508398353e-09 6.450491183e-09 6.376736008e-09)
5(6.890199567e-09 7.511327913e-09 8.080125431e-09 8.028082134e-09 7.965246351e-09)
5(8.611634066e-09 9.279887302e-09 9.969277072e-09 9.907353893e-09 9.956682385e-09)
5(1.062316953e-08 1.135942912e-08 1.220259877e-08 1.209305076e-08 1.223707281e-08)
5(1.279876145e-08 1.37375559e-08 1.473144862e-08 1.456474691e-08 1.482716523e-08)
5(1.553536684e-08 1.638936424e-08 1.752569054e-08 1.728638389e-08 1.780423985e-08)
5(1.846809194e-08 1.924889844e-08 2.047994925e-08 2.009569834e-08 2.125898621e-08)
5(2.161070325e-08 2.215993615e-08 2.34464988e-08 2.287028163e-08 2.47112211e-08)
5(2.463141348e-08 2.483087256e-08 2.616527825e-08 2.554376567e-08 2.868089067e-08)
5(2.75320327e-08 2.693332182e-08 2.84038246e-08 2.809095703e-08 3.378626892e-08)
5(2.983503957e-08 2.819211879e-08 3.020402715e-08 3.078478719e-08 4.093521395e-08)
5(3.093257245e-08 2.828437756e-08 3.138348423e-08 3.440239438e-08 5.107489279e-08)
5(3.061428097e-08 2.724914549e-08 3.259898139e-08 4.064314494e-08 6.840704175e-08)
5(2.877745699e-08 2.529239022e-08 3.546203071e-08 5.186211498e-08 9.44648012e-08)
5(2.512059109e-08 2.359242802e-08 4.261704833e-08 7.272521896e-08 1.37249726e-07)
5(2.039249434e-08 2.484578646e-08 5.882885637e-08 1.092708622e-07 2.038359762e-07)
5(1.714088402e-08 3.297600066e-08 8.955065734e-08 1.686085008e-07 2.965651694e-07)
5(1.861519779e-08 5.398810734e-08 1.423627565e-07 2.569778045e-07 4.179579847e-07)
5(2.95731654e-08 9.481998707e-08 2.244714737e-07 3.779916884e-07 5.680822723e-07)
5(5.859725918e-08 1.634545486e-07 3.386264984e-07 5.255830938e-07 7.234450335e-07)
5(1.115044802e-07 2.646019797e-07 4.837923152e-07 6.863362295e-07 8.683016608e-07)
5(1.947977378e-07 3.973803943e-07 6.430848479e-07 8.326651725e-07 9.615283765e-07)
5(3.080727435e-07 5.515793875e-07 7.938266376e-07 9.315926289e-07 9.83865674e-07)
5(4.441471843e-07 7.066863577e-07 9.03109473e-07 9.581610277e-07 9.144937614e-07)
5(5.944181168e-07 8.343000426e-07 9.396310403e-07 8.922647739e-07 7.697579225e-07)
5(7.246550778e-07 9.013771419e-07 8.85037702e-07 7.437447958e-07 5.695305585e-07)
5(8.150788266e-07 8.856684484e-07 7.451814944e-07 5.459174189e-07 3.640393066e-07)
5(8.37686496e-07 7.871293343e-07 5.495228526e-07 3.453768293e-07 1.938883034e-07)
5(7.883211616e-07 6.151838292e-07 3.493538074e-07 1.799698758e-07 8.764727009e-08)