/*--------------------------------*- C++ -*----------------------------------*\
| =========                 |                                                 |
| \\      /  F ield         | OpenFOAM: The Open Source CFD Toolbox           |
|  \\    /   O peration     | Version:  2.3.1                                 |
|   \\  /    A nd           | Web:      www.OpenFOAM.org                      |
|    \\/     M anipulation  |                                                 |
\*---------------------------------------------------------------------------*/
FoamFile
{
    version     2.0;
    format      ascii;
    class       dictionary;
    location    "constant";
    object      GRPSI15;
}
// * * * * * * * * * * * * * * * * * * * * * * * * * * * * * * * * * * * * * //

GRPSI15_table
60
(

60
(
5(-2.643524932e-08 -2.360982072e-08 -2.513512242e-08 -1.388605371e-08 -2.012956616e-08)
5(3.304408537e-07 -7.277987163e-09 -1.923652745e-08 -1.186222494e-08 -2.016055026e-08)
5(9.750929703e-07 6.809686045e-09 -5.158685427e-09 -8.33611063e-09 -3.798185447e-09)
5(9.242110316e-07 2.363071842e-09 2.733326489e-09 9.142110251e-10 4.705323396e-09)
5(2.06445744e-07 1.137488493e-10 -4.527352272e-09 5.41794239e-09 -2.170880402e-09)
5(-1.268895828e-06 6.303880306e-10 -3.289469195e-09 -2.236196299e-10 3.539585051e-09)
5(-1.188384925e-06 2.621413535e-09 8.06303404e-09 9.827640829e-10 -4.657016937e-10)
5(1.490942465e-06 5.371995641e-09 7.489685387e-09 4.096824182e-09 -1.780586624e-09)
5(2.39464102e-06 1.406501783e-08 8.241021702e-09 2.993241243e-09 4.542745413e-09)
5(1.164166371e-06 1.909122329e-08 8.982602595e-09 3.875920918e-09 3.212183311e-09)
5(-1.43303572e-06 1.904386008e-09 2.600098965e-09 4.615024561e-09 2.504898202e-09)
5(-2.637451132e-06 -5.90963284e-10 2.690986926e-09 6.370099079e-09 3.457037409e-09)
5(-9.265489878e-07 1.30282543e-08 8.377973988e-09 5.780851092e-09 3.874049247e-09)
5(1.536693658e-08 1.300595113e-08 1.008329187e-08 6.90714106e-09 3.836676038e-09)
5(1.093382822e-07 3.650656508e-08 1.827649947e-08 1.338530479e-08 6.326795719e-09)
5(1.126948752e-07 3.826630154e-08 2.565571669e-08 1.31279774e-08 8.632259296e-09)
5(-3.331941907e-08 1.579906179e-08 1.42526114e-08 1.356559779e-08 1.035565964e-08)
5(-6.099323362e-08 1.723906703e-08 1.513574374e-08 1.783047373e-08 1.511143737e-08)
5(3.547274417e-09 2.830464077e-08 3.222532191e-08 2.715566448e-08 1.742762616e-08)
5(4.859788615e-08 4.277011547e-08 3.769018578e-08 3.412263845e-08 1.63329084e-08)
5(5.843093131e-08 5.620866245e-08 5.290653905e-08 2.763406012e-08 1.756729602e-08)
5(8.41406864e-08 8.255147818e-08 7.214152685e-08 5.236266886e-08 3.671228565e-08)
5(1.068872318e-07 1.260668444e-07 9.155971124e-08 8.839273157e-08 5.751927216e-08)
5(1.537019155e-07 2.122042495e-07 1.40793578e-07 1.274671765e-07 8.373835901e-08)
5(2.180156e-07 3.53998896e-07 2.29421546e-07 2.096845533e-07 1.284645606e-07)
5(2.936382075e-07 4.03136258e-07 3.144605057e-07 3.175690061e-07 1.944766347e-07)
5(4.257864413e-07 4.01286932e-07 4.775379261e-07 4.719224329e-07 2.991219542e-07)
5(6.818807961e-07 7.128374137e-07 7.222300778e-07 6.817298135e-07 4.64760918e-07)
5(1.030501403e-06 1.261770322e-06 1.055824407e-06 9.320940295e-07 6.627992884e-07)
5(1.545254475e-06 1.894480374e-06 1.674997156e-06 1.476329137e-06 9.645276558e-07)
5(2.284652542e-06 2.650914545e-06 2.306257889e-06 1.914928271e-06 9.892166476e-07)
5(3.236416358e-06 3.771160927e-06 3.240068787e-06 2.484057701e-06 1.709818012e-06)
5(4.647340039e-06 5.355430601e-06 4.750610808e-06 3.234747954e-06 1.62679134e-06)
5(6.4886335e-06 6.828443995e-06 5.838267768e-06 3.768784e-06 1.08720787e-06)
5(8.512419595e-06 8.97921657e-06 7.976564259e-06 4.317245067e-06 1.587078748e-06)
5(1.066105623e-05 9.530502185e-06 6.561844992e-06 3.038352082e-06 1.363995854e-06)
5(1.25940633e-05 1.054306491e-05 4.942833998e-06 2.291598711e-06 -2.247876808e-06)
5(1.423557913e-05 1.096683599e-05 6.629407959e-06 7.505870276e-07 -1.010636653e-06)
5(1.577631806e-05 8.701906541e-06 5.908265512e-06 -1.518619012e-06 -3.141375916e-06)
5(1.382352606e-05 3.729064932e-06 -1.510435094e-06 -3.545798066e-06 -4.909419086e-06)
5(7.582209426e-06 -2.303964343e-06 -8.310698357e-06 -6.413595636e-06 -2.799915737e-08)
5(1.273378498e-06 -8.62275747e-06 -1.056487053e-05 -9.244456627e-06 -4.222867415e-08)
5(-4.926459255e-06 -1.173367567e-05 -5.82803135e-06 -5.632507054e-06 1.505450024e-07)
5(-1.179339579e-05 -1.334889957e-05 -6.05115986e-06 2.703380427e-23 1.18779271e-08)
5(-1.923444986e-05 -1.413295207e-05 -1.160934272e-05 7.875553588e-23 -1.505450024e-07)
5(-2.223485316e-05 -1.156590877e-05 -6.591408203e-06 2.926117875e-08 -1.18779271e-08)
5(-1.677442991e-05 -9.564946711e-06 -2.016200713e-06 5.67302598e-22 1.995580267e-21)
5(-1.374912375e-05 -4.408033898e-06 -5.794430152e-07 -2.926117875e-08 5.061312769e-21)
5(-1.062814967e-05 -8.12955798e-07 -1.261664002e-07 3.527707668e-21 1.230761282e-20)
5(-4.210172107e-06 -3.339438682e-07 -1.37051678e-08 8.477126054e-21 2.908975266e-20)
5(-1.679532829e-06 -6.174713285e-09 4.556878306e-21 1.96594527e-20 6.64940993e-20)
5(-6.41844806e-07 2.54754892e-21 1.049699503e-20 4.420970557e-20 1.475366791e-19)
5(-1.224187832e-07 5.723145335e-21 2.362921443e-20 9.643457996e-20 3.208399645e-19)
5(-1.153594288e-09 1.256887542e-20 5.166166702e-20 2.05838984e-19 6.749274013e-19)
5(1.872369867e-20 2.702739081e-20 1.103060567e-19 4.242698896e-19 1.376060971e-18)
5(6.838908801e-20 5.744917457e-20 2.312939702e-19 8.510846851e-19 2.659477931e-18)
5(1.034726841e-19 2.116100158e-19 4.811597721e-19 1.652590317e-18 4.949215104e-18)
5(1.0012168e-19 4.490510344e-19 1.329740557e-18 1.9844454e-18 8.77753459e-18)
5(1.049199819e-19 7.224013046e-19 3.186465023e-18 1.305342523e-17 3.238099757e-17)
5(1.1361094e-19 8.918199351e-19 4.363136552e-18 2.430964276e-17 5.362746166e-17)
)


60
(
5(-2.132402162e-08 3.858563176e-09 -2.461888158e-08 -8.750019423e-09 -1.938247575e-08)
5(-1.334387604e-08 5.252821262e-09 -1.556044368e-08 -4.732359874e-09 -1.263964522e-08)
5(4.553745211e-10 8.383264275e-09 -6.176866937e-10 2.451563763e-09 -1.485779295e-09)
5(1.171195548e-08 1.228592388e-08 9.657723442e-09 8.21480728e-09 6.357282691e-09)
5(2.03107975e-08 1.647084453e-08 1.617156691e-08 1.273780972e-08 1.195140154e-08)
5(2.454311532e-08 2.001346735e-08 1.877166313e-08 1.535518595e-08 1.439098817e-08)
5(2.638665854e-08 2.350377439e-08 1.987230822e-08 1.727814391e-08 1.498002199e-08)
5(2.924348828e-08 2.800999419e-08 2.215493294e-08 2.040365479e-08 1.658031793e-08)
5(3.432884521e-08 3.339333375e-08 2.680525084e-08 2.470648616e-08 2.055806875e-08)
5(4.276110315e-08 3.963658178e-08 3.357473195e-08 3.009229435e-08 2.589114824e-08)
5(5.167796768e-08 4.724482268e-08 4.113059183e-08 3.639553642e-08 3.147495172e-08)
5(6.038315662e-08 5.580979668e-08 4.897749522e-08 4.340762551e-08 3.774261022e-08)
5(7.110242623e-08 6.535109329e-08 5.757585939e-08 5.084621321e-08 4.422212777e-08)
5(8.27373179e-08 7.668559742e-08 6.731376726e-08 5.959948698e-08 5.165549756e-08)
5(9.553118867e-08 8.928725023e-08 7.855629571e-08 7.038250631e-08 6.150023167e-08)
5(1.126046863e-07 1.039821177e-07 9.225728886e-08 8.345214452e-08 7.408811509e-08)
5(1.323056029e-07 1.224541378e-07 1.095487429e-07 1.001269105e-07 8.918669609e-08)
5(1.535254965e-07 1.454237707e-07 1.311402318e-07 1.21434638e-07 1.087520613e-07)
5(1.801427744e-07 1.732502895e-07 1.580394888e-07 1.490955712e-07 1.348972218e-07)
5(2.136578592e-07 2.088028323e-07 1.935387482e-07 1.865936332e-07 1.71699648e-07)
5(2.566170841e-07 2.560754724e-07 2.423961516e-07 2.382249114e-07 2.226684681e-07)
5(3.10103233e-07 3.216233555e-07 3.100255816e-07 3.127598372e-07 2.96484105e-07)
5(3.805133468e-07 4.15413833e-07 4.08850169e-07 4.26168905e-07 4.084628438e-07)
5(4.870233256e-07 5.507302152e-07 5.557677568e-07 5.961618511e-07 5.807418809e-07)
5(6.378683401e-07 7.525680711e-07 7.763049592e-07 8.563735446e-07 8.486907802e-07)
5(8.585640854e-07 1.05684321e-06 1.117517308e-06 1.257578627e-06 1.25811949e-06)
5(1.193804157e-06 1.517311057e-06 1.640560047e-06 1.865154926e-06 1.86661447e-06)
5(1.700239531e-06 2.211755975e-06 2.428439896e-06 2.772259665e-06 2.786451225e-06)
5(2.450384518e-06 3.239319964e-06 3.594788944e-06 4.09584108e-06 4.125035525e-06)
5(3.569811605e-06 4.725156702e-06 5.283596715e-06 5.972312542e-06 5.968010755e-06)
5(5.18497222e-06 6.824759412e-06 7.624316524e-06 8.514926354e-06 8.431625116e-06)
5(7.423027286e-06 9.655361179e-06 1.075880639e-05 1.180629332e-05 1.157046815e-05)
5(1.046247811e-05 1.335034059e-05 1.477875343e-05 1.585182111e-05 1.518380661e-05)
5(1.442461751e-05 1.798474628e-05 1.965044307e-05 2.042219905e-05 1.904357833e-05)
5(1.934379318e-05 2.334820607e-05 2.507678326e-05 2.509102708e-05 2.260984598e-05)
5(2.507176337e-05 2.90973131e-05 3.048538785e-05 2.912540504e-05 2.506474003e-05)
5(3.11755363e-05 3.460934272e-05 3.498703516e-05 3.149516357e-05 2.550080743e-05)
5(3.693251104e-05 3.867654711e-05 3.727886835e-05 3.097368454e-05 2.245877177e-05)
5(4.1237504e-05 4.017797802e-05 3.596890901e-05 2.632239522e-05 1.475069681e-05)
5(4.265880188e-05 3.749047002e-05 2.969207494e-05 1.691438251e-05 2.596325068e-06)
5(3.949033853e-05 2.968937009e-05 1.82890281e-05 2.95792222e-06 -1.175190752e-05)
5(3.095815563e-05 1.637528e-05 2.371312147e-06 -1.395098807e-05 -2.475662677e-05)
5(1.675232371e-05 -1.951591573e-06 -1.619272449e-05 -3.022891038e-05 -3.308383203e-05)
5(-2.664952113e-06 -2.180544752e-05 -3.397422302e-05 -4.166833904e-05 -3.516249114e-05)
5(-2.419497745e-05 -3.965354407e-05 -4.719282715e-05 -4.521848194e-05 -3.133559407e-05)
5(-4.342356757e-05 -5.212679739e-05 -5.274981071e-05 -4.055046008e-05 -2.347657825e-05)
5(-5.65099143e-05 -5.628963285e-05 -4.924008221e-05 -3.062594003e-05 -1.46518996e-05)
5(-6.03170773e-05 -5.162895912e-05 -3.84040099e-05 -1.952916791e-05 -7.526471506e-06)
5(-5.483400386e-05 -4.043682384e-05 -2.488448303e-05 -1.039964313e-05 -3.182888333e-06)
5(-4.237213522e-05 -2.663785385e-05 -1.33126658e-05 -4.539367584e-06 -1.13047417e-06)
5(-2.741169228e-05 -1.430625368e-05 -5.833213527e-06 -1.605271494e-06 -3.501427241e-07)
5(-1.444051325e-05 -6.130089758e-06 -2.007714826e-06 -4.837999635e-07 -9.50084652e-08)
5(-5.861462351e-06 -2.059092624e-06 -5.650492049e-07 -1.252019436e-07 -2.318452737e-08)
5(-1.892597031e-06 -5.344429542e-07 -1.322902969e-07 -2.814241123e-08 -4.986969534e-09)
5(-4.102069304e-07 -1.009229605e-07 -2.390554651e-08 -5.360824797e-09 -9.573240317e-10)
5(-6.127308915e-08 -1.536533891e-08 -3.506830285e-09 -8.243531381e-10 -1.465080991e-10)
5(-5.441611223e-09 -1.420880648e-09 -3.907804175e-10 -9.26078091e-11 -1.772565409e-11)
5(-3.223004075e-10 -1.068616758e-10 -2.204644384e-11 -7.23210904e-12 -1.217972005e-12)
5(-9.44698268e-12 -3.266954859e-12 1.838369275e-09 -4.844434308e-13 -3.872604904e-14)
5(-8.294155689e-14 7.589787591e-13 3.676914603e-09 7.649762501e-13 -4.529164116e-16)
)


60
(
5(-1.259173436e-08 1.797597033e-08 -2.713032994e-08 -7.745164081e-09 -2.165503621e-08)
5(-4.776572835e-09 1.888848573e-08 -1.486388229e-08 -1.889696391e-09 -1.271604953e-08)
5(1.15561109e-08 2.199020743e-08 6.441526189e-09 9.059408636e-09 2.852270284e-09)
5(2.865125704e-08 2.82125759e-08 2.267067557e-08 1.890163929e-08 1.486255117e-08)
5(4.451139093e-08 3.681937807e-08 3.459763284e-08 2.749762213e-08 2.464078218e-08)
5(5.500375507e-08 4.545150818e-08 4.137128812e-08 3.364503552e-08 3.048573251e-08)
5(6.12203422e-08 5.40263969e-08 4.570424612e-08 3.913175082e-08 3.367258963e-08)
5(6.890939458e-08 6.426349881e-08 5.229360468e-08 4.652894299e-08 3.875870412e-08)
5(8.270360267e-08 7.714795749e-08 6.350124602e-08 5.647796382e-08 4.696430093e-08)
5(1.020033936e-07 9.294728452e-08 7.841242792e-08 6.869221132e-08 5.807801579e-08)
5(1.239721945e-07 1.108709561e-07 9.516346494e-08 8.248752361e-08 7.087832958e-08)
5(1.454562799e-07 1.296336759e-07 1.128909725e-07 9.718437324e-08 8.379804197e-08)
5(1.686052991e-07 1.508082152e-07 1.316380236e-07 1.131961825e-07 9.712805601e-08)
5(1.971207538e-07 1.758705499e-07 1.528297666e-07 1.316584912e-07 1.135417781e-07)
5(2.317113268e-07 2.046878358e-07 1.777658868e-07 1.533560556e-07 1.333814257e-07)
5(2.653814589e-07 2.368836238e-07 2.062510309e-07 1.784680856e-07 1.565425111e-07)
5(3.022972348e-07 2.73052011e-07 2.388762502e-07 2.08193044e-07 1.858524397e-07)
5(3.50070508e-07 3.137561687e-07 2.770020853e-07 2.453655685e-07 2.218599253e-07)
5(4.015931224e-07 3.613565533e-07 3.233014297e-07 2.909993102e-07 2.653767444e-07)
5(4.631008905e-07 4.175071636e-07 3.800077574e-07 3.481072211e-07 3.208683006e-07)
5(5.287152701e-07 4.855176256e-07 4.506811935e-07 4.227429311e-07 4.010031648e-07)
5(6.052357755e-07 5.736110886e-07 5.403028378e-07 5.213377424e-07 5.070128885e-07)
5(7.08885164e-07 6.89289293e-07 6.62664755e-07 6.615443789e-07 6.544229052e-07)
5(8.399765089e-07 8.464282821e-07 8.398850911e-07 8.691822267e-07 8.785647028e-07)
5(1.007467738e-06 1.069774536e-06 1.10001988e-06 1.181625653e-06 1.217431171e-06)
5(1.246209529e-06 1.395510251e-06 1.485831161e-06 1.644124132e-06 1.729758806e-06)
5(1.603436124e-06 1.871381441e-06 2.053854523e-06 2.339350332e-06 2.493432973e-06)
5(2.103491689e-06 2.584793458e-06 2.914427648e-06 3.382394093e-06 3.644121794e-06)
5(2.856844286e-06 3.640819396e-06 4.202544792e-06 4.913945499e-06 5.343795773e-06)
5(3.96748137e-06 5.171144915e-06 6.056833109e-06 7.105700787e-06 7.661709429e-06)
5(5.564118766e-06 7.367487887e-06 8.672052998e-06 1.0132492e-05 1.084719017e-05)
5(7.84565112e-06 1.038930476e-05 1.225877764e-05 1.41575495e-05 1.498751417e-05)
5(1.098681201e-05 1.439465539e-05 1.694703545e-05 1.918208369e-05 2.004636059e-05)
5(1.510089484e-05 1.951829087e-05 2.275577692e-05 2.516038444e-05 2.575450693e-05)
5(2.033586467e-05 2.572672573e-05 2.951898178e-05 3.180025844e-05 3.167831671e-05)
5(2.675622336e-05 3.272192621e-05 3.678506279e-05 3.830904143e-05 3.69428043e-05)
5(3.368979353e-05 3.994990734e-05 4.364354538e-05 4.357013987e-05 4.013508466e-05)
5(4.088493879e-05 4.647114177e-05 4.871739574e-05 4.609311866e-05 3.956153966e-05)
5(4.723956856e-05 5.073457576e-05 5.046842647e-05 4.41928966e-05 3.355151076e-05)
5(5.096700861e-05 5.109335398e-05 4.715166539e-05 3.639455828e-05 2.118087818e-05)
5(5.092893606e-05 4.605206828e-05 3.723222857e-05 2.197705821e-05 3.434001832e-06)
5(4.521343013e-05 3.424705554e-05 2.043502629e-05 1.62510001e-06 -1.668109326e-05)
5(3.237208927e-05 1.571455924e-05 -1.807026632e-06 -2.192563617e-05 -3.558469848e-05)
5(1.321589127e-05 -7.827813554e-06 -2.673446124e-05 -4.383104171e-05 -4.916300964e-05)
5(-1.051768771e-05 -3.297426446e-05 -4.98564879e-05 -5.902992396e-05 -5.471505494e-05)
5(-3.590489508e-05 -5.47622937e-05 -6.624137924e-05 -6.446799671e-05 -5.142158296e-05)
5(-5.753105187e-05 -6.9132034e-05 -7.182728501e-05 -5.953040011e-05 -4.112953043e-05)
5(-7.090417661e-05 -7.301201894e-05 -6.575560935e-05 -4.677080133e-05 -2.799143825e-05)
5(-7.365394364e-05 -6.582795522e-05 -5.117279364e-05 -3.151936888e-05 -1.598924122e-05)
5(-6.540740135e-05 -5.086300833e-05 -3.356640903e-05 -1.792704539e-05 -7.633550691e-06)
5(-4.968793626e-05 -3.311671388e-05 -1.84318179e-05 -8.364621531e-06 -3.001649083e-06)
5(-3.165563107e-05 -1.763912354e-05 -8.22509141e-06 -3.23630787e-06 -9.711643627e-07)
5(-1.617106814e-05 -7.433458346e-06 -2.883746711e-06 -9.904271612e-07 -2.732957658e-07)
5(-6.303392438e-06 -2.401275531e-06 -7.844463917e-07 -2.457602407e-07 -6.426368461e-08)
5(-1.74232469e-06 -5.647687987e-07 -1.550052723e-07 -4.673791155e-08 -1.248451041e-08)
5(-3.360309243e-07 -9.270452534e-08 -2.33425592e-08 -7.465332315e-09 -2.099529077e-09)
5(-3.690564259e-08 -1.011896917e-08 -2.342271363e-09 -8.839610102e-10 -2.445340993e-10)
5(-2.38440341e-09 -4.732870538e-09 -1.597347864e-10 -2.46217477e-09 -1.752460643e-11)
5(-4.63048647e-11 5.720023028e-12 4.043739579e-09 1.081457272e-11 -6.935491954e-13)
5(-5.848450307e-13 8.393605496e-09 8.09464633e-09 4.805208284e-09 -6.766025751e-15)
)


60
(
5(6.277896599e-09 4.218430585e-08 -2.466491118e-08 -3.956026243e-09 -2.233934183e-08)
5(1.402823821e-08 4.207367336e-08 -8.942767025e-09 4.384429627e-09 -1.070422898e-08)
5(3.188604728e-08 4.444762141e-08 1.999322982e-08 2.057228251e-08 1.029940685e-08)
5(5.598504441e-08 5.383129811e-08 4.454130184e-08 3.621698292e-08 2.844110424e-08)
5(8.264352629e-08 6.931878437e-08 6.40179493e-08 5.09425269e-08 4.489700623e-08)
5(1.01911606e-07 8.562355024e-08 7.72364915e-08 6.355900224e-08 5.636134031e-08)
5(1.150769425e-07 1.026439649e-07 8.816095464e-08 7.552743971e-08 6.392051806e-08)
5(1.330069513e-07 1.233060012e-07 1.025895478e-07 8.992977179e-08 7.447578063e-08)
5(1.611837422e-07 1.484990827e-07 1.241515334e-07 1.088281951e-07 9.064803885e-08)
5(1.964367878e-07 1.782455185e-07 1.521273236e-07 1.321462369e-07 1.114711549e-07)
5(2.362376764e-07 2.11815889e-07 1.840652335e-07 1.581084937e-07 1.340432894e-07)
5(2.804680117e-07 2.491321229e-07 2.184918185e-07 1.85362924e-07 1.577671064e-07)
5(3.25087142e-07 2.907129546e-07 2.538353417e-07 2.148694049e-07 1.842908865e-07)
5(3.756217278e-07 3.368579409e-07 2.922773784e-07 2.488287547e-07 2.122682197e-07)
5(4.362290046e-07 3.864574487e-07 3.363943453e-07 2.879437108e-07 2.465368826e-07)
5(5.059667872e-07 4.435620119e-07 3.883211034e-07 3.325577426e-07 2.889199767e-07)
5(5.750581576e-07 5.102511702e-07 4.488569576e-07 3.855640483e-07 3.373436063e-07)
5(6.583550117e-07 5.802948974e-07 5.139884849e-07 4.480808245e-07 3.979285978e-07)
5(7.437910166e-07 6.587372974e-07 5.883077651e-07 5.190301957e-07 4.671348528e-07)
5(8.344949087e-07 7.520181365e-07 6.736656359e-07 6.005832755e-07 5.490985337e-07)
5(9.635488826e-07 8.51327099e-07 7.728986279e-07 7.023296649e-07 6.652746594e-07)
5(1.089252266e-06 9.691209862e-07 8.996052985e-07 8.292769287e-07 8.008030531e-07)
5(1.190323591e-06 1.120025776e-06 1.060504289e-06 9.950592367e-07 9.801569723e-07)
5(1.351641189e-06 1.30485929e-06 1.256877418e-06 1.229673036e-06 1.233809609e-06)
5(1.570847852e-06 1.536983191e-06 1.52622848e-06 1.563148006e-06 1.608131895e-06)
5(1.821024708e-06 1.85432247e-06 1.925355595e-06 2.047886328e-06 2.179841689e-06)
5(2.16171683e-06 2.317049632e-06 2.502254729e-06 2.76320163e-06 3.003704288e-06)
5(2.641285764e-06 2.995672071e-06 3.350262202e-06 3.824381616e-06 4.226515902e-06)
5(3.329686641e-06 3.984687799e-06 4.610580372e-06 5.379861032e-06 6.018595814e-06)
5(4.329976238e-06 5.417509629e-06 6.452804959e-06 7.626272639e-06 8.592891405e-06)
5(5.796502168e-06 7.482436296e-06 9.069118942e-06 1.077787772e-05 1.213642926e-05)
5(7.873342321e-06 1.036080485e-05 1.267351174e-05 1.503842473e-05 1.680436676e-05)
5(1.075607607e-05 1.427292353e-05 1.747468826e-05 2.050635498e-05 2.262108036e-05)
5(1.465439878e-05 1.939743522e-05 2.359751961e-05 2.723462494e-05 2.961253096e-05)
5(1.966418814e-05 2.573969998e-05 3.095215788e-05 3.502886124e-05 3.714078508e-05)
5(2.588398867e-05 3.313282955e-05 3.924688347e-05 4.320050616e-05 4.453683346e-05)
5(3.325813274e-05 4.126700374e-05 4.770545119e-05 5.076115011e-05 5.062463333e-05)
5(4.111168621e-05 4.926468578e-05 5.510763574e-05 5.621275481e-05 5.321273669e-05)
5(4.850019888e-05 5.577477192e-05 5.980739896e-05 5.759979547e-05 5.014369133e-05)
5(5.445483546e-05 5.92564187e-05 5.967669395e-05 5.300826297e-05 3.981009639e-05)
5(5.71261007e-05 5.766629506e-05 5.287308428e-05 4.077874653e-05 2.259470611e-05)
5(5.485744583e-05 4.925567207e-05 3.825494296e-05 2.055527412e-05 -6.176727642e-07)
5(4.609651338e-05 3.323781574e-05 1.602381163e-05 -5.882942253e-06 -2.62162064e-05)
5(3.015179591e-05 1.013010716e-05 -1.184780128e-05 -3.438224655e-05 -4.930758936e-05)
5(7.668949408e-06 -1.76113998e-05 -4.147414383e-05 -5.937567435e-05 -6.619937188e-05)
5(-1.926700114e-05 -4.552060813e-05 -6.72080786e-05 -7.562291235e-05 -7.265115709e-05)
5(-4.590158499e-05 -6.888644506e-05 -8.286484506e-05 -8.03854555e-05 -6.781811472e-05)
5(-6.771020082e-05 -8.309883344e-05 -8.569287366e-05 -7.339831738e-05 -5.425605656e-05)
5(-8.072936647e-05 -8.471135534e-05 -7.654060198e-05 -5.7635549e-05 -3.708724704e-05)
5(-8.194418679e-05 -7.438626705e-05 -5.788474635e-05 -3.842294913e-05 -2.161278077e-05)
5(-7.215802659e-05 -5.630540487e-05 -3.66542039e-05 -2.152367342e-05 -1.047026912e-05)
5(-5.507398375e-05 -3.555681818e-05 -1.950224918e-05 -1.008172151e-05 -4.150134863e-06)
5(-3.511124571e-05 -1.805527811e-05 -8.391514787e-06 -3.713762984e-06 -1.318102767e-06)
5(-1.760955868e-05 -7.274596564e-06 -2.776247114e-06 -1.090966109e-06 -3.475938972e-07)
5(-6.734629034e-06 -2.169255483e-06 -6.594853849e-07 -2.439004104e-07 -7.277681912e-08)
5(-1.897014535e-06 -4.415042812e-07 -1.067457484e-07 -3.911313056e-08 -1.185352332e-08)
5(-3.022869422e-07 -5.439977625e-08 -1.18499145e-08 -4.297780225e-09 -1.531771689e-09)
5(-2.035070263e-08 1.754146225e-08 -8.959624454e-10 1.908438634e-08 -1.050916503e-10)
5(-1.340817704e-09 -2.015812145e-10 -2.226733848e-11 -9.694164027e-11 -3.847487429e-12)
5(-3.01358811e-11 -4.408124504e-08 4.199769445e-10 -3.881035282e-08 -6.798526262e-14)
)


60
(
5(3.738833201e-08 7.698174647e-08 -1.590124397e-08 3.578079796e-09 -2.042212302e-08)
5(4.419031807e-08 7.525375276e-08 3.530331092e-09 1.498263443e-08 -5.663491497e-09)
5(6.268127063e-08 7.624428693e-08 4.101059111e-08 3.78722655e-08 2.199355989e-08)
5(9.406369347e-08 8.952673624e-08 7.569623601e-08 6.12278581e-08 4.840001043e-08)
5(1.335400787e-07 1.146175701e-07 1.052452169e-07 8.457092387e-08 7.401007948e-08)
5(1.655466121e-07 1.421769718e-07 1.281289072e-07 1.060794938e-07 9.378494612e-08)
5(1.905154399e-07 1.713930619e-07 1.492646897e-07 1.276656893e-07 1.08533661e-07)
5(2.223657307e-07 2.060931811e-07 1.75098586e-07 1.534130659e-07 1.275197825e-07)
5(2.683553003e-07 2.476706633e-07 2.113657983e-07 1.853845502e-07 1.544123805e-07)
5(3.25981867e-07 2.977057922e-07 2.581250062e-07 2.236362398e-07 1.891966641e-07)
5(3.92963506e-07 3.540355895e-07 3.108527955e-07 2.661333545e-07 2.268708837e-07)
5(4.629194093e-07 4.161553476e-07 3.663688979e-07 3.121397561e-07 2.660786436e-07)
5(5.422775296e-07 4.835441733e-07 4.255614366e-07 3.62025667e-07 3.075786702e-07)
5(6.244076449e-07 5.576904857e-07 4.905847755e-07 4.17817325e-07 3.561604487e-07)
5(7.124319053e-07 6.39559923e-07 5.642272032e-07 4.822533334e-07 4.151814609e-07)
5(8.268047879e-07 7.318408451e-07 6.467689237e-07 5.560531896e-07 4.824848807e-07)
5(9.447571667e-07 8.35784262e-07 7.381664612e-07 6.398670555e-07 5.58824962e-07)
5(1.067258361e-06 9.471704607e-07 8.426647408e-07 7.328067726e-07 6.495846646e-07)
5(1.20714898e-06 1.072032983e-06 9.602352694e-07 8.399792891e-07 7.58816496e-07)
5(1.357445609e-06 1.208902568e-06 1.090369677e-06 9.658863907e-07 8.823788973e-07)
5(1.514158261e-06 1.356516528e-06 1.238490616e-06 1.10779653e-06 1.036260273e-06)
5(1.688471509e-06 1.525524485e-06 1.406681868e-06 1.274992997e-06 1.208402429e-06)
5(1.889025661e-06 1.721019945e-06 1.600043626e-06 1.480008485e-06 1.43549349e-06)
5(2.105034648e-06 1.946251453e-06 1.836915807e-06 1.740680443e-06 1.722940935e-06)
5(2.327573703e-06 2.211962444e-06 2.1440723e-06 2.090358701e-06 2.120724788e-06)
5(2.595885405e-06 2.519727186e-06 2.547490327e-06 2.577293899e-06 2.703464168e-06)
5(2.959289815e-06 2.949277373e-06 3.092233891e-06 3.269457653e-06 3.519017394e-06)
5(3.420901402e-06 3.577819351e-06 3.877470442e-06 4.279532616e-06 4.744923554e-06)
5(4.011489191e-06 4.452884551e-06 5.039644603e-06 5.755603062e-06 6.53688156e-06)
5(4.864127687e-06 5.710991658e-06 6.735603917e-06 7.884240241e-06 9.095001777e-06)
5(6.102733357e-06 7.507880736e-06 9.13812598e-06 1.092595928e-05 1.271349386e-05)
5(7.849791266e-06 1.007080912e-05 1.25136589e-05 1.509230406e-05 1.7460451e-05)
5(1.032751948e-05 1.364107119e-05 1.712440902e-05 2.055749688e-05 2.358042166e-05)
5(1.375604311e-05 1.833962163e-05 2.305874045e-05 2.744362996e-05 3.114032782e-05)
5(1.834296038e-05 2.432363469e-05 3.042242034e-05 3.565963657e-05 3.972705189e-05)
5(2.408785348e-05 3.161485593e-05 3.911735562e-05 4.479566122e-05 4.884992105e-05)
5(3.088448276e-05 3.993875565e-05 4.848555462e-05 5.406606e-05 5.732677516e-05)
5(3.871494111e-05 4.875334474e-05 5.751586749e-05 6.203925613e-05 6.30339019e-05)
5(4.68824423e-05 5.692232047e-05 6.464974399e-05 6.676577126e-05 6.365790245e-05)
5(5.423778843e-05 6.29313094e-05 6.797668125e-05 6.610645078e-05 5.705737494e-05)
5(5.937036581e-05 6.492388368e-05 6.534699325e-05 5.778334865e-05 4.246077868e-05)
5(6.066211878e-05 6.097376516e-05 5.472973686e-05 4.044255307e-05 1.986622375e-05)
5(5.640319226e-05 4.946938595e-05 3.545083705e-05 1.465878562e-05 -8.544319379e-06)
5(4.524599868e-05 2.987648379e-05 7.910004306e-06 -1.676449832e-05 -3.862673328e-05)
5(2.698250941e-05 3.512599624e-06 -2.442032725e-05 -4.87698861e-05 -6.536261835e-05)
5(3.016783261e-06 -2.676463714e-05 -5.664077119e-05 -7.507552132e-05 -8.318697597e-05)
5(-2.412563764e-05 -5.620607664e-05 -8.307261354e-05 -9.125610865e-05 -8.868038618e-05)
5(-5.136125331e-05 -7.981901278e-05 -9.722496761e-05 -9.428342794e-05 -8.135687546e-05)
5(-7.371701437e-05 -9.305812963e-05 -9.656720979e-05 -8.357237049e-05 -6.44448419e-05)
5(-8.67253886e-05 -9.334932557e-05 -8.295130916e-05 -6.411978013e-05 -4.358910082e-05)
5(-8.837415678e-05 -8.181343732e-05 -6.134692955e-05 -4.219426728e-05 -2.47933276e-05)
5(-7.8977104e-05 -6.080492222e-05 -3.822482098e-05 -2.32673842e-05 -1.189298812e-05)
5(-6.17158762e-05 -3.761103064e-05 -1.954206613e-05 -1.049848025e-05 -4.663363946e-06)
5(-4.123801631e-05 -1.9593667e-05 -7.923031077e-06 -3.663732367e-06 -1.369173458e-06)
5(-2.181248425e-05 -7.977222064e-06 -2.389938795e-06 -9.661556016e-07 -3.449115134e-07)
5(-8.798840857e-06 -2.279214812e-06 -5.107727681e-07 -1.760472333e-07 -5.969546626e-08)
5(-2.883361173e-06 -4.421965286e-07 -6.792722774e-08 -2.195346294e-08 -6.258395072e-09)
5(-5.401396056e-07 -3.501795978e-08 -4.532524553e-09 6.364565703e-09 -5.506498206e-10)
5(-4.594717042e-08 -3.166012852e-09 1.911068147e-08 -1.116544209e-10 -1.963737415e-11)
5(1.300094385e-09 -2.783033801e-08 3.861704747e-08 -1.624161294e-08 -3.148781744e-13)
)


60
(
5(8.179126565e-08 1.227517161e-07 -2.732533265e-10 1.469731381e-08 -1.57976628e-08)
5(8.548437941e-08 1.186828551e-07 2.328089895e-08 2.981381792e-08 2.536161074e-09)
5(1.034935912e-07 1.176646433e-07 7.037289348e-08 6.105259158e-08 3.955313837e-08)
5(1.448683439e-07 1.357538952e-07 1.162470893e-07 9.453626617e-08 7.676781646e-08)
5(1.994653755e-07 1.722891971e-07 1.582194459e-07 1.296101233e-07 1.128880025e-07)
5(2.468484474e-07 2.144583554e-07 1.943907696e-07 1.631991146e-07 1.443308953e-07)
5(2.868913012e-07 2.600877575e-07 2.291076922e-07 1.974006747e-07 1.689836718e-07)
5(3.378036598e-07 3.144209602e-07 2.711069134e-07 2.381413791e-07 1.989452132e-07)
5(4.072551305e-07 3.782375567e-07 3.277992818e-07 2.878103036e-07 2.419988308e-07)
5(4.950695731e-07 4.529021987e-07 3.986269228e-07 3.464705831e-07 2.947962294e-07)
5(5.896812186e-07 5.370305882e-07 4.774106355e-07 4.11525603e-07 3.518149726e-07)
5(6.95825497e-07 6.296616702e-07 5.615383147e-07 4.817590704e-07 4.122929542e-07)
5(8.104781314e-07 7.303062566e-07 6.506880694e-07 5.583238388e-07 4.766971436e-07)
5(9.381665219e-07 8.421865519e-07 7.489838893e-07 6.435861482e-07 5.527682873e-07)
5(1.08074697e-06 9.667622435e-07 8.596543506e-07 7.393730307e-07 6.398518614e-07)
5(1.230876362e-06 1.102887744e-06 9.834079407e-07 8.491743061e-07 7.442008659e-07)
5(1.405227505e-06 1.255176012e-06 1.122674863e-06 9.75272762e-07 8.616799799e-07)
5(1.585883479e-06 1.420437574e-06 1.277577731e-06 1.118918726e-06 9.999889614e-07)
5(1.791120363e-06 1.599239481e-06 1.449590963e-06 1.279189201e-06 1.156782779e-06)
5(2.017079993e-06 1.798349971e-06 1.638339228e-06 1.455762543e-06 1.327526126e-06)
5(2.225280663e-06 2.011478043e-06 1.843173403e-06 1.653758077e-06 1.54195286e-06)
5(2.479535763e-06 2.242809033e-06 2.075948325e-06 1.875408457e-06 1.774736104e-06)
5(2.764809976e-06 2.498025312e-06 2.334554831e-06 2.132629943e-06 2.044324189e-06)
5(3.020852282e-06 2.769122907e-06 2.619774866e-06 2.441523269e-06 2.395678626e-06)
5(3.311881235e-06 3.069156767e-06 2.962001663e-06 2.817386126e-06 2.815117253e-06)
5(3.658322181e-06 3.430309761e-06 3.378576658e-06 3.304263564e-06 3.380889256e-06)
5(4.01749564e-06 3.870513191e-06 3.906295104e-06 3.967709219e-06 4.206797778e-06)
5(4.408535045e-06 4.416525995e-06 4.627566033e-06 4.897770112e-06 5.36798636e-06)
5(4.94237287e-06 5.159711713e-06 5.66480216e-06 6.237162745e-06 7.035443918e-06)
5(5.696662192e-06 6.236352417e-06 7.158178181e-06 8.180972364e-06 9.497761831e-06)
5(6.698345505e-06 7.774934172e-06 9.287740324e-06 1.093258975e-05 1.292086332e-05)
5(8.092824281e-06 9.938391976e-06 1.230293684e-05 1.476640364e-05 1.752862341e-05)
5(1.006703099e-05 1.29433395e-05 1.642567878e-05 1.994120509e-05 2.382792954e-05)
5(1.294099589e-05 1.703621001e-05 2.189850138e-05 2.660560307e-05 3.142855704e-05)
5(1.681418205e-05 2.24393772e-05 2.890062334e-05 3.48176455e-05 4.032859934e-05)
5(2.17219497e-05 2.922288345e-05 3.740884818e-05 4.438543768e-05 5.051457374e-05)
5(2.795020579e-05 3.726252317e-05 4.703902357e-05 5.458324087e-05 6.067540547e-05)
5(3.530303147e-05 4.610512229e-05 5.693205652e-05 6.429888797e-05 6.910342433e-05)
5(4.337062299e-05 5.50111054e-05 6.5913135e-05 7.18442703e-05 7.33840424e-05)
5(5.133697565e-05 6.289359218e-05 7.218453679e-05 7.496518535e-05 7.055223116e-05)
5(5.806827682e-05 6.796485489e-05 7.358931157e-05 7.118392619e-05 6.033674984e-05)
5(6.225269378e-05 6.821593192e-05 6.792860811e-05 5.846698418e-05 4.100541724e-05)
5(6.221209579e-05 6.18781852e-05 5.342083239e-05 3.612988906e-05 1.287708229e-05)
5(5.675582829e-05 4.791128418e-05 2.955388992e-05 5.485892781e-06 -2.025748754e-05)
5(4.440759664e-05 2.624460684e-05 -1.789970572e-06 -2.977695867e-05 -5.413565188e-05)
5(2.407613322e-05 -1.878538826e-06 -3.69120113e-05 -6.399763819e-05 -8.263268593e-05)
5(3.711799882e-07 -3.338432215e-05 -7.056764255e-05 -9.074226831e-05 -0.0001001637626)
5(-2.59635333e-05 -6.350289559e-05 -9.565571404e-05 -0.0001054062359 -0.0001029910829)