/*--------------------------------*- C++ -*----------------------------------*\
| =========                 |                                                 |
| \\      /  F ield         | OpenFOAM: The Open Source CFD Toolbox           |
|  \\    /   O peration     | Version:  2.3.1                                 |
|   \\  /    A nd           | Web:      www.OpenFOAM.org                      |
|    \\/     M anipulation  |                                                 |
\*---------------------------------------------------------------------------*/
FoamFile
{
    version     2.0;
    format      ascii;
    class       dictionary;
    location    "constant";
    object      GRPSI53;
}
// * * * * * * * * * * * * * * * * * * * * * * * * * * * * * * * * * * * * * //

GRPSI53_table
60
(

60
(
5(-1.31674234e-05 5.057630253e-05 4.305927014e-05 3.877393266e-05 0.0001057493535)
5(-6.178038627e-05 2.800639475e-05 5.090960058e-05 -4.134486646e-07 1.514707728e-05)
5(-0.0003157180949 -0.0001418856536 3.758309767e-06 -7.680717405e-05 -0.0001291841799)
5(-0.0008657995061 -0.0004156220424 -2.909570153e-05 -3.182396751e-06 8.638203082e-05)
5(-0.001266378831 -0.0006120116459 2.229895819e-06 -2.576249744e-05 -1.36292473e-05)
5(-0.001373267149 -0.0007019999834 9.942496778e-06 2.66533637e-08 -5.056450451e-05)
5(4.226777854e-06 -2.247950316e-06 -1.731058679e-06 3.147482886e-05 5.76890966e-05)
5(6.201536741e-05 5.194074671e-05 1.034642146e-05 -4.976048232e-05 -7.834768155e-05)
5(-0.001922282314 -0.0009352707972 1.391122451e-05 -3.194830393e-05 -3.997833719e-05)
5(-0.002622992379 -0.001307206792 -3.243897711e-05 -4.590116532e-05 -1.834558175e-05)
5(-0.002854036861 -0.001452425368 -4.992341744e-05 -4.041289571e-05 -3.179283205e-05)
5(-0.001409520864 -0.0006791354662 1.899381611e-05 -1.704216674e-05 -2.082203449e-05)
5(0.0001257229748 7.839263058e-05 3.673315403e-05 2.968258227e-07 -4.181037004e-05)
5(0.0001217318882 8.195469513e-05 2.428417211e-05 -8.680416731e-06 -2.375167558e-05)
5(0.0001593403455 0.0001054134122 5.591145449e-05 4.371880924e-06 -5.159266831e-05)
5(0.000213573187 5.935370765e-05 -2.452896882e-05 -2.351748412e-05 -9.284280226e-05)
5(0.0001919203198 0.0001027630405 1.593182397e-06 -3.010171632e-05 -4.978403621e-05)
5(0.0003137678697 0.0001450925491 5.725321616e-05 5.958301108e-05 -1.892318161e-05)
5(0.0003852572575 0.0002381399641 0.0001318614579 0.0001303394721 8.797869912e-05)
5(0.0003931640721 0.0002927724055 0.0002241482338 0.000137052571 1.818941338e-05)
5(0.0004468150852 0.0003370712273 0.0002814333627 0.0001565081209 -2.252311418e-05)
5(0.000510985227 0.0004285928698 0.000261205782 0.0001152311767 5.425130194e-05)
5(0.0005890279724 0.0004819353737 0.0003797648385 0.0002356670175 8.664713311e-05)
5(0.0007842916295 0.0005825269378 0.0004257761757 0.0002860470588 0.0001013040121)
5(0.0009422114328 0.0006885810034 0.0005210284385 0.0003690033941 0.0001309004852)
5(0.001178422949 0.0008675559603 0.0006429080647 0.0003796831344 3.023911102e-05)
5(0.001245626772 0.0009541259481 0.0008369286417 0.0005131608417 1.508952404e-05)
5(0.001317278305 0.001162125076 0.00104936519 0.0005385867263 -1.458507949e-05)
5(0.001458253598 0.001237444128 0.001120473328 0.0006666671483 0.0001090222968)
5(0.00173160937 0.001374696413 0.001098644075 0.0007017282473 0.0002239518011)
5(0.001935175001 0.001572811097 0.001264393681 0.0007046287414 9.091731323e-05)
5(0.002070295101 0.001646574121 0.001216594079 0.0004257290223 -0.0003588769716)
5(0.002364191595 0.001866500025 0.001264833488 0.0007541825224 0.0003475065229)
5(0.002637455016 0.002109285869 0.001188322773 8.529658952e-05 -0.0006249356451)
5(0.002706852805 0.002163476997 0.001222554702 -0.0001001090104 -0.001025226238)
5(0.003193892658 0.002634658053 0.001095289976 -0.0006566559806 -0.001428468466)
5(0.002792808004 0.002096230352 0.0009892761865 2.775295997e-05 -0.0005233937518)
5(0.003267845603 0.002127025267 0.0008618855172 -0.001790144941 -0.004317855985)
5(0.003090300352 0.002246173784 0.0005782459034 -0.0007132176898 -0.00118087997)
5(0.00276786385 0.002319564757 0.0004880801043 -0.01141308907 -0.02193107269)
5(0.002170673248 0.001662771742 6.221202689e-05 -0.01119635984 -0.0213622735)
5(0.002182286752 0.001399997756 -0.003916291329 -0.01168998271 -0.014929674)
5(0.00114027645 0.0007378098738 -0.01189928899 -0.01146272882 0.00120846364)
5(0.001232425171 0.002285286122 -0.01244654902 -0.01294053276 0.002350179597)
5(8.645332268e-05 0.001154371001 -0.01228338113 -0.01242687532 0.001935300292)
5(0.0009680794046 -0.0001074839689 -0.01231776423 -0.01071471177 0.002023057576)
5(-0.0003562922396 -0.009257722952 -0.01108591823 -0.0008767319194 0.002259218963)
5(-0.004993619877 -0.01176826775 -0.007680531634 0.0029982699 0.002814687439)
5(-0.004248437513 -0.01154598905 -0.007162994172 0.003924898131 0.003332244015)
5(-0.02477360075 -0.01030015426 0.004691062506 0.004550796141 0.003892759508)
5(-0.02079984745 -0.007745953729 0.005662246436 0.005245429858 0.004474306832)
5(-0.001436637332 0.002348602884 0.006497893733 0.006005579629 0.005149214893)
5(0.006428793997 0.006737122301 0.007422058465 0.006837155535 0.005875644746)
5(0.008471348678 0.008316512113 0.00845048201 0.007781761082 0.006824233692)
5(0.009557557416 0.009471285373 0.009622092548 0.008806443874 0.007753715982)
5(0.009671810271 0.01020040823 0.01082362213 0.009903267904 0.008888297749)
5(0.008445361968 0.01029649029 0.01210029132 0.01103248733 0.01001201063)
5(0.00957191658 0.01108246406 0.01283900305 0.01188273209 0.01068046961)
5(0.01242920494 0.01342368106 0.01094592316 0.01220651255 0.01693933594)
5(0.01751074009 0.01802138934 0.0193080486 0.01592492371 0.01176578881)
)


60
(
5(2.913346285e-05 7.945544369e-05 7.849232596e-05 0.0001012607908 0.0001753143542)
5(5.422732901e-05 6.078704755e-05 5.648792263e-05 5.367120117e-05 6.171332318e-05)
5(7.553824914e-05 5.619540815e-05 4.945305726e-05 3.67656419e-05 1.147773643e-05)
5(9.388548288e-05 6.375498111e-05 5.568934301e-05 4.055782924e-05 3.361451802e-06)
5(0.0001101620821 8.029298255e-05 7.189807993e-05 6.158593636e-05 2.979959585e-05)
5(0.0001269201455 0.0001008638792 9.399273596e-05 9.341523972e-05 7.36526203e-05)
5(0.0001490247215 0.0001218989016 0.0001175194492 0.0001233277107 0.0001063896048)
5(0.0001783907749 0.0001457779317 0.0001428452439 0.0001489401321 0.000125354865)
5(0.0002135885341 0.0001727828379 0.0001710820881 0.0001757087822 0.0001412305299)
5(0.0002532344016 0.0002049835161 0.0002041633897 0.0002081123379 0.0001646305268)
5(0.0002987409121 0.0002443600893 0.0002422820724 0.0002439735627 0.000193362247)
5(0.000349166937 0.0002899613403 0.0002844945988 0.0002812755438 0.0002243176334)
5(0.0004086756598 0.0003414811514 0.0003298521894 0.0003172185298 0.000249019324)
5(0.0004756857716 0.0003985218947 0.0003795138601 0.0003521187599 0.0002665678173)
5(0.0005529008561 0.0004619548907 0.0004315568127 0.0003872441845 0.0002823836687)
5(0.0006394076048 0.0005332599327 0.0004880907005 0.0004234896169 0.0002979100933)
5(0.0007359239911 0.000613447309 0.0005518999934 0.0004628907913 0.0003129522227)
5(0.0008482476675 0.0007044320671 0.0006215430212 0.0005049427824 0.0003274159891)
5(0.0009720369765 0.0008067089549 0.0007015792034 0.0005533184837 0.0003448594939)
5(0.001115492546 0.0009225693399 0.0007917530753 0.0006124043723 0.0003709487282)
5(0.001277125939 0.001054352512 0.0008926667846 0.0006771642845 0.0004005740849)
5(0.001460554051 0.001203508265 0.001008730852 0.0007524959673 0.0004339927094)
5(0.001670066416 0.001374135948 0.00113782374 0.0008420534952 0.0004866649915)
5(0.001899196631 0.001563844233 0.001278137063 0.0009352097721 0.0005426372539)
5(0.002147947785 0.001771331156 0.001437217596 0.001043081876 0.0006064430887)
5(0.002423439978 0.002005722926 0.001611313202 0.001151559812 0.0006684990943)
5(0.002712518071 0.002255308817 0.001799880874 0.001262112706 0.0007225632272)
5(0.003039702845 0.002523653177 0.001986058075 0.001362182232 0.000759851822)
5(0.003375673165 0.002804718938 0.002170226872 0.001460081454 0.0008134738753)
5(0.00371687988 0.003094290195 0.002355323818 0.00153072634 0.000822505556)
5(0.004058294266 0.003384814228 0.002526820505 0.001580551125 0.0008187954292)
5(0.004402485604 0.003664031713 0.002676822322 0.001595811581 0.0007635563387)
5(0.00473141328 0.003937379487 0.002798870974 0.001562813377 0.0006712304993)
5(0.005039578312 0.004183152728 0.002882752474 0.001467899789 0.0004970217725)
5(0.005327187047 0.004401885689 0.002908369677 0.001307451616 0.0002747482081)
5(0.005541765601 0.004562907334 0.002878746046 0.001070004805 -3.343341282e-05)
5(0.005716871948 0.004678819087 0.002768250294 0.0007681139906 -0.0003595063797)
5(0.005813252547 0.004712582803 0.002582572563 0.0003973552241 -0.0007585216182)
5(0.00577445512 0.004653606294 0.002334198963 -9.77719113e-05 -0.001331184279)
5(0.005709664421 0.004502166352 0.001944031682 -0.0007969151809 -0.002187225444)
5(0.005456019457 0.004208249096 0.001462892862 -0.001744427647 -0.003454162284)
5(0.005234648508 0.00387891398 0.0007630115029 -0.002972771354 -0.004948386261)
5(0.004709547038 0.003388342577 -0.0001383908216 -0.00437132467 -0.006398729581)
5(0.003961120967 0.0028182907 -0.00127658844 -0.005839204011 -0.00744977071)
5(0.003256206667 0.002105681315 -0.002719807823 -0.007275754792 -0.008156737975)
5(0.002504910864 0.001200149071 -0.004287218455 -0.008566950012 -0.008664075834)
5(0.001779233294 1.982851743e-05 -0.005881574011 -0.009538658358 -0.009053744953)
5(0.0008415438278 -0.001408831448 -0.007307177352 -0.01012840971 -0.009301671445)
5(-0.0003926417363 -0.002942930529 -0.008438844609 -0.01030552166 -0.009226573424)
5(-0.002020659926 -0.004341048238 -0.009017046653 -0.01008423522 -0.008795813674)
5(-0.003929231234 -0.005464229456 -0.008973614424 -0.009485782712 -0.008023564256)
5(-0.005369767883 -0.006038822067 -0.008354989161 -0.008465279352 -0.006928456633)
5(-0.005892706997 -0.005896682009 -0.007301509298 -0.007162900225 -0.005623438876)
5(-0.00529666866 -0.004940173522 -0.005784296064 -0.005453348508 -0.003921783272)
5(-0.003406178356 -0.003176185404 -0.003859732029 -0.00342198205 -0.002070692494)
5(-0.0007713383339 -0.0007829872 -0.001450647845 -0.001018160346 7.033893038e-05)
5(0.002542307672 0.002229225488 0.001425219056 0.001710052074 0.002485809341)
5(0.006316801566 0.005658772962 0.004719815333 0.004825762917 0.005212639526)
5(0.01030294568 0.009414140044 0.008557694099 0.008416307445 0.008242561096)
5(0.01538004881 0.01273375249 0.01348342446 0.01454052022 0.01220164769)
)


60
(
5(5.408640537e-05 0.0001122848674 0.0001293712023 0.0001760954371 0.0002639317991)
5(8.381724879e-05 9.584430646e-05 0.0001089902856 0.0001276276342 0.0001451460614)
5(0.0001116167343 9.674124704e-05 0.0001081400871 0.0001162945477 9.817468103e-05)
5(0.0001376574006 0.0001126262854 0.0001247315357 0.000133070865 0.0001042738288)
5(0.0001634534509 0.0001396776609 0.0001549179712 0.0001717824232 0.000149630775)
5(0.0001922406995 0.0001731763479 0.000192860274 0.0002229370404 0.0002142655291)
5(0.0002275941593 0.0002095196899 0.0002333828075 0.0002700009787 0.000264681563)
5(0.0002717851985 0.00024903031 0.0002758402298 0.0003123487429 0.0002992924478)
5(0.0003237351919 0.0002932805575 0.0003213796231 0.0003532816537 0.0003266299843)
5(0.000381304617 0.0003437269738 0.0003712999087 0.0003976702912 0.0003588900956)
5(0.0004460538977 0.0004019912672 0.0004245806381 0.0004403058256 0.0003893790118)
5(0.000515291878 0.0004652394368 0.0004799676184 0.0004799484307 0.0004151486203)
5(0.000592513194 0.0005337795628 0.0005357222105 0.0005140642785 0.0004317300675)
5(0.0006789915962 0.0006072573986 0.0005917638693 0.0005431629767 0.0004383214158)
5(0.0007720885252 0.000685643165 0.0006486067608 0.0005693618463 0.0004407079758)
5(0.0008755631878 0.0007700057712 0.0007078147543 0.0005946935703 0.0004382059867)
5(0.0009875192036 0.0008626130219 0.0007725514249 0.0006220604265 0.0004367248435)
5(0.001115442446 0.0009644685178 0.0008424729408 0.0006526305656 0.0004338098397)
5(0.001256030328 0.001078313886 0.0009214149971 0.0006906225783 0.0004390126053)
5(0.001413113663 0.001205121608 0.001012506486 0.0007393884648 0.0004508935112)
5(0.001593817925 0.001351312742 0.001117198863 0.0008010460058 0.0004765018438)
5(0.001788262204 0.001511001768 0.001236121805 0.0008770537163 0.0005156051543)
5(0.002018400376 0.001698959044 0.001373501259 0.0009635852902 0.000559685774)
5(0.00226572681 0.001906836059 0.001528461298 0.001063942139 0.0006189069879)
5(0.002545364734 0.002143047353 0.001702795954 0.001176041166 0.0006872203952)
5(0.002845974489 0.0023998617 0.001897161878 0.001293780052 0.0007469852593)
5(0.003172072826 0.002679803242 0.002102485724 0.001423175674 0.0008289135585)
5(0.003534490756 0.002983884772 0.002317638159 0.001542627023 0.0008832565137)
5(0.003899209474 0.003298722513 0.002535774371 0.001664921729 0.0009565302684)
5(0.004283528316 0.003633655707 0.002758511275 0.001765382348 0.0009975252419)
5(0.004686110997 0.003972531674 0.002965505937 0.001842792313 0.001013525103)
5(0.005088085411 0.004309359537 0.003161507202 0.001896968894 0.001001557047)
5(0.00546824407 0.0046394873 0.003341710612 0.001896477419 0.0009202641438)
5(0.005849238925 0.004954149291 0.003475222729 0.00185171251 0.0008120392181)
5(0.006207917507 0.005241383234 0.003568909105 0.00174214558 0.0006213219105)
5(0.006561265768 0.005514229952 0.003612223053 0.001569987066 0.0003827221621)
5(0.006783784467 0.005701082143 0.003599423531 0.001329743953 7.902066156e-05)
5(0.007022226766 0.005856752201 0.003511827813 0.001021129512 -0.0002901189667)
5(0.007160716824 0.005912585517 0.003334629342 0.0005890101472 -0.0008267841804)
5(0.007228612609 0.005907601424 0.003072813612 -2.085406522e-05 -0.001600745116)
5(0.007247540666 0.00584397245 0.002696199631 -0.0008795932441 -0.002711181516)
5(0.007101719504 0.005625431568 0.002151131366 -0.001933682294 -0.004020483688)
5(0.006901511747 0.005361905936 0.001405871133 -0.003183110846 -0.005355663833)
5(0.006535729887 0.004985659038 0.0004308629694 -0.00455190198 -0.006529941711)
5(0.006045515393 0.004476085626 -0.0007389383847 -0.005940079561 -0.007495626494)
5(0.005527987088 0.00377369637 -0.002117411694 -0.007291992242 -0.008329755445)
5(0.004988086183 0.002844259458 -0.003564410701 -0.008490422848 -0.00915159156)
5(0.004282171216 0.001684367899 -0.004973165302 -0.009444049293 -0.009855203401)
5(0.003254035166 0.0003926666652 -0.006194644271 -0.01012628025 -0.01033197379)
5(0.001893874424 -0.0009308815387 -0.007135707487 -0.01049884388 -0.01048191029)
5(0.0002699101039 -0.002125901465 -0.00764499381 -0.01050042289 -0.01023257119)
5(-0.001250364683 -0.003034265692 -0.007723697228 -0.01015214402 -0.009675060277)
5(-0.002189794791 -0.003471916772 -0.007392355567 -0.009397290658 -0.008763908933)
5(-0.002330938327 -0.003317267346 -0.006624656832 -0.008238371135 -0.00753102497)
5(-0.001776443903 -0.00255563998 -0.005344243043 -0.006617975871 -0.005882301712)
5(-0.0004015712212 -0.001143612396 -0.003580253091 -0.004568742007 -0.003862631402)
5(0.001602766262 0.0008323051845 -0.001293581774 -0.002063221141 -0.001477434628)
5(0.004107422812 0.003323534137 0.0015457911 0.0009155945434 0.001279252348)
5(0.007100908464 0.006341200458 0.00494555634 0.004396383007 0.004483145784)
5(0.01168671534 0.009745614841 0.01001624425 0.01072358071 0.009219187266)
)


60
(
5(7.812304121e-05 0.0001485629567 0.0001886804149 0.0002604995207 0.0003626410839)
5(0.00011410156 0.0001351136563 0.0001699614073 0.0002141069475 0.0002444168332)
5(0.0001490708639 0.0001420109941 0.0001756882785 0.0002108894171 0.0002053534013)
5(0.0001829775702 0.0001671840432 0.0002029701962 0.000239370924 0.0002241919718)
5(0.0002177822237 0.0002051366516 0.0002460540447 0.000292320571 0.0002850241321)
5(0.000257342747 0.0002508614476 0.0002980345969 0.0003581047667 0.0003645204879)
5(0.0003051714322 0.000300906924 0.0003529463492 0.0004172989898 0.0004253476969)
5(0.0003625771924 0.0003548828042 0.0004090322678 0.0004686580003 0.000466439881)
5(0.0004283891173 0.000413771582 0.0004671112785 0.000516052858 0.0004970372056)
5(0.0005002632112 0.0004784583884 0.0005272258088 0.0005621932077 0.0005265883636)
5(0.0005771585208 0.0005488776199 0.00058812894 0.0006031790556 0.0005506969502)
5(0.0006604578857 0.0006242587903 0.0006477426782 0.0006369252723 0.000566424883)
5(0.0007493893514 0.0007029792304 0.0007056657859 0.000662179762 0.0005695970615)
5(0.0008449413854 0.0007843024251 0.000761279109 0.0006791641994 0.0005594336456)
5(0.0009453209008 0.0008683208721 0.0008154012524 0.0006932226499 0.0005469636383)
5(0.001053789405 0.0009572934205 0.0008706433877 0.0007052660508 0.000530042762)
5(0.001172227894 0.001052668141 0.0009296018103 0.000719774803 0.0005134543731)
5(0.001301719904 0.001156347797 0.0009941071707 0.0007405745272 0.0005039104017)
5(0.001443839638 0.001271047021 0.001069314502 0.0007687062174 0.0004970378351)
5(0.001605637732 0.001401373974 0.001156540156 0.0008111404109 0.0005063107263)
5(0.001784684746 0.001548642494 0.001259787663 0.0008669289062 0.0005268827297)
5(0.001984417036 0.001713810227 0.001379579218 0.0009409058229 0.0005658566291)
5(0.002211741093 0.001905816382 0.001522067079 0.001027840584 0.0006114386793)
5(0.002473311976 0.002125466386 0.001685121444 0.001134325566 0.00067602904)
5(0.002754184543 0.00236889488 0.001869049032 0.001258468989 0.0007624451311)
5(0.003075381078 0.002644643612 0.002073200913 0.001388548062 0.0008446004449)
5(0.003418119537 0.002946644814 0.002299500841 0.001526994475 0.000930157359)
5(0.003795475222 0.003274582166 0.002537922093 0.001675366754 0.001028578432)
5(0.004188723022 0.003620305265 0.0027839767 0.001807469506 0.001098873121)
5(0.004604656162 0.003987123084 0.003038024876 0.001945447613 0.00118443548)
5(0.0050375061 0.00436662702 0.003289118195 0.002057612889 0.001232737328)
5(0.005473746387 0.004745984597 0.003531326747 0.002157443428 0.001270456169)
5(0.005907932888 0.005131636764 0.003761639522 0.002210267956 0.001252597507)
5(0.006355447456 0.005512781655 0.003959115999 0.002223633618 0.001199151092)
5(0.006772246651 0.00587010714 0.004128415709 0.002182560292 0.001076256794)
5(0.00718617063 0.006207589224 0.004258620208 0.002088422746 0.0008886128944)
5(0.007551151838 0.006511000859 0.004344276347 0.001939044976 0.0006603871376)
5(0.00786692868 0.006764385769 0.004365660967 0.001708214937 0.0003469507987)
5(0.008152439138 0.00698023235 0.004321518195 0.001377303753 -8.040332076e-05)
5(0.008382189106 0.007142306775 0.004196623761 0.0008631535389 -0.0007645160017)
5(0.008555807709 0.007214611117 0.003958450476 0.0001769863139 -0.0016895138)
5(0.008701903465 0.007238156119 0.003592058342 -0.0007074752782 -0.002824658468)
5(0.008720350071 0.007175689407 0.003055775637 -0.00178417661 -0.004048875751)
5(0.008662219048 0.007048359643 0.002314511321 -0.002979179071 -0.005152880546)
5(0.008500736596 0.006790706758 0.001372773052 -0.004241522752 -0.006147914688)
5(0.008304143357 0.006373527613 0.000267903144 -0.005488942817 -0.007070780053)
5(0.00804142382 0.005768484073 -0.0009336181066 -0.006707023153 -0.008051265766)
5(0.007684212194 0.004927817478 -0.002176791004 -0.007772185994 -0.009019367217)
5(0.007124489607 0.003980095722 -0.003354204205 -0.008692181219 -0.009840252191)
5(0.00606049972 0.002888685133 -0.004351059282 -0.009416330167 -0.01041367122)
5(0.004772175827 0.001804062808 -0.005116283132 -0.009841510965 -0.01061450588)
5(0.003488354254 0.0008299362711 -0.005597553102 -0.009915175169 -0.01046372585)
5(0.002351488819 3.896696771e-05 -0.00578881166 -0.009619090914 -0.009934113391)
5(0.001646766912 -0.0003828665399 -0.005589164292 -0.008892267825 -0.009018707057)
5(0.001363158188 -0.0003738994368 -0.004907647793 -0.007686655591 -0.007668972658)
5(0.001740750661 0.0001941584523 -0.003729730953 -0.005972422036 -0.005837815922)
5(0.002612143299 0.00129800083 -0.001967769012 -0.003789812078 -0.003660227772)
5(0.00422459193 0.003041473694 0.0003352417188 -0.001085598432 -0.0009833248425)
5(0.006546312453 0.005494059746 0.003299643401 0.002211203413 0.002264927062)
5(0.009335714005 0.009116330758 0.008607995772 0.008056503516 0.007793962998)
)


60
(
5(0.0001034692152 0.0001881181533 0.0002546546654 0.0003513617499 0.0004661812605)
5(0.0001465795344 0.0001782636136 0.0002376633756 0.0003099453722 0.0003545116858)
5(0.0001886344896 0.0001912685403 0.0002499369852 0.0003145545486 0.0003231377177)
5(0.0002301397945 0.0002255396415 0.0002875480315 0.0003527992637 0.0003514419529)
5(0.0002742242813 0.0002748256996 0.0003422697625 0.0004173137396 0.0004255150719)
5(0.0003239839147 0.0003319924826 0.0004056878398 0.0004926138243 0.0005138530195)
5(0.0003826859022 0.0003942930777 0.00047166311 0.0005588705862 0.0005803152056)
5(0.0004517128493 0.0004605743947 0.0005380588507 0.0006143840665 0.0006220863717)
5(0.0005282929013 0.0005307118405 0.0006042587644 0.0006632035996 0.0006510204502)
5(0.0006101943551 0.0006060390047 0.0006705079669 0.0007064325614 0.0006737328433)
5(0.0006968220856 0.0006855984758 0.0007342537709 0.0007415954989 0.0006890583219)
5(0.0007874684518 0.0007681238578 0.0007949864271 0.0007662260718 0.000691258553)
5(0.0008825519313 0.0008518155825 0.0008505551794 0.0007802241269 0.0006804171288)
5(0.0009831445356 0.0009359408281 0.0009017442336 0.0007864923156 0.0006582332845)
5(0.001086531909 0.001020809652 0.0009503207607 0.0007879098464 0.0006302655653)
5(0.00119554353 0.001108347995 0.0009994075264 0.0007887596247 0.0005998566564)
5(0.001309979893 0.001201187706 0.001051175779 0.0007924274142 0.0005748987885)
5(0.001438338437 0.001303014471 0.001108102606 0.000802213617 0.0005559125278)
5(0.001577356234 0.001414264657 0.00117735826 0.0008239943402 0.0005444452403)
5(0.001732443223 0.001541215954 0.001260303267 0.000859826968 0.0005490360873)
5(0.001907001438 0.001687573769 0.001361281954 0.0009127993916 0.0005711809741)
5(0.00210147816 0.001853013467 0.001481568851 0.0009842976103 0.0006100062933)
5(0.002331051239 0.002047310155 0.001623915965 0.001076569854 0.000668876849)
5(0.002585459931 0.00226688078 0.001788108998 0.00119198554 0.0007560547119)
5(0.002870173419 0.002517228645 0.001978291781 0.001317143699 0.0008419877056)
5(0.003191123928 0.00280341416 0.002195715027 0.001461010029 0.000946294396)
5(0.003534314999 0.003114212043 0.00243567977 0.001621361863 0.001065473272)
5(0.003909751437 0.003453329194 0.002694425046 0.001787032808 0.001182122476)
5(0.004299160222 0.00381335609 0.002970673355 0.001955113042 0.001296431333)
5(0.00474670127 0.004211143285 0.00325298791 0.00211733171 0.0014042729)
5(0.005194054382 0.004614031738 0.003537608442 0.002271274285 0.001501340781)
5(0.005645952692 0.005026302659 0.003826565656 0.002410776974 0.001575075262)
5(0.006124915038 0.005456681721 0.004106246845 0.002522823172 0.001621601058)
5(0.006601802794 0.005890188308 0.004370069363 0.002594888874 0.001628212844)
5(0.007083974652 0.006313026989 0.004608523392 0.002629417041 0.001583866624)
5(0.007549429428 0.006721129893 0.004814350096 0.002612939601 0.001490009368)
5(0.007974912431 0.007107485232 0.004989339542 0.002548650161 0.001358679273)
5(0.008408235558 0.007477547489 0.005121808261 0.002425955841 0.001155154581)
5(0.00881379896 0.007805210308 0.005189532558 0.002208762958 0.0008350824567)
5(0.009179054382 0.008089523763 0.005200653693 0.001862921171 0.0003245281006)
5(0.009513247892 0.00833286368 0.005133471621 0.001343136415 -0.0004281909435)
5(0.009801970955 0.00853510722 0.004963612416 0.0006278661108 -0.001403249125)
5(0.01005471801 0.00869458482 0.004653043666 -0.0002156404348 -0.00240291657)
5(0.01030261675 0.00882215186 0.004158726976 -0.001193262611 -0.003362292203)
5(0.01048596652 0.008876439716 0.003507090223 -0.002266144897 -0.004279557322)
5(0.01059622552 0.00877423729 0.002707214179 -0.003376945268 -0.005216069836)
5(0.01075839212 0.008538332708 0.001785800188 -0.004461748676 -0.00617682443)
5(0.01075970552 0.008104903345 0.0008180334082 -0.005491290537 -0.007168546725)
5(0.01056595747 0.007526950669 -0.0001220438783 -0.006438496595 -0.008144961568)
5(0.01002879875 0.006834483104 -0.001002681256 -0.007270393892 -0.008895257815)
5(0.009234662712 0.006055118879 -0.001786957979 -0.007937594734 -0.009425698463)
5(0.008351506118 0.005252793932 -0.002456195007 -0.008366230904 -0.009665990047)
5(0.007497787447 0.00448870923 -0.002955981412 -0.008487829933 -0.009584066029)
5(0.006800698493 0.003873767035 -0.003205604092 -0.008216277683 -0.009074511605)
5(0.006242030039 0.00343177708 -0.003115487688 -0.007482152509 -0.008111805521)
5(0.006026801176 0.003346280755 -0.002573776929 -0.006228765801 -0.006644217411)
5(0.006094705863 0.003685740439 -0.001468048717 -0.00446219451 -0.004711516572)
5(0.006709746055 0.00458766281 0.0002797159336 -0.002104891009 -0.00230363432)
5(0.008096169908 0.00638147329 0.002926049584 0.0009293576784 0.0006733928606)
5(0.01085005337 0.009098416167 0.007812299946 0.007386049805 0.006494278679)
)


60
(
5(0.0001310589064 0.0002307197368 0.0003260558821 0.0004466766533 0.0005716221097)
5(0.0001809992346 0.0002248358155 0.0003108074896 0.000410709195 0.0004684758072)
5(0.0002310055214 0.0002451550734 0.0003291077127 0.0004217334938 0.0004445561875)
5(0.0002799015536 0.0002883620172 0.0003756968683 0.0004707847885 0.0004869983212)
5(0.0003317192481 0.0003472433157 0.0004407491005 0.0005434805912 0.0005682303647)
5(0.0003902941398 0.0004148250248 0.0005143106799 0.0006245704583 0.0006598754666)
5(0.0004576145247 0.0004870633368 0.0005891177347 0.0006948033659 0.0007278834112)
5(0.0005371464212 0.0005637478083 0.000662242937 0.0007506560998 0.0007671755211)
5(0.0006229827727 0.0006429116709 0.0007334653843 0.0007973097788 0.000790529358)
5(0.0007140959595 0.0007263996468 0.0008021002065 0.0008357174421 0.0008059378053)
5(0.000806963853 0.0008117361562 0.0008667171941 0.0008631758202 0.0008094257116)
5(0.0009036860263 0.0008985951695 0.0009251899143 0.0008785964188 0.0008003173216)
5(0.001001491616 0.0009837626434 0.0009769810968 0.0008817503586 0.0007755721938)
5(0.001100798665 0.001067091254 0.001022896383 0.0008771444563 0.0007418799891)
5(0.001203939319 0.001150440248 0.001064799338 0.0008671014144 0.0007015453304)
5(0.00131099478 0.001235786798 0.001106218601 0.0008581132685 0.0006643681522)
5(0.001423106417 0.001324670085 0.001149684179 0.0008515555023 0.0006299764003)
5(0.00154194898 0.001419663136 0.001201009036 0.0008542143244 0.0006037878696)
5(0.001672932737 0.001525892802 0.00126309173 0.0008705569826 0.000593783372)
5(0.001821744755 0.001647982295 0.001340275705 0.0009022133703 0.0005980951657)
5(0.001984756871 0.001786315992 0.001436105558 0.0009541684264 0.0006240008503)
5(0.002178184795 0.001951356437 0.001553561102 0.001025464587 0.0006683350496)
5(0.002392664304 0.002140280402 0.001695135008 0.001119828114 0.0007372827126)
5(0.002638989167 0.002360177513 0.001863841264 0.001237392344 0.0008284680185)
5(0.002913929558 0.002610668324 0.002060804808 0.0013793224 0.000944442275)
5(0.003228613037 0.002896622008 0.002284244297 0.001532850339 0.001061843063)
5(0.003568070125 0.003211130912 0.00253519711 0.001707110573 0.001198018626)
5(0.003945194449 0.003560792799 0.002807375813 0.001890502447 0.001342644416)
5(0.004340968709 0.003933966727 0.00310026638 0.00208510013 0.001496632244)
5(0.004779717698 0.004339569469 0.003408086668 0.002279583865 0.001642415637)
5(0.005224088099 0.004760529682 0.003727876526 0.002472825109 0.001786868433)
5(0.005700534001 0.005208287405 0.004051675383 0.002651552017 0.001915794078)
5(0.006198865935 0.00566638271 0.00437070892 0.00281384903 0.002020179704)
5(0.006697285996 0.006131019046 0.004687897971 0.002955123917 0.002099203988)
5(0.007197861239 0.006594809436 0.004991371403 0.003064760882 0.002138536589)
5(0.007691198756 0.007053683028 0.005274825703 0.003131344967 0.002129205829)
5(0.008214075716 0.007525916943 0.005535416925 0.003156960559 0.002080845436)
5(0.008708700819 0.00796555277 0.005756703909 0.003140601784 0.001990200472)
5(0.009211377971 0.008403224531 0.005946497266 0.003046583989 0.001795244539)
5(0.009668934996 0.008814019009 0.006097530758 0.002840542519 0.001445126546)
5(0.01014903707 0.009202954765 0.006186309808 0.002471014277 0.0008262814036)
5(0.01061936263 0.009583370167 0.006194556003 0.001980664397 0.0001195944913)
5(0.01107244719 0.009939947153 0.006094822545 0.001340608307 -0.0007009813637)
5(0.01155368851 0.01030507327 0.005854208815 0.0005972518228 -0.001457455957)
5(0.01200558934 0.01062440378 0.005496177817 -0.0002417212892 -0.002232579995)
5(0.01242215349 0.01084153104 0.005026939115 -0.001104218362 -0.003001406354)
5(0.01288084711 0.01095461834 0.004476327407 -0.001970672025 -0.003865609299)
5(0.01314837009 0.01087505276 0.003871346715 -0.002832346112 -0.004805650227)
5(0.01326898245 0.01071450818 0.003268042636 -0.003672688574 -0.00572142851)
5(0.01313977654 0.01044673909 0.002704396075 -0.004460340042 -0.006575770603)
5(0.01275141672 0.01004306599 0.00212379365 -0.005186720805 -0.007286313655)
5(0.01228414325 0.009619233268 0.001585372824 -0.005782735838 -0.007781894041)
5(0.01190554067 0.009128008855 0.001020734313 -0.006173667635 -0.00803832685)
5(0.01164373989 0.008731535361 0.0005478419329 -0.006322114183 -0.007920581402)
5(0.01136535673 0.008342910092 0.0002954522897 -0.006084232556 -0.007438906238)
5(0.01135102554 0.008160764591 0.0003290502741 -0.005400835417 -0.006489267742)
5(0.01119694064 0.00808444329 0.0008689325497 -0.004095671739 -0.004957262634)
5(0.01156091446 0.008480700099 0.001971737734 -0.002159176099 -0.002861341928)
5(0.01213592066 0.009449837392 0.004099267135 0.0007065035739 -2.177299189e-05)
5(0.0141754741 0.01197215806 0.009015751045 0.007115490802 0.005968321534)
)


60
(
5(0.0001605682287 0.0002763534579 0.0004022790234 0.0005445726081 0.0006767258564)
5(0.0002171916829 0.0002740270935 0.0003890957696 0.000514856513 0.0005823839911)
5(0.0002748702947 0.0003010523727 0.0004125619749 0.0005330331403 0.0005681767815)