/*--------------------------------*- C++ -*----------------------------------*\
| =========                 |                                                 |
| \\      /  F ield         | OpenFOAM: The Open Source CFD Toolbox           |
|  \\    /   O peration     | Version:  2.3.1                                 |
|   \\  /    A nd           | Web:      www.OpenFOAM.org                      |
|    \\/     M anipulation  |                                                 |
\*---------------------------------------------------------------------------*/
FoamFile
{
    version     2.0;
    format      ascii;
    class       dictionary;
    location    "constant";
    object      GRPSI26;
}
// * * * * * * * * * * * * * * * * * * * * * * * * * * * * * * * * * * * * * //

GRPSI26_table
60
(

60
(
5(0.001636576565 0.002744541976 0.003695618081 0.005708552046 0.007164755105)
5(0.002132653394 0.00418860724 0.004713938297 0.006976021064 0.009008087724)
5(0.003225603905 0.003899956289 0.005311012444 0.008055227793 0.01363635209)
5(0.003218040914 0.003907295482 0.005185131677 0.009182423627 0.008980736237)
5(0.003396856965 0.00417539192 0.005601738446 0.008512608912 0.01114716447)
5(0.002933191608 0.004459977007 0.006983127178 0.008856182891 0.01286764081)
5(0.003011535425 0.004688781747 0.007040816985 0.00965483786 0.01187467135)
5(0.003414799227 0.004821939328 0.006731472231 0.009606322754 0.01414711308)
5(0.003093742221 0.00490402843 0.007022256111 0.009701939736 0.01345391019)
5(0.003129826243 0.004982713049 0.006909465722 0.01002703718 0.01349162512)
5(0.003178613019 0.005128950252 0.007125069314 0.01022481889 0.01377574206)
5(0.003489379521 0.005297487576 0.007519301753 0.01047081919 0.01434712825)
5(0.003830790683 0.00544549536 0.007785454496 0.01060108985 0.01452820022)
5(0.003875356848 0.005597119994 0.007974656148 0.01106020945 0.01499084445)
5(0.00407489422 0.005816941759 0.008265128274 0.01124370519 0.01535214793)
5(0.004170607317 0.005971140748 0.008459614451 0.01151991581 0.01567763774)
5(0.004325646707 0.006195170732 0.008727527427 0.01184994362 0.01596188378)
5(0.004513584004 0.006435279052 0.009036352819 0.01214685114 0.01634258588)
5(0.004721059924 0.006687666748 0.009353768485 0.01255855389 0.01678260268)
5(0.004898678607 0.006917471962 0.00964970553 0.01285360594 0.01731658674)
5(0.005137184335 0.007261031486 0.0100958843 0.01335593169 0.01787858739)
5(0.005386852879 0.007604135222 0.01048470232 0.01412284019 0.01868555595)
5(0.005634517898 0.00795569839 0.01096608787 0.014505439 0.01912539422)
5(0.005965181142 0.008318763747 0.01147457729 0.01510315934 0.01986134659)
5(0.00629969763 0.008765136558 0.01200555976 0.0156824703 0.02053512062)
5(0.006692551538 0.009270940002 0.0125537398 0.01629619034 0.02137744211)
5(0.007130064614 0.009869202962 0.01333279743 0.01705142732 0.02225643051)
5(0.007644442187 0.01052425986 0.01404145001 0.0178984097 0.02323129478)
5(0.008168886752 0.01120717309 0.01494695692 0.01890261736 0.02425618876)
5(0.008800114475 0.01194791998 0.0159116847 0.02008168615 0.02544923359)
5(0.009487125969 0.01278347326 0.01685989561 0.02108196292 0.02660089417)
5(0.01029122339 0.01377811931 0.01807297398 0.02251934527 0.02842476136)
5(0.01120820312 0.01481990944 0.01924986045 0.02380756443 0.02919181823)
5(0.01220376037 0.01594289694 0.02045787501 0.02525228565 0.03120015381)
5(0.01331481243 0.01725343103 0.02193559995 0.02670398957 0.03259681707)
5(0.01457360855 0.01852160747 0.02312099419 0.02813962119 0.03396948606)
5(0.0159547336 0.02023156913 0.02529375426 0.0299638315 0.03523381345)
5(0.01748837587 0.0217126416 0.02697707023 0.03134842408 0.0381759116)
5(0.01911074008 0.02345334709 0.02852384813 0.03305027711 0.03780989701)
5(0.02073794533 0.02519001871 0.02995087537 0.03433046165 0.0445454187)
5(0.02263428913 0.02720296022 0.03208543246 0.03589464887 0.04461906045)
5(0.02467961468 0.02911596901 0.03390841769 0.03876565301 0.04442613059)
5(0.02672968328 0.03120544962 0.03578913532 0.0434992464 0.04362517514)
5(0.02870406701 0.03268151573 0.03575247819 0.04344970611 0.04235816758)
5(0.0305895397 0.03444355968 0.03737159418 0.04283924662 0.04128964448)
5(0.03263910647 0.03567213855 0.03897654246 0.04177125835 0.03979724288)
5(0.03436636198 0.03720966425 0.04302602546 0.0403962796 0.03807310332)
5(0.03590927266 0.03944570565 0.04361283721 0.03884867241 0.03621959176)
5(0.03686245948 0.03924374577 0.04231870457 0.03708827829 0.03435608509)
5(0.0374519261 0.04256684829 0.04047235835 0.03519456805 0.03257073236)
5(0.0377803761 0.04095598679 0.03834981892 0.03323858358 0.03086625561)
5(0.03998864389 0.03872321957 0.03605588469 0.03132641748 0.02929119639)
5(0.03918905965 0.03618882606 0.03369964108 0.02945843306 0.02779224035)
5(0.03651602591 0.03348787381 0.03131457323 0.02765553964 0.02641082539)
5(0.03306908331 0.030734434 0.02896300433 0.02598416672 0.02515659427)
5(0.02908499252 0.02791746737 0.02662455012 0.02443891464 0.02405069641)
5(0.02458707214 0.02502511342 0.02430674465 0.02297219429 0.02319062099)
5(0.02032304986 0.02173064486 0.0219172473 0.02162292348 0.02256539758)
5(0.01646442945 0.01822424768 0.01875814515 0.0224367107 0.02227942141)
5(0.01219756454 0.01376162047 0.01244984811 0.01282093788 0.01524098719)
)


60
(
5(0.001604704326 0.002567492498 0.003578730227 0.005411322167 0.006850755471)
5(0.002020691933 0.003487570898 0.004378779509 0.006311401974 0.008260106902)
5(0.002666250189 0.003470039537 0.004830471566 0.007011588978 0.0108982623)
5(0.002719728336 0.003545576452 0.004865492085 0.007682001973 0.008726292425)
5(0.002854885384 0.003735745312 0.005134302474 0.007428474221 0.009874000928)
5(0.002664330415 0.003933448537 0.005884238434 0.007674490692 0.01078163793)
5(0.002744556421 0.004099779627 0.005984098395 0.008145197084 0.01036249039)
5(0.002988597082 0.004220074489 0.00589345444 0.008194412123 0.01159445205)
5(0.00287160352 0.004316885568 0.006104988391 0.008321177343 0.01134580159)
5(0.002931899924 0.004409621858 0.006113237167 0.008558691586 0.01146565663)
5(0.003000151292 0.004536385087 0.006287876632 0.00873459281 0.01169236941)
5(0.003199746658 0.004676676029 0.006550720654 0.008937077589 0.01205992387)
5(0.003417205831 0.004809371547 0.006754080917 0.009083861965 0.01224387065)
5(0.003487921187 0.004946648297 0.006922633353 0.009394315561 0.01257048917)
5(0.00363919483 0.005121195935 0.007146692894 0.00957398185 0.0128518567)
5(0.00374061046 0.005264906665 0.007323126867 0.009804934745 0.01311914518)
5(0.003875428377 0.005446723516 0.007540977961 0.01006722296 0.01337291186)
5(0.004029760368 0.005641574224 0.007784181583 0.01031976931 0.01367818837)
5(0.004198099429 0.005848950481 0.008040324554 0.01063469659 0.01402535954)
5(0.004356687292 0.006049378771 0.008290891285 0.01089978885 0.01442343674)
5(0.004548977974 0.006313567381 0.008623805068 0.01127699074 0.01485499115)
5(0.004756416633 0.006585422193 0.008937158739 0.01179458624 0.01541626784)
5(0.004968182973 0.006870175858 0.009308570453 0.01213853866 0.0158032457)
5(0.005230116566 0.007168651433 0.009703949286 0.01260291441 0.01635910687)
5(0.005500444773 0.007519883222 0.01012522068 0.01306843374 0.01689552189)
5(0.005812769016 0.007912703377 0.01056180954 0.01356561296 0.01752994197)
5(0.006157226811 0.008366039784 0.01113178137 0.01414883995 0.01821102386)
5(0.006552747173 0.008862357444 0.01168737861 0.01480230998 0.01895730508)
5(0.006968315492 0.00938593171 0.01235518006 0.01555220976 0.01974992583)
5(0.007452422585 0.009958544951 0.01307705549 0.01641493988 0.02065673658)
5(0.007979139421 0.01060075191 0.01381183508 0.01720998145 0.02156230769)
5(0.008583111673 0.0113400151 0.01470352723 0.01824885947 0.02283901719)
5(0.009266563671 0.01212561742 0.0156050679 0.01924729354 0.02360739256)
5(0.01001192339 0.01298254904 0.01655098154 0.02035328641 0.02504500775)
5(0.01083683512 0.01395699549 0.01765727094 0.0214953385 0.02619712065)
5(0.01175042008 0.01493987888 0.01865515139 0.02266399659 0.02738371681)
5(0.01277663347 0.01617513002 0.02017998111 0.02407219479 0.02854179889)
5(0.01388544574 0.01733251338 0.0214993498 0.0252932009 0.03056335192)
5(0.01508195466 0.01866262678 0.02278597703 0.02670160449 0.03095263682)
5(0.01630736428 0.02001363267 0.02405331253 0.02793471864 0.03493504021)
5(0.01768704453 0.02155293134 0.02573026121 0.02933874642 0.03562036384)
5(0.01921831141 0.02307112483 0.02726396736 0.03143117759 0.03618236431)
5(0.02074282511 0.02472477465 0.0288559517 0.03447335568 0.03639835553)
5(0.0222744585 0.02611515891 0.02949590335 0.03512092428 0.0362847929)
5(0.02379526757 0.02763426904 0.0309636177 0.03545571329 0.03618849083)
5(0.02543866559 0.0289065786 0.03243032435 0.0354814322 0.03577188035)
5(0.0269309056 0.03032440049 0.03510226612 0.03524566062 0.03509753926)
5(0.02832631397 0.03206606159 0.0359674356 0.03478678129 0.03421530363)
5(0.02940244594 0.0325288884 0.03577236535 0.03407033293 0.03317742572)
5(0.03028460494 0.03470850847 0.03515661464 0.03313642074 0.03205519336)
5(0.03097313709 0.03430488676 0.03423648165 0.03201825945 0.03088740328)
5(0.0325439072 0.03343310158 0.03306129462 0.03077386008 0.0296802451)
5(0.03248699299 0.03221976101 0.03166879663 0.02944633378 0.02846348962)
5(0.03134428087 0.03075000255 0.03011928303 0.02807891651 0.02726628022)
5(0.0296272622 0.02904858221 0.02846114535 0.02670394433 0.02612702378)
5(0.02742734882 0.02717605718 0.02673079608 0.0253549158 0.02505612093)
5(0.02478386114 0.02517392783 0.02494511905 0.0240385323 0.02411509753)
5(0.02210617047 0.02287336928 0.02308019551 0.02278704922 0.02330615158)
5(0.01947331485 0.02041662042 0.02083491119 0.02258983852 0.02264935584)
5(0.01606871316 0.01700479933 0.01658541165 0.01675014666 0.0183485048)
)


60
(
5(0.001560519021 0.002344911523 0.003392707504 0.004962929427 0.006331817437)
5(0.001887204539 0.002727733385 0.003908545449 0.005437050806 0.007209621692)
5(0.002078563704 0.002974772993 0.004218021428 0.005746644936 0.007778848137)
5(0.002190921393 0.003116984503 0.004409777991 0.005949139601 0.00806889181)
5(0.002281047368 0.003226064525 0.004528935909 0.006099276682 0.008192851358)
5(0.002364407747 0.00333186025 0.004639577287 0.006237482033 0.008292417559)
5(0.002445758016 0.003434409128 0.004768340546 0.006371184885 0.008437521839)
5(0.002528362056 0.003536787493 0.004892761486 0.006509918699 0.008613276711)
5(0.002611711704 0.003640208005 0.005018253776 0.006655093516 0.008792443592)
5(0.002693944012 0.003742427282 0.005140950113 0.00679471881 0.008963752168)
5(0.002778650026 0.0038445349 0.005262849073 0.006932950459 0.009116676634)
5(0.002863287639 0.003950681032 0.005384851735 0.007074736422 0.009268685504)
5(0.002951456005 0.004059019662 0.005512849833 0.007221671668 0.00943407315)
5(0.003043452758 0.004171780236 0.00564737822 0.007370385532 0.009600155835)
5(0.00314011112 0.004289608108 0.00578868624 0.007527376099 0.009780982362)
5(0.003240519368 0.004412048588 0.005934363511 0.007691398655 0.009965303545)
5(0.003346119539 0.004540703169 0.006085384507 0.007863237656 0.01015996298)
5(0.003458461928 0.004676030191 0.006244613817 0.008043919057 0.01036692166)
5(0.003577151538 0.004821717741 0.006415580177 0.008237167791 0.01058405018)
5(0.003703368622 0.004974854814 0.006596562514 0.008441556271 0.01081609753)
5(0.003838568232 0.005138290642 0.006791562337 0.008663910448 0.01106988816)
5(0.003985772058 0.005316237772 0.00700142534 0.008899134139 0.01134141412)
5(0.004144929452 0.00550687918 0.007226571152 0.009160086502 0.01163083436)
5(0.004313641367 0.005710869546 0.007468022887 0.00944457268 0.01195060429)
5(0.004500033419 0.005933413397 0.007736579877 0.009746569438 0.01230220515)
5(0.004701156978 0.006177516248 0.008021555936 0.01007207775 0.01267260062)
5(0.004921003505 0.006443394874 0.008334500861 0.01042783377 0.01307709401)
5(0.005160839179 0.006730293734 0.008677072531 0.0108182066 0.01353403498)
5(0.005425273038 0.007044305867 0.009048550211 0.01124453933 0.0140004103)
5(0.005714424874 0.007389394087 0.009456155689 0.01171198617 0.01454638288)
5(0.00602806294 0.007766238611 0.009899741681 0.01222048842 0.01511378973)
5(0.006373941471 0.008178177708 0.0103849813 0.01277481001 0.01575483519)
5(0.006754173187 0.008629541125 0.01092102714 0.01338426762 0.01644146291)
5(0.007166506713 0.009124145835 0.01150514643 0.01405029827 0.01720557298)
5(0.007622091553 0.009663844279 0.01214023905 0.01478086346 0.01802071327)
5(0.00811143165 0.01025480493 0.01283200043 0.01558032857 0.01892125938)
5(0.008649037647 0.01089987679 0.01358691932 0.01645842528 0.01988153052)
5(0.009238005307 0.01160600899 0.01442292082 0.0174034884 0.02089141537)
5(0.009869222686 0.01238210328 0.01533544466 0.01841754812 0.02199365694)
5(0.0105591612 0.01321984433 0.01632903048 0.01951329655 0.02316505841)
5(0.01131604566 0.01414737542 0.01741116099 0.02068434966 0.02445170001)
5(0.0121323747 0.01513735121 0.01855137848 0.02193437939 0.02578089814)
5(0.01300656392 0.01621724658 0.01975923091 0.02325520799 0.02706732266)
5(0.01394134999 0.01738582758 0.02101320619 0.02461041619 0.0282572103)
5(0.01496300026 0.01858999747 0.0223075475 0.02595215258 0.02932488173)
5(0.01604023436 0.01982824343 0.02362925737 0.02720307865 0.03022783696)
5(0.01717157362 0.02107648925 0.02496584359 0.02829735611 0.03088943063)
5(0.01833201275 0.02234541101 0.02621890145 0.02918854782 0.03129370477)
5(0.01948928184 0.02358446888 0.02732899821 0.02983484231 0.0314249144)
5(0.02068304984 0.02475599635 0.02822144349 0.03019817258 0.03128483948)
5(0.02182232911 0.02578443898 0.02881854702 0.03025040272 0.03091723604)
5(0.0229123695 0.02658626954 0.02909210127 0.0300054773 0.03033464752)
5(0.02390756175 0.02707194949 0.02901868252 0.02949192451 0.0296000438)
5(0.02468004295 0.02720347378 0.02862102632 0.0287757866 0.0287249651)
5(0.0251461534 0.02694828722 0.02793703431 0.02787139953 0.02778704502)
5(0.02520148929 0.02636994755 0.0270260907 0.02685513736 0.02681116181)
5(0.02485175286 0.02552296187 0.02594761218 0.02576809613 0.02579536512)
5(0.02407190816 0.02444124551 0.02474973479 0.02462157139 0.02477287394)
5(0.02288734993 0.02317045183 0.02348592903 0.02343418069 0.02373385677)
5(0.02057523182 0.02057995731 0.02148176892 0.0216323551 0.02209324225)
)


60
(
5(0.001540531466 0.00227154259 0.003271455293 0.00470139531 0.00596387562)
5(0.001854241146 0.002634390499 0.003701427768 0.005093519186 0.006691847821)
5(0.002036653977 0.002870904184 0.004002550913 0.005377141916 0.0071464634)
5(0.00214514673 0.003008111148 0.004182638885 0.005559362804 0.007393224426)
5(0.002232804972 0.003111652088 0.004298250424 0.005690212942 0.007512171282)
5(0.002315926956 0.003210307658 0.004397604691 0.005809527467 0.007611011334)
5(0.002394758743 0.003306699827 0.004506858694 0.005928863066 0.007736422424)
5(0.0024730063 0.003400563271 0.004620648617 0.006052687462 0.007883816204)
5(0.002551091851 0.003492987939 0.004732429896 0.006173988958 0.008031796333)
5(0.002628333612 0.003584217615 0.004841043938 0.006292382308 0.008161045799)
5(0.002706484812 0.003676978329 0.004945642045 0.006407101735 0.008287743782)
5(0.002784540462 0.003770264443 0.005051283656 0.006524064564 0.00841344027)
5(0.002864323427 0.003863947794 0.00515953703 0.006641769751 0.008541245933)
5(0.002946264757 0.003961080864 0.005270423047 0.006763839361 0.008676266978)
5(0.003031492047 0.004060884675 0.005384184988 0.006889852059 0.008812574217)
5(0.003119809721 0.004164284833 0.005501950351 0.00701962199 0.008955520609)
5(0.003211354592 0.00427139761 0.005625347009 0.007152140401 0.009104741154)
5(0.003307133043 0.004382893328 0.005754936 0.007289797995 0.009263272533)
5(0.003407601837 0.004499988853 0.005887239051 0.007440664044 0.009427475996)
5(0.003513073843 0.004622758919 0.006029423624 0.007596298238 0.009601702233)
5(0.003626049551 0.004752028697 0.006180386512 0.007763206868 0.009788238291)
5(0.003743794059 0.004889649945 0.006341007066 0.007943366851 0.009985869114)
5(0.003870371927 0.005035841664 0.00650957715 0.008130614871 0.01020222264)
5(0.004004377773 0.0051926537 0.006691199336 0.00833485849 0.01043700153)
5(0.004151878523 0.005360327155 0.006887246318 0.008556050376 0.01068765674)
5(0.004304003254 0.00553860496 0.007099116222 0.008793136085 0.01096253264)
5(0.004472313865 0.005735256573 0.007328068704 0.00905117235 0.01126018562)
5(0.004654274647 0.00594174578 0.007573874718 0.009329873149 0.01159012601)
5(0.004850470507 0.00616695344 0.007842914783 0.009639862828 0.01193892893)
5(0.005055816042 0.006412284408 0.008132047158 0.009973248807 0.01232653392)
5(0.005285449276 0.006676832541 0.008447113974 0.01034155962 0.01275326952)
5(0.005535038961 0.006967605179 0.00879420938 0.01074632902 0.01321912793)
5(0.005798575106 0.007285204957 0.009171682245 0.01119020118 0.01375731632)
5(0.006084151425 0.007623463536 0.009588210184 0.01168146336 0.01433606001)
5(0.006394689527 0.007997839417 0.01004806388 0.01222703904 0.01498563166)
5(0.006741609053 0.008408940286 0.01054962978 0.01283032334 0.01569553088)
5(0.007099380055 0.00885958984 0.01110495872 0.01349714713 0.0164781968)
5(0.007501167293 0.009354869306 0.01172378891 0.01423701449 0.01733118398)
5(0.007929515963 0.00990445162 0.01241528947 0.01505732562 0.01829646367)
5(0.00840400303 0.0105173102 0.01318085516 0.01596994147 0.01937015165)
5(0.008933234994 0.0111935093 0.01402429025 0.01697754095 0.02057202388)
5(0.0094816574 0.01193357224 0.01496020417 0.01808536571 0.02184913981)
5(0.01010199441 0.01275853957 0.01597787789 0.01930953809 0.02321291679)
5(0.01075821234 0.01367723214 0.01708561831 0.02063456392 0.02458470607)
5(0.01148154118 0.01468711196 0.01829110705 0.02202923739 0.02591584536)
5(0.01227516554 0.01576167711 0.01958659551 0.0234486625 0.02717344721)
5(0.01312444121 0.01690358916 0.02096084248 0.02482387254 0.02832164953)
5(0.01405683848 0.01812405107 0.02237566828 0.02611439708 0.02929653543)
5(0.01505603695 0.01942186627 0.02377281563 0.02728109592 0.03005457523)
5(0.01612403244 0.02074796294 0.02508544822 0.02823388041 0.03054920376)
5(0.01728621083 0.0220951618 0.02623130318 0.02892958225 0.0307517971)
5(0.01852139009 0.02338256265 0.02713705765 0.02933108674 0.03069011997)
5(0.01983880381 0.02451393235 0.02776214209 0.02942795468 0.03039823055)
5(0.02115009272 0.02539251997 0.0280582628 0.02923248055 0.0298647328)
5(0.02237704897 0.02597727044 0.02800510891 0.02875936085 0.02916156948)
5(0.02331459509 0.0261903755 0.02762306188 0.0280546044 0.02833191933)
5(0.02390144596 0.02600967597 0.02695775369 0.02717365357 0.02738545222)
5(0.02398491679 0.02545572955 0.02606711414 0.02616117775 0.0263758197)
5(0.0234050257 0.02446450665 0.02498500532 0.02507881949 0.0253335663)
5(0.02149311271 0.02222085196 0.02282550259 0.02306727277 0.02325207608)
)


60
(
5(0.001526929689 0.002222736958 0.00317539437 0.004500075293 0.005664641106)
5(0.001834282401 0.002572497106 0.003570538438 0.004852843878 0.006301691678)
5(0.002012509591 0.002800107352 0.003850745387 0.005110465845 0.006696117331)
5(0.002118281986 0.002933405945 0.004019964915 0.005277327598 0.006908357428)
5(0.002203967513 0.003032853084 0.004130797255 0.00539683261 0.007020778938)
5(0.002284612139 0.003125586191 0.004223622249 0.005502126566 0.007110863333)
5(0.00236088492 0.003214418918 0.004321221294 0.005609472932 0.007219654623)
5(0.002435127178 0.003301833579 0.004423720089 0.005718503736 0.007343837407)
5(0.002509628511 0.003387485556 0.004523106559 0.005823460402 0.007466447093)
5(0.002582230897 0.003471031348 0.004619467305 0.005924201517 0.007578175353)
5(0.002654399499 0.003553784616 0.004711944997 0.006023590351 0.007683012414)
5(0.002726775038 0.00363701502 0.004804800345 0.006123073474 0.00778695894)
5(0.002800354206 0.003720844817 0.004898063701 0.006221459746 0.007888839046)
5(0.002875611816 0.003806065667 0.004993317905 0.00632157758 0.008003597426)
5(0.00295174159 0.003893405341 0.005089759105 0.006425680497 0.008109690891)
5(0.003030196105 0.003982097949 0.005187864543 0.006532111135 0.008227519043)
5(0.003111484579 0.004073638119 0.005289457431 0.006639069864 0.008342537883)
5(0.003195049197 0.004167484734 0.005395329933 0.00675342449 0.008464960509)
5(0.003282394449 0.0042646348 0.005504895844 0.006869358903 0.008597089104)
5(0.003373830036 0.004366460966 0.005619723542 0.006992821494 0.008729255082)
5(0.00346966923 0.004472614094 0.005738445443 0.007120541636 0.008874880631)
5(0.003567122386 0.004582515131 0.005865231265 0.007257591935 0.009028346441)
5(0.003671955972 0.004699708596 0.005998115642 0.007400237369 0.009193670168)
5(0.003784609401 0.004823351769 0.006141106146 0.007552867192 0.00937038489)
5(0.003900897854 0.0049538329 0.006289362377 0.007718194425 0.009553160805)
5(0.004025068467 0.005090160704 0.006446877591 0.007895664654 0.009757780092)
5(0.004156823048 0.005236567615 0.006616371465 0.008085250372 0.009981504075)
5(0.004299326005 0.005393384447 0.00679963553 0.008289379705 0.01021188757)
5(0.004450149806 0.005560932874 0.006996296151 0.008514524601 0.0104904125)
5(0.004608537728 0.005741215263 0.007206815906 0.008757910605 0.01076924889)
5(0.004783438931 0.005933119225 0.007436423448 0.009024685742 0.01109441379)
5(0.004964992802 0.006140384275 0.007691395326 0.009319306972 0.0114421277)
5(0.005159319452 0.006367592665 0.007960483887 0.009645013699 0.01184169329)
5(0.005372093328 0.006611508927 0.008257953645 0.01000797017 0.01228021647)
5(0.005594514888 0.00687516893 0.008586447746 0.01041043992 0.01278955567)
5(0.005842655465 0.007162905302 0.008952881839 0.0108565212 0.01334136215)
5(0.006098103057 0.007482849397 0.009364676183 0.01136019496 0.01396358722)
5(0.006378230371 0.007837757471 0.009817319014 0.01193098087 0.01467428934)
5(0.006679366577 0.00823224221 0.0103272189 0.01257662521 0.0154661279)
5(0.007011367766 0.008669272506 0.01090338811 0.01330458654 0.01640601676)
5(0.007355298577 0.009153713286 0.01155433496 0.01413193846 0.01742822283)
5(0.007743733748 0.009695031481 0.01229325793 0.01507142883 0.01861677073)
5(0.008144144142 0.01030539587 0.01312197497 0.01613588594 0.01990006732)
5(0.008578195806 0.01099589497 0.01405406687 0.01733766628 0.02127439774)
5(0.009033148338 0.01176138854 0.0150959716 0.01866103772 0.02267230813)
5(0.009549592726 0.01260805467 0.01626658712 0.02007825573 0.0241114414)
5(0.01009217419 0.01353517596 0.01755063721 0.02154981496 0.02554283018)
5(0.01074824268 0.01453308832 0.01894558013 0.02302615424 0.0268856003)
5(0.01147463069 0.0156265864 0.02041792643 0.02447811702 0.02811627874)
5(0.01224602815 0.01683703194 0.02190333221 0.02585518022 0.02915930383)
5(0.01320365319 0.01817286576 0.02337311471 0.02708252771 0.0299470211)
5(0.01426510373 0.01956829227 0.02476151178 0.02808853158 0.03047024383)
5(0.01547703831 0.0210228356 0.02598653134 0.02883497737 0.03070084964)
5(0.01678949367 0.02242108871 0.02699990013 0.02925687881 0.03063775856)
5(0.01823253719 0.02369699741 0.02770340288 0.0293648411 0.03030961953)
5(0.01959938054 0.02474035564 0.02805415979 0.02915071186 0.02974109607)
5(0.02088698925 0.02538836912 0.02796924753 0.02864921968 0.02900157934)
5(0.02179975615 0.02562837141 0.02751924349 0.02793389252 0.02814601269)
5(0.02212815393 0.02517083845 0.02659980536 0.02699956524 0.02719736907)
5(0.02030717287 0.02307631404 0.02428811834 0.02471096145 0.0251391127)
)


60
(
5(0.001515814493 0.002184197319 0.00309311307 0.004331866482 0.00540760339)
5(0.001818575761 0.002522059556 0.003462430838 0.004655404072 0.005977326841)
5(0.001993709048 0.002741625419 0.003725546409 0.004892292023 0.00632868894)
5(0.002097040285 0.002872232581 0.003887338779 0.005047678659 0.006519988437)
5(0.00218122018 0.002968374545 0.003992386455 0.00515800102 0.006620245286)
5(0.002259634176 0.00305584345 0.004079533917 0.005254531883 0.006701098107)
5(0.002333716215 0.003139977425 0.004168942489 0.005350112035 0.006801309096)
5(0.002405240669 0.003221587838 0.004262640471 0.005446145754 0.006905301318)
5(0.002476369307 0.003300995549 0.004352895564 0.005539493023 0.007012775314)
5(0.002545542848 0.003379298716 0.004439886426 0.005628952123 0.00710867395)
5(0.002613700136 0.003454715829 0.004522294878 0.005714593295 0.007197876445)
5(0.002681263236 0.003530982033 0.004604650561 0.005798784999 0.007284394948)
5(0.002750231949 0.003606950614 0.004685762648 0.00588382065 0.007373201977)
5(0.002820538026 0.003683427454 0.004769791296 0.005969186362 0.007462405658)
5(0.002890881905 0.003760537635 0.004853772452 0.006055891227 0.007556539065)
5(0.002962825086 0.003839036626 0.004940479569 0.006143888554 0.007651988567)
5(0.003036032659 0.003919041869 0.005025674983 0.006233770773 0.007745868369)
5(0.003112267297 0.004000920768 0.00511336237 0.006328698341 0.007845815189)
5(0.003190846713 0.004084951496 0.005205723083 0.006420341818 0.007947595194)
5(0.003271349152 0.004171961435 0.005299855352 0.006518874606 0.008056048337)
5(0.003355420104 0.00426226033 0.005397671815 0.006620482465 0.008166162341)
5(0.003442743712 0.004354127706 0.005499432066 0.006725983083 0.008285897846)
5(0.003534536391 0.004451242276 0.005606936213 0.00683940097 0.008410960356)
5(0.003632078351 0.004551892508 0.005718107383 0.00695797523 0.008539941084)
5(0.00372848529 0.004657155376 0.005834045812 0.007082805738 0.00868006306)
5(0.00383695268 0.00476954167 0.005957844657 0.007213533679 0.008837968989)
5(0.003948727963 0.004885023466 0.006088296151 0.007354475398 0.008994407687)
5(0.00406958532 0.005008947444 0.006226958724 0.007507164536 0.00916782646)
5(0.004185976205 0.005141462613 0.006373611792 0.007669277539 0.009366789262)
5(0.004320740864 0.005280521303 0.006530572295 0.007846520342 0.009573432823)
5(0.004454431821 0.005425955017 0.006699830262 0.008038994135 0.009818591172)
5(0.004606188481 0.005582556041 0.00688489452 0.008251555737 0.01008453782)
5(0.004760556192 0.005750906708 0.007084361661 0.008484822401 0.01036857642)
5(0.004926356539 0.005933806729 0.007298435422 0.008747663297 0.01069521896)
5(0.005107541956 0.006129191188 0.007537411594 0.009043106047 0.01108177127)
5(0.005296085423 0.006340904904 0.00779992136 0.009375114262 0.01151158382)
5(0.005490890826 0.006577098542 0.008097691808 0.009751768602 0.01199639638)
5(0.005704131268 0.006833389463 0.008431489561 0.01017903173 0.01255004135)
5(0.005923280275 0.007113681604 0.008809066478 0.01066720366 0.0131883918)
5(0.00614608163 0.007427264919 0.009240614807 0.01122671044 0.01394046088)
5(0.006385664194 0.007774043301 0.009728677067 0.01187890999 0.01481427479)
5(0.006623818749 0.008160612651 0.01028792679 0.0126354822 0.01582284874)
5(0.006858272796 0.008586846179 0.01093354364 0.01351830505 0.01695942261)
5(0.007113935915 0.009056839821 0.01166327557 0.01453667183 0.01821138896)
5(0.007371922739 0.009578423115 0.01249112655 0.01569791021 0.01958241841)
5(0.007635146155 0.01014535963 0.01342648403 0.01699431775 0.02105363425)
5(0.007963654471 0.01075559646 0.01448779143 0.01840289929 0.02257198124)
5(0.008333107412 0.01144603913 0.01567454147 0.01989917256 0.02410903337)
5(0.008777243348 0.01223230273 0.01696609188 0.02145319546 0.02562639964)
5(0.009279773036 0.01314492227 0.01833879524 0.0230343254 0.02708861677)
5(0.00991219587 0.01420528569 0.01978727788 0.02459524043 0.02839881211)
5(0.01063702964 0.01538492727 0.02129057626 0.02607666207 0.02952099273)
5(0.01148748369 0.01667207136 0.02279709767 0.02740301917 0.03035234202)
5(0.01247064043 0.01803547463 0.02428294883 0.02851484181 0.03091231525)
5(0.01357062395 0.01943310896 0.02562179443 0.02933570937 0.03113914124)
5(0.01482989596 0.02084792213 0.0267310479 0.02982290363 0.03105681545)
5(0.0160543511 0.02209717119 0.02749604125 0.02992611168 0.03073628)
5(0.01720544256 0.02303353041 0.02772344487 0.02963930443 0.03017465195)
5(0.01801076444 0.02328523564 0.02717002542 0.02888463672 0.02941592762)
5(0.01610597866 0.02059933298 0.02375104426 0.02615641562 0.02706453848)
)


60
(
5(0.001505970107 0.002150518785 0.003020008752 0.004186405344 0.005181646758)
5(0.001804783692 0.002478522197 0.003369421469 0.004485847001 0.005702011967)
5(0.001977393987 0.002692676945 0.003618647068 0.004706007067 0.006018877675)
5(0.002079262077 0.002819299053 0.003773894271 0.004851198357 0.006192531121)
5(0.002162077514 0.002911874979 0.003873965746 0.004954548911 0.006284708418)
5(0.002239033545 0.002997384234 0.003955629719 0.005043017465 0.006358652716)
5(0.00231065797 0.003077525868 0.004040911917 0.005131049354 0.006447165645)
5(0.002380778823 0.003154581963 0.004126801113 0.005217436707 0.006541870213)
5(0.002449096726 0.00322962434 0.004211233099 0.005301951262 0.006635744992)
5(0.002516233855 0.0033021013 0.004289486531 0.0053811797 0.006720423999)
5(0.002581435822 0.003373923852 0.004366347439 0.005458315622 0.006797089176)
5(0.002647071994 0.003444184401 0.004439550571 0.005531950025 0.006873117086)
5(0.002711867112 0.003514683425 0.00451420249 0.005606215744 0.006947702076)
5(0.00277759698 0.003585233207 0.00458772509 0.00567959364 0.007024146125)
5(0.002844086123 0.00365622834 0.004662914879 0.005754515191 0.007100961804)
5(0.002912224978 0.00372753117 0.004737775298 0.005829000441 0.007178601847)
5(0.002982040877 0.003799932281 0.004814585184 0.005905537733 0.007257396871)
5(0.00305244475 0.003874066372 0.004891814983 0.00598158054 0.007341073152)
5(0.003125836576 0.003949968263 0.004970658293 0.006060546318 0.007421027132)
5(0.003199923559 0.004026945817 0.005051182408 0.006139992891 0.007508076203)
5(0.003275546728 0.004106970611 0.00513487637 0.006223070221 0.007590825477)
5(0.003356955903 0.004187599489 0.00521969605 0.006308421442 0.007685652308)
5(0.003441467664 0.004272184098 0.00530944992 0.00639849112 0.007779918817)
5(0.003529034548 0.004360270334 0.005401949998 0.00649040699 0.007880313572)
5(0.003619209562 0.004451297524 0.005496888349 0.006586658842 0.007980513978)
5(0.003718255817 0.004547998016 0.005597919454 0.006686861401 0.008091723421)
5(0.003818043385 0.004648317481 0.005702002618 0.006791439789 0.008214070632)