/*--------------------------------*- C++ -*----------------------------------*\
| =========                 |                                                 |
| \\      /  F ield         | OpenFOAM: The Open Source CFD Toolbox           |
|  \\    /   O peration     | Version:  2.3.1                                 |
|   \\  /    A nd           | Web:      www.OpenFOAM.org                      |
|    \\/     M anipulation  |                                                 |
\*---------------------------------------------------------------------------*/
FoamFile
{
    version     2.0;
    format      ascii;
    class       dictionary;
    location    "constant";
    object      GRPSI3;
}
// * * * * * * * * * * * * * * * * * * * * * * * * * * * * * * * * * * * * * //

GRPSI3_table
60
(

60
(
5(0.01441660774 0.003727225266 0.02120056032 0.01277817266 0.02821127021)
5(0.01072958089 0.002707202664 0.01540073291 0.009339411232 0.02058731686)
5(0.004452398948 0.000996045198 0.005698655817 0.003576328688 0.007767860316)
5(0.0003689605224 -5.73367925e-05 -0.0002082658239 4.21267685e-05 -0.0001946959311)
5(-0.001520734384 -0.0004538658369 -0.002333287074 -0.001270680064 -0.003302358784)
5(-0.001374858591 -0.0003213475252 -0.001545743108 -0.0008662114628 -0.002362058095)
5(-0.0003157154815 -4.17553752e-05 -6.48172252e-05 -3.951647935e-05 -0.0002111908944)
5(0.0003296942667 9.9265283e-05 0.0006248610614 0.0003388643178 0.0008030760745)
5(0.0003181190888 8.533212325e-05 0.0005222857015 0.0002638964907 0.0006186090537)
5(6.233505135e-05 4.8540392e-06 0.0001195618603 2.475245065e-05 5.421301175e-05)
5(-0.000100683391 -4.37083273e-05 -0.0001403397537 -0.0001105975425 -0.0002468205568)
5(-0.0001283614576 -4.193671245e-05 -0.0001884147926 -0.0001115286857 -0.0002342411728)
5(-6.35160506e-05 -1.88895146e-05 -9.594735275e-05 -5.42312154e-05 -8.164971785e-05)
5(1.86284795e-06 -3.62579945e-06 -9.64650515e-06 -1.48299458e-05 1.412812715e-05)
5(1.679458895e-05 -7.607325001e-07 -1.79605525e-06 -6.9151305e-06 1.34946549e-05)
5(1.29497195e-06 -4.67119765e-06 -3.02880182e-05 -2.028296695e-05 -3.125874815e-05)
5(-1.38184479e-05 -9.8955576e-06 -4.990702535e-05 -4.34791157e-05 -6.77922792e-05)
5(-1.828615135e-05 -1.54037589e-05 -5.29461267e-05 -7.25140999e-05 -8.661355375e-05)
5(-1.43557677e-05 -2.11605544e-05 -4.69445823e-05 -9.6169933e-05 -9.554462915e-05)
5(-7.42062105e-06 -2.59015588e-05 -4.140523965e-05 -9.905001245e-05 -0.0001043527353)
5(-8.302333498e-07 -2.703129415e-05 -3.93465119e-05 -7.85348371e-05 -0.000116190419)
5(5.1883916e-06 -2.49927538e-05 -4.19278564e-05 -5.723163485e-05 -0.0001333302468)
5(1.063525375e-05 -2.288405445e-05 -5.0700106e-05 -6.386556065e-05 -0.0001589313276)
5(1.548711355e-05 -2.20350754e-05 -6.60107376e-05 -0.0001060714938 -0.0001940998101)
5(1.963181825e-05 -2.271375625e-05 -8.515209215e-05 -0.0001668301972 -0.0002385392276)
5(2.29591936e-05 -2.53103855e-05 -0.000103720853 -0.0002191671528 -0.0002917553691)
5(2.545761155e-05 -3.00495661e-05 -0.0001200731098 -0.0002522125744 -0.0003535560504)
5(2.724911725e-05 -3.802661615e-05 -0.0001385310639 -0.0002773005645 -0.0004247730325)
5(2.851885315e-05 -5.11707403e-05 -0.0001663603923 -0.0003164929472 -0.0005073093674)
5(2.927704295e-05 -7.041743955e-05 -0.0002068014812 -0.0003810412861 -0.0006020985088)
5(2.864783845e-05 -9.619780715e-05 -0.0002594314561 -0.0004660041421 -0.0007026678012)
5(2.525654665e-05 -0.0001293913823 -0.0003231285514 -0.0005606753016 -0.0007957216518)
5(1.837502425e-05 -0.0001705239681 -0.0003972413512 -0.0006593337833 -0.0008743973002)
5(5.65377705e-06 -0.0002200139414 -0.000482666324 -0.0007640023562 -0.0009591200678)
5(-1.620181565e-05 -0.0002788457307 -0.0005816311467 -0.0008802807135 -0.001097749756)
5(-4.81205091e-05 -0.0003476830008 -0.0006955135488 -0.001011764651 -0.001319205316)
5(-9.05476265e-05 -0.0004282485661 -0.0008214437287 -0.00115536128 -0.001555041343)
5(-0.000145443859 -0.0005259535953 -0.000951202398 -0.001301623792 -0.00160078397)
5(-0.0002143162347 -0.0006450584979 -0.00107898964 -0.001443735633 -0.001306579715)
5(-0.0002997761465 -0.0007834184756 -0.001215139947 -0.001552734827 -0.0007457899631)
5(-0.0004106018384 -0.000930603319 -0.001397075543 -0.00152481094 -0.0002458286776)
5(-0.0005541535096 -0.001077424157 -0.001655355032 -0.001271923617 -8.54191799e-05)
5(-0.0007299437276 -0.001229939196 -0.001957680462 -0.000835986281 -0.000273042114)
5(-0.0009310395513 -0.001426582879 -0.002133094334 -0.0004632015215 -0.0006342812408)
5(-0.001150791939 -0.001706333834 -0.002015693281 -0.0003876179907 -0.0009853858697)
5(-0.001388047392 -0.002050985606 -0.001622743164 -0.0006283330098 -0.001299222105)
5(-0.001643204761 -0.002287436742 -0.001214460177 -0.001051763186 -0.001667812664)
5(-0.001916693672 -0.002217702631 -0.001060316932 -0.001514583429 -0.002197672487)
5(-0.00219373026 -0.001829877996 -0.00120634267 -0.001990481446 -0.002914355217)
5(-0.002366468517 -0.001403270394 -0.001569534805 -0.00253187116 -0.003797389335)
5(-0.002306121251 -0.001268740856 -0.002051838168 -0.003204069571 -0.004821154109)
5(-0.001991988008 -0.001504400261 -0.002626710658 -0.004028793693 -0.005984436308)
5(-0.001581666422 -0.001984915031 -0.003297839647 -0.005027751166 -0.007351322989)
5(-0.001295540268 -0.002539075222 -0.004070966636 -0.006230725089 -0.009009599001)
5(-0.001212237326 -0.00310786165 -0.004948424213 -0.00764811892 -0.01098968776)
5(-0.001332037891 -0.003690775632 -0.005930253617 -0.009280026668 -0.01329185346)
5(-0.001655465958 -0.004287576759 -0.00701645485 -0.01112644833 -0.01591609609)
5(-0.002184004558 -0.004898986258 -0.008206762981 -0.01318738391 -0.01886241567)
5(-0.002917853402 -0.005524523312 -0.009501972799 -0.01546283341 -0.02213081218)
5(-0.003336024906 -0.005840463114 -0.01017606806 -0.01665418664 -0.02384552967)
)


60
(
5(0.009566960984 -0.001053190518 0.01750917805 0.01001238674 0.02485379296)
5(0.006915412188 -0.001052243861 0.01224949423 0.006940520156 0.01777626959)
5(0.002259360866 -0.001152084719 0.003526378994 0.001835691747 0.005881966605)
5(-0.001072944206 -0.001443044024 -0.001683334131 -0.001241077063 -0.001490752753)
5(-0.002738653996 -0.001630911474 -0.003431738957 -0.002317575945 -0.004312743548)
5(-0.002467874259 -0.001391155885 -0.002505940991 -0.001803386748 -0.003270871156)
5(-0.001301569108 -0.001001838862 -0.0009832700859 -0.0009052801211 -0.001067816411)
5(-0.0005856862625 -0.0007851996859 -0.0002310701245 -0.0004633914555 1.0587597e-06)
5(-0.000534336653 -0.0007337142416 -0.0002631485899 -0.0004825062721 -0.0001232229178)
5(-0.000728476978 -0.0007600156949 -0.0006117166614 -0.0006730523105 -0.0006315943091)
5(-0.0008404104266 -0.0007607850948 -0.0008279101309 -0.0007651294985 -0.0008878295699)
5(-0.0008263984652 -0.0007189227719 -0.0008377147543 -0.0007305430311 -0.0008410598025)
5(-0.0007261464952 -0.0006618387455 -0.0007122025579 -0.0006440847413 -0.0006609010515)
5(-0.0006295260033 -0.0006150648463 -0.0005983231888 -0.0005779182768 -0.0005397166125)
5(-0.0005859143897 -0.000584779966 -0.0005650376185 -0.0005447865107 -0.000515897334)
5(-0.0005749754836 -0.0005635690268 -0.0005698935 -0.0005368907849 -0.0005379401997)
5(-0.0005660157573 -0.0005457201252 -0.0005669767969 -0.0005389651694 -0.0005539313926)
5(-0.0005486013053 -0.000529941298 -0.0005499356985 -0.0005484206705 -0.0005540269604)
5(-0.0005246478553 -0.0005160881917 -0.0005255706457 -0.0005549548174 -0.0005457413287)
5(-0.0004992415826 -0.0005031803209 -0.0005034288289 -0.0005411241536 -0.0005385729953)
5(-0.0004754849502 -0.0004875596766 -0.0004856072853 -0.0005063612091 -0.0005354599431)
5(-0.0004534385787 -0.0004695850456 -0.0004727274588 -0.0004717777095 -0.0005384909016)
5(-0.0004329713141 -0.0004526322343 -0.0004682647969 -0.0004632546824 -0.0005506638873)
5(-0.0004139943921 -0.0004371623894 -0.0004693458267 -0.000491001794 -0.0005729882287)
5(-0.0003965254807 -0.0004250368174 -0.0004759425912 -0.0005394529142 -0.0006050936193)
5(-0.0003805763619 -0.000416610109 -0.0004830748021 -0.0005817909534 -0.0006463864968)
5(-0.0003660864665 -0.0004104409289 -0.0004870191974 -0.0006052463542 -0.0006966808166)
5(-0.0003528878612 -0.0004079647119 -0.0004951737018 -0.0006196595713 -0.0007567836329)
5(-0.0003407135936 -0.0004098320886 -0.0005121183989 -0.0006481758445 -0.0008282253364)
5(-0.0003294734832 -0.0004187376855 -0.0005423054347 -0.0007025371774 -0.0009116377695)
5(-0.0003200291329 -0.0004349009512 -0.0005848129202 -0.000777266308 -0.001001280119)
5(-0.000313507719 -0.0004583110784 -0.0006386931065 -0.000862116323 -0.001084988419)
5(-0.0003103902563 -0.0004892264132 -0.0007024600125 -0.0009513550692 -0.001155464848)
5(-0.000314090357 -0.0005300394223 -0.0007775501324 -0.001046218836 -0.001231467365)
5(-0.0003283201009 -0.0005794023446 -0.0008659591414 -0.001151862852 -0.00136001965)
5(-0.0003521491944 -0.0006381088744 -0.0009688057719 -0.001274418932 -0.001570239732)
5(-0.0003856248976 -0.0007116375381 -0.001089528712 -0.001410205886 -0.00179495118)
5(-0.0004316354875 -0.0007987863428 -0.001211901425 -0.001544811615 -0.001832912538)
5(-0.0004915902253 -0.0009076061145 -0.001327295022 -0.001677209964 -0.001536773772)
5(-0.0005679094905 -0.001037261507 -0.001452330158 -0.001778597368 -0.0009788083974)
5(-0.0006691777289 -0.00117275813 -0.00162435469 -0.001747432733 -0.0004806968841)
5(-0.0008022279867 -0.001312121416 -0.001873442368 -0.001497159337 -0.0003157963766)
5(-0.0009673231171 -0.001456707507 -0.002164693944 -0.001053402618 -0.0004927398696)
5(-0.001159017182 -0.001641227681 -0.002329660777 -0.0006695970692 -0.000841485199)
5(-0.001369216262 -0.001905782087 -0.002210583007 -0.0005900304115 -0.001181507469)
5(-0.001595177721 -0.002238973374 -0.001820049861 -0.0008247925464 -0.001484473115)
5(-0.001838337945 -0.002472417124 -0.001402187249 -0.001237426247 -0.001840084663)
5(-0.002099613112 -0.002398387015 -0.00123508375 -0.001685807566 -0.002353736166)
5(-0.002364024489 -0.002003975224 -0.001373766862 -0.002145114536 -0.003050978689)
5(-0.002525316632 -0.001564643423 -0.001726691225 -0.002670112245 -0.003911687363)
5(-0.002457100411 -0.0014196882 -0.002193109948 -0.003325090896 -0.004910516472)
5(-0.002139235818 -0.001650747841 -0.002751017541 -0.004128234786 -0.006045862915)
5(-0.001726410468 -0.002115507195 -0.003404044659 -0.005100670805 -0.007380628192)
5(-0.00143548768 -0.002651434633 -0.004154892113 -0.006273714716 -0.009001775063)
5(-0.001343307377 -0.003201535388 -0.005005676629 -0.007656991197 -0.0109392873)
5(-0.00144845607 -0.003760888324 -0.005956527385 -0.009248880126 -0.01319166817)
5(-0.001751506648 -0.004333994642 -0.007009180365 -0.01104835864 -0.01575734284)
5(-0.00225317311 -0.004913663135 -0.008160271284 -0.01305723378 -0.01863600625)
5(-0.002948670545 -0.005508802847 -0.009416482326 -0.01527467857 -0.02182758143)
5(-0.00334396828 -0.005813617415 -0.01007313468 -0.01643447783 -0.02350159383)
)


60
(
5(0.004717314226 -0.005842159959 0.01382412156 0.007234227385 0.02149631571)
5(0.003101243485 -0.004811778805 0.009108156214 0.004545857959 0.01496522231)
5(6.63227839e-05 -0.003295088222 0.001352045532 0.0001051431183 0.003996072895)
5(-0.002514848935 -0.002827004784 -0.003162708968 -0.002525687003 -0.002786809575)
5(-0.003956573607 -0.002808639204 -0.004526075045 -0.003367988349 -0.005323128312)
5(-0.003560889926 -0.002461763158 -0.003475362711 -0.002742833105 -0.004179684217)
5(-0.002287422734 -0.001961377049 -0.001906145666 -0.001770323091 -0.001924441927)
5(-0.001501066792 -0.001671640236 -0.001084769393 -0.001267821602 -0.0008009585551)
5(-0.001386792395 -0.001553286122 -0.001049180309 -0.001229528017 -0.0008650548893)
5(-0.001519289007 -0.001522820633 -0.001341758178 -0.001368608693 -0.00131740163)
5(-0.001580137462 -0.001478304858 -0.00151418155 -0.00141978796 -0.001528838583)
5(-0.001524435473 -0.001396245338 -0.001486178221 -0.001350570517 -0.001447878432)
5(-0.00138877694 -0.001303641631 -0.001329231016 -0.001232971412 -0.001240152385)
5(-0.001260914854 -0.001227066235 -0.00118766623 -0.001140380658 -0.001093561352)
5(-0.001188623369 -0.001168892602 -0.001128674074 -0.001084371417 -0.001045289323)
5(-0.001151245939 -0.00112220349 -0.001108745808 -0.001052683903 -0.001044621651)
5(-0.001118213067 -0.001081346474 -0.001083827188 -0.001033698703 -0.001040070506)
5(-0.001078916459 -0.001044334441 -0.001046554458 -0.001025064141 -0.001021440367)
5(-0.001034939943 -0.00101144464 -0.001004492951 -0.001012910662 -0.0009959380282)
5(-0.0009910625442 -0.0009799468742 -0.0009650438657 -0.0009829837253 -0.0009727932553)
5(-0.0009501396671 -0.0009471933855 -0.0009317664018 -0.0009352074909 -0.0009547294672)
5(-0.000912065549 -0.0009145172586 -0.0009042269771 -0.000885247417 -0.0009436515565)
5(-0.0008765778819 -0.0008819914281 -0.0008839245466 -0.0008625280918 -0.000942396447)
5(-0.0008434758979 -0.0008519377861 -0.0008731462928 -0.0008760558536 -0.0009518766474)
5(-0.0008126827797 -0.0008266932839 -0.0008667268814 -0.0009119884305 -0.000971648011)
5(-0.0007841119175 -0.0008090237223 -0.000863088884 -0.0009452730501 -0.001001017624)
5(-0.0007576305445 -0.0007909006339 -0.0008542073514 -0.0009567629624 -0.001039805583)
5(-0.0007330248397 -0.0007763275748 -0.0008499006028 -0.0009627654655 -0.001088794233)
5(-0.0007099460404 -0.0007698249311 -0.0008594171917 -0.0009805712596 -0.001149141305)
5(-0.0006882240093 -0.000765491099 -0.0008765139506 -0.001022412704 -0.00122117703)
5(-0.0006687061043 -0.00077245114 -0.0009103333168 -0.001089429698 -0.001299892437)
5(-0.0006522719847 -0.0007895504937 -0.0009529381924 -0.001164598639 -0.001374255186)
5(-0.0006391555369 -0.0008067974937 -0.001005595612 -0.001241034693 -0.001436532395)
5(-0.0006338344912 -0.0008377230595 -0.0010751661 -0.001325328556 -0.001503814661)
5(-0.0006404383862 -0.0008808404632 -0.001149138105 -0.001424587784 -0.001622289544)
5(-0.0006561778797 -0.0009288433867 -0.001243391012 -0.001537608385 -0.001821274147)
5(-0.0006807021687 -0.0009905894346 -0.001356262938 -0.001660753525 -0.002034861016)
5(-0.000717827116 -0.001070486001 -0.001464312667 -0.001785859762 -0.002065041106)
5(-0.000768864216 -0.001173207876 -0.001575001868 -0.001909377747 -0.001766967828)
5(-0.0008360428346 -0.00128715787 -0.001693359352 -0.00200421959 -0.001211826832)
5(-0.0009277536194 -0.001413275229 -0.001851490973 -0.001962909245 -0.0007155650907)
5(-0.001050302464 -0.001544239415 -0.002085475754 -0.00170281339 -0.0005461735733)
5(-0.001204702507 -0.001678512619 -0.002363619614 -0.001268704336 -0.0007124376251)
5(-0.001386994812 -0.001854032436 -0.002523142475 -0.0008918048005 -0.001048689157)
5(-0.001587640585 -0.002109618909 -0.0023976531 -0.0008056791985 -0.001377629069)
5(-0.00180230805 -0.002430767918 -0.002003935151 -0.001031273612 -0.001669724125)
5(-0.00203347113 -0.002646428043 -0.001593566906 -0.001427207513 -0.002012356661)
5(-0.002282532551 -0.00256076438 -0.00142984458 -0.001857686663 -0.002509799845)
5(-0.002534318719 -0.002167117892 -0.001556485572 -0.002302282555 -0.00318760216)
5(-0.002684164747 -0.001739974542 -0.00189080345 -0.00280959957 -0.004025985391)
5(-0.002608079571 -0.001595702358 -0.002340146375 -0.003443818528 -0.004999878835)
5(-0.002286483627 -0.001807799592 -0.002876248197 -0.004225873322 -0.006107289521)
5(-0.001871154514 -0.002251998929 -0.003508374663 -0.005173056515 -0.007409933396)
5(-0.001575435092 -0.00276451586 -0.004237930942 -0.006315571244 -0.008993951125)
5(-0.001474302273 -0.00329173266 -0.005060793258 -0.00766474673 -0.01088888685)
5(-0.001564136217 -0.003831842238 -0.00598195233 -0.009217107673 -0.01309148288)
5(-0.001846082704 -0.004379317087 -0.007001224401 -0.01097247741 -0.01559858959)
5(-0.00232156973 -0.004935370322 -0.008117518184 -0.01292727706 -0.01840959683)
5(-0.002981027476 -0.005494727061 -0.009332550936 -0.01508471401 -0.02152435069)
5(-0.003354931577 -0.005773705383 -0.009964909571 -0.01621601675 -0.02315765799)
)


60
(
5(-0.000132332533 -0.01063252593 0.01011150027 0.004446082417 0.01813883846)
5(-0.0007129252179 -0.00857148529 0.005964427192 0.002149473989 0.01215417503)
5(-0.002126715298 -0.005437204187 -0.0008079191834 -0.001621957685 0.002110179185)
5(-0.003956753664 -0.004211048808 -0.00464107542 -0.003809111014 -0.004082866397)
5(-0.005174493218 -0.003986515661 -0.005621722516 -0.004415237813 -0.006333513076)
5(-0.004653905594 -0.003532443041 -0.004441389101 -0.003682084042 -0.005088497278)
5(-0.00327327636 -0.00292130238 -0.002829096068 -0.002638023701 -0.002781067443)
5(-0.002416447321 -0.002557525289 -0.00194022931 -0.002071530849 -0.00160297587)
5(-0.002239248136 -0.002372724003 -0.001834776609 -0.00197560889 -0.001606886861)
5(-0.002310101036 -0.002286416049 -0.002071805546 -0.002064956583 -0.002003208951)
5(-0.002319864498 -0.002195237176 -0.00220076844 -0.002074683965 -0.002169847596)
5(-0.002222472481 -0.002073513349 -0.002135514793 -0.001970366122 -0.002054697062)
5(-0.002051407384 -0.001946441518 -0.001946232192 -0.001821837184 -0.001819403719)
5(-0.001892303706 -0.001839268822 -0.001776908024 -0.001703126985 -0.001647406092)
5(-0.001791332347 -0.001752470328 -0.001691561702 -0.001623613862 -0.001574681312)
5(-0.001727516395 -0.00168016774 -0.001646982832 -0.001568379411 -0.001551303103)
5(-0.001670410376 -0.001617947998 -0.001601909132 -0.001529341396 -0.001526209619)
5(-0.001609231613 -0.001559174899 -0.001543824269 -0.001501298046 -0.001488853774)
5(-0.001545232031 -0.001505278564 -0.001483259027 -0.001472206323 -0.001446134728)
5(-0.001482883506 -0.00145849288 -0.001427436711 -0.001424675759 -0.001407013515)
5(-0.001424794384 -0.001407637892 -0.001376231355 -0.001362173927 -0.001373998991)
5(-0.001370692519 -0.001357854073 -0.001334464063 -0.001300520678 -0.001348812211)
5(-0.00132018445 -0.001312194696 -0.001304447324 -0.001261237113 -0.001334129007)
5(-0.001272957404 -0.001268444906 -0.001277043601 -0.001261343861 -0.001330765066)
5(-0.001228840079 -0.001229009188 -0.001254907404 -0.001284283205 -0.001338202403)
5(-0.001187647473 -0.001197472314 -0.001241429269 -0.001307308442 -0.001355648752)
5(-0.001149174623 -0.001172128138 -0.001222555328 -0.001311003535 -0.001382930349)
5(-0.001113161818 -0.001146549666 -0.001207169851 -0.00130545163 -0.001420804834)
5(-0.001079178487 -0.001127360758 -0.001204126339 -0.001311691231 -0.001470057274)
5(-0.001046974535 -0.001115713102 -0.001211330968 -0.001344499439 -0.001530716291)
5(-0.001017383076 -0.001111337394 -0.001238230469 -0.001399061874 -0.001598504755)
5(-0.0009910362503 -0.001114467727 -0.001268113619 -0.001467199464 -0.001663521953)
5(-0.0009679208175 -0.001127983781 -0.001307978776 -0.001533246205 -0.001717599942)
5(-0.0009535786253 -0.001148444906 -0.001369116695 -0.001604366742 -0.001776161958)
5(-0.0009525566714 -0.001179898988 -0.001433628808 -0.001697800712 -0.001884559438)
5(-0.000960206565 -0.001220135314 -0.001521768775 -0.001798521148 -0.002072308563)
5(-0.0009757794398 -0.001272235169 -0.001620508355 -0.001912197732 -0.002274770853)
5(-0.001004018745 -0.001343798463 -0.001720061524 -0.002030955701 -0.002297169675)
5(-0.001046138206 -0.001430439512 -0.001824404427 -0.002143062295 -0.001997161885)
5(-0.001104176179 -0.00154073148 -0.001929965186 -0.002225399103 -0.001444845266)
5(-0.00118632951 -0.001658947631 -0.002079321804 -0.002181434243 -0.0009504332974)
5(-0.001298376941 -0.001775552222 -0.002303132901 -0.001920646487 -0.00077655077)
5(-0.001442081896 -0.001901757326 -0.002566230088 -0.00148040831 -0.0009321353806)
5(-0.001614972442 -0.002069384508 -0.002713373049 -0.001106472451 -0.001255893116)
5(-0.001806064908 -0.002314369185 -0.002585593356 -0.001019561976 -0.001573750669)
5(-0.002009438379 -0.002615490717 -0.002197828247 -0.001229812363 -0.001854975135)
5(-0.002228604315 -0.002821130416 -0.001782483446 -0.001614924087 -0.00218462866)
5(-0.00246545199 -0.002735821104 -0.001611029355 -0.002032353058 -0.002665863524)
5(-0.002704612948 -0.002336767727 -0.001737560042 -0.002459065899 -0.003324225631)
5(-0.002843012862 -0.001906074268 -0.002054321178 -0.002948370481 -0.00414028342)
5(-0.002759058731 -0.001762770349 -0.002480652769 -0.003564760589 -0.005089241198)
5(-0.002433731436 -0.001961963251 -0.003001813745 -0.004324237868 -0.006168716127)
5(-0.002015898561 -0.00238408536 -0.003614663905 -0.005244599989 -0.007439238599)
5(-0.001715382505 -0.002877743287 -0.004320618084 -0.006358370441 -0.008986127188)
5(-0.001605297169 -0.003383440361 -0.005117586278 -0.007671557122 -0.01083848639)
5(-0.001679816364 -0.003900635007 -0.006007494207 -0.00918526909 -0.01299129758)
5(-0.00194065876 -0.004427558442 -0.006992988426 -0.01089583523 -0.01543983633)
5(-0.002389966351 -0.004955581393 -0.008073892846 -0.01279834819 -0.01818318742)
5(-0.003013384407 -0.00547780605 -0.009248394448 -0.01489596046 -0.02122111994)
5(-0.003365894873 -0.005737698548 -0.009858563813 -0.01599566777 -0.02281372216)
)


60
(
5(-0.004981979292 -0.01542459044 0.006397168861 0.00165668264 0.0147813612)
5(-0.004527093921 -0.01233093141 0.002820847622 -0.0002466470386 0.009343127749)
5(-0.00431975338 -0.007578268157 -0.002966966277 -0.003348428301 0.0002242854744)
5(-0.005398658392 -0.005595204101 -0.006119335489 -0.005092659488 -0.005378923219)
5(-0.006392412829 -0.005164324134 -0.006717179565 -0.005462880091 -0.007343897841)
5(-0.005746921261 -0.004603298712 -0.00540751735 -0.004621226272 -0.005997310339)
5(-0.004259129986 -0.003881794975 -0.003752489495 -0.003504712387 -0.00363769296)
5(-0.00333182785 -0.003442691923 -0.002795957509 -0.002875885971 -0.002404993185)
5(-0.003091703878 -0.003192322593 -0.002619993832 -0.002722394832 -0.002348718832)
5(-0.003100913066 -0.003050275434 -0.002801851188 -0.002761311137 -0.002689016272)
5(-0.003059591533 -0.002911876895 -0.002887948359 -0.002728471052 -0.002810856609)
5(-0.002920509488 -0.002751429375 -0.002783600756 -0.002589801286 -0.002661515692)
5(-0.002714037829 -0.002588802651 -0.002563060597 -0.002412065526 -0.002398655052)
5(-0.002523692557 -0.002450864522 -0.002366214792 -0.002265573107 -0.002201250831)
5(-0.002394041326 -0.002336466076 -0.002255726521 -0.00216202698 -0.002104073301)
5(-0.00230378685 -0.002239035739 -0.00218724479 -0.00208450436 -0.002057984554)
5(-0.002222607685 -0.002153582018 -0.002116259249 -0.002026391498 -0.002012348733)
5(-0.002139546767 -0.002072882588 -0.002040959103 -0.00197658991 -0.001956267181)
5(-0.002055524118 -0.002001589003 -0.001962831569 -0.001927778775 -0.001896331427)
5(-0.001974704467 -0.001934967751 -0.001888358492 -0.001870096669 -0.001841233775)
5(-0.001899449101 -0.001867585398 -0.001823926899 -0.001789412882 -0.001793268516)
5(-0.00182931949 -0.001803373724 -0.001767008702 -0.001713269745 -0.001753972866)
5(-0.001763791018 -0.001741216475 -0.001717620176 -0.001663629533 -0.001725861566)
5(-0.001702438909 -0.001680909117 -0.00167979585 -0.001645553599 -0.001709653485)
5(-0.001644997378 -0.00163642479 -0.001649614146 -0.001655241881 -0.001704756794)
5(-0.001591183029 -0.001589788351 -0.001620401377 -0.001670029455 -0.00171027988)
5(-0.001540718701 -0.001548182707 -0.001589252608 -0.001664788121 -0.001726055115)
5(-0.001493298797 -0.0015178194 -0.001563321378 -0.001647616739 -0.001752815434)
5(-0.001448410934 -0.001485393122 -0.001548412495 -0.001642958705 -0.001790973243)
5(-0.001405725061 -0.001464800019 -0.001548660986 -0.001665685971 -0.001840255552)
5(-0.001366060047 -0.001449224094 -0.001560084372 -0.001712425449 -0.001897117073)
5(-0.001329800516 -0.001442203005 -0.001582926258 -0.001766739247 -0.001952788721)
5(-0.001296686098 -0.001445539731 -0.001619525306 -0.001824279388 -0.001998667489)
5(-0.001273322759 -0.00145818937 -0.001660049682 -0.001888865039 -0.002048509254)
5(-0.001264674957 -0.001481947515 -0.001715493474 -0.001967423458 -0.002146829332)
5(-0.00126423525 -0.001511165877 -0.001796302516 -0.002059194107 -0.002323342978)
5(-0.001270856711 -0.001552034567 -0.001888580484 -0.002166125927 -0.002514680689)
5(-0.001290210373 -0.001615960085 -0.001981621322 -0.002273967146 -0.002529298243)
5(-0.001323412197 -0.001695989341 -0.002068556828 -0.002374486849 -0.002227355941)
5(-0.001372309523 -0.001792730764 -0.002166037532 -0.002451800679 -0.0016778637)
5(-0.0014449054 -0.001898911203 -0.00231073213 -0.002399916678 -0.001185301504)
5(-0.001546451418 -0.002007390217 -0.002518493312 -0.002133447974 -0.001006927967)
5(-0.001679461286 -0.002128318384 -0.002767121355 -0.001696844341 -0.001151833136)
5(-0.001842950073 -0.002283316551 -0.002905099307 -0.001320935507 -0.001463097074)
5(-0.002024489231 -0.00251326717 -0.002777014159 -0.00123161316 -0.001769872269)
5(-0.002216568708 -0.002808757331 -0.002387370991 -0.001431277403 -0.002040226146)
5(-0.0024237375 -0.00299978601 -0.001974216629 -0.001796807304 -0.002356900659)
5(-0.002648371429 -0.002903426093 -0.001798943499 -0.002207950947 -0.002821927203)
5(-0.002874907178 -0.00250529638 -0.001907578725 -0.002616158215 -0.003460849103)
5(-0.003001860977 -0.002074719224 -0.002215634018 -0.003086486142 -0.004254581448)
5(-0.002910037891 -0.001929359621 -0.002628082854 -0.003685902669 -0.005178603561)
5(-0.002580979246 -0.002115563544 -0.003126821947 -0.004421722734 -0.006230142733)
5(-0.002160642607 -0.002516136798 -0.003719733274 -0.005318338739 -0.007468543803)
5(-0.001855329917 -0.002990376737 -0.004404944658 -0.006400509941 -0.00897830325)
5(-0.001736292065 -0.003477389747 -0.005174374433 -0.007680364777 -0.01078808594)
5(-0.001795496511 -0.003972872379 -0.006033210703 -0.009154014551 -0.01289111229)
5(-0.002035234816 -0.004474043471 -0.006985794466 -0.01081901276 -0.01528108308)
5(-0.002458362972 -0.004971802753 -0.00802912772 -0.01266873238 -0.017956778)
5(-0.003045741339 -0.005461096409 -0.009162408417 -0.0147069712 -0.0209178892)
5(-0.00337685817 -0.005703437105 -0.00975206132 -0.01577483123 -0.02246978632)
)


60
(
5(-0.00983162605 -0.02021850718 0.002681059638 -0.001133832133 0.01142388395)
5(-0.008341262624 -0.01609103148 -0.000323234687 -0.002642807132 0.00653208047)
5(-0.006512791462 -0.009717854842 -0.005125259204 -0.005074108193 -0.001661608236)
5(-0.006840563121 -0.006978040916 -0.007596701279 -0.006375636149 -0.006674980041)
5(-0.00761033244 -0.006342957742 -0.007811995054 -0.006511085105 -0.008354282605)
5(-0.006839936929 -0.00567498122 -0.006374681044 -0.005561004721 -0.0069061234)
5(-0.005244983612 -0.004841334478 -0.004675522217 -0.00437127597 -0.004494318476)
5(-0.004247208379 -0.004328865965 -0.003651519253 -0.003679549187 -0.003207010499)
5(-0.00394415962 -0.004011134844 -0.003405631131 -0.003469236954 -0.003090550804)
5(-0.003891725095 -0.003814113102 -0.00353208189 -0.003457566924 -0.003374823592)
5(-0.003799318569 -0.003629544689 -0.003574536368 -0.003383048127 -0.003451865622)
5(-0.003618546496 -0.003427845773 -0.00343287396 -0.003209309743 -0.003268334322)
5(-0.003376668273 -0.003231936157 -0.00317958593 -0.003001270842 -0.002977906386)
5(-0.003155081408 -0.003062247184 -0.002955037242 -0.002829468738 -0.002755095571)
5(-0.002996750305 -0.002921271743 -0.002819184074 -0.002699923135 -0.00263346529)
5(-0.002880057306 -0.002797240831 -0.002725637353 -0.002600924935 -0.002564666006)
5(-0.002774804994 -0.002688673347 -0.002634981672 -0.002520083711 -0.002498487846)
5(-0.002669861921 -0.002589020121 -0.002537325741 -0.002453670457 -0.002423680587)
5(-0.002565816206 -0.002495183794 -0.00244064076 -0.002388888245 -0.002346528127)
5(-0.002466525429 -0.002412104768 -0.00235250965 -0.002309042196 -0.002275454035)
5(-0.002374103818 -0.002329126037 -0.002267598739 -0.002218417177 -0.00221253804)
5(-0.00228794646 -0.002247358378 -0.002197269828 -0.002127436761 -0.002159133521)
5(-0.002207397585 -0.00217148348 -0.002138347499 -0.002061812674 -0.002117594126)
5(-0.002131920415 -0.002096526978 -0.002081582848 -0.002032769841 -0.002088541903)
5(-0.002061154677 -0.002031687447 -0.002039298837 -0.002028223121 -0.002071311186)
5(-0.001994718584 -0.001984164491 -0.002000117588 -0.002030089791 -0.002064911008)
5(-0.001932262779 -0.001935187589 -0.001956564595 -0.002017892937 -0.002069179881)
5(-0.001873435775 -0.001883248794 -0.001918986943 -0.001991302764 -0.002084826035)
5(-0.001817643381 -0.001842915198 -0.001895700984 -0.001974736234 -0.002111889212)
5(-0.001764475588 -0.001813577734 -0.001884147705 -0.001986590002 -0.002149794812)
5(-0.001714737019 -0.001788022953 -0.001885321529 -0.002023266525 -0.002195729392)
5(-0.001668564782 -0.001772489823 -0.001896737603 -0.002068111351 -0.002242055488)
5(-0.001625451378 -0.001765011106 -0.001922417308 -0.002115786339 -0.002279735037)
5(-0.001593066894 -0.001765184459 -0.001957604492 -0.002170244801 -0.002320856551)
5(-0.001576793242 -0.001781102381 -0.002000428025 -0.002239506106 -0.002409099227)
5(-0.001568263936 -0.001802277206 -0.002070146571 -0.00232401383 -0.002574377394)
5(-0.001565933982 -0.001835560296 -0.002152572859 -0.002416117731 -0.002754590526)
5(-0.001576402002 -0.001887835588 -0.002237404222 -0.002513833734 -0.002761426811)
5(-0.001600686188 -0.001956378533 -0.002320476975 -0.002610378365 -0.002457549998)
5(-0.001640442867 -0.00204529425 -0.002405202317 -0.002678440246 -0.001910882135)
5(-0.001703481291 -0.002142791094 -0.002537188222 -0.002617632816 -0.00142016971)
5(-0.001794525895 -0.002240255336 -0.00273428545 -0.002346558887 -0.001237305163)
5(-0.001916840675 -0.002350874278 -0.002970483155 -0.001911085113 -0.001371530892)
5(-0.002070927703 -0.002498574772 -0.003098639728 -0.001538953443 -0.001670301032)
5(-0.002242913554 -0.002716400415 -0.002965406569 -0.001440777697 -0.001965993868)
5(-0.002423699037 -0.002997115656 -0.0025788866 -0.001634406925 -0.002225477156)
5(-0.002618870685 -0.003179179091 -0.002161309682 -0.001986526662 -0.002529172657)
5(-0.002831290869 -0.003075316688 -0.001984883878 -0.002369913407 -0.002977990882)
5(-0.003045201407 -0.002671105955 -0.002085767684 -0.002775584522 -0.003597472574)
5(-0.003160709092 -0.002248543495 -0.002375007996 -0.003231456236 -0.004368879477)