/*--------------------------------*- C++ -*----------------------------------*\
| =========                 |                                                 |
| \\      /  F ield         | OpenFOAM: The Open Source CFD Toolbox           |
|  \\    /   O peration     | Version:  2.3.1                                 |
|   \\  /    A nd           | Web:      www.OpenFOAM.org                      |
|    \\/     M anipulation  |                                                 |
\*---------------------------------------------------------------------------*/
FoamFile
{
    version     2.0;
    format      ascii;
    class       dictionary;
    location    "constant";
    object      GRPSI36;
}
// * * * * * * * * * * * * * * * * * * * * * * * * * * * * * * * * * * * * * //

GRPSI36_table
60
(

60
(
5(1.185798302e-05 7.929163399e-06 1.215584215e-05 9.820934929e-06 1.235555904e-05)
5(1.105504409e-05 1.113335596e-05 9.981070237e-06 9.341856784e-06 9.577945454e-06)
5(1.344660863e-05 1.068358829e-05 9.55012461e-06 9.736139676e-06 9.864307829e-06)
5(1.374640814e-05 1.095709283e-05 9.375444302e-06 1.069743714e-05 8.327827991e-06)
5(1.456552368e-05 1.19087584e-05 1.055879829e-05 1.057501827e-05 9.790656656e-06)
5(1.313001306e-05 1.288560221e-05 1.298540043e-05 1.132223421e-05 1.12173102e-05)
5(1.486133714e-05 1.357401827e-05 1.343742898e-05 1.208020396e-05 1.112930458e-05)
5(1.647826237e-05 1.40297518e-05 1.307611548e-05 1.209197329e-05 1.218193361e-05)
5(1.43154288e-05 1.440962433e-05 1.343203871e-05 1.22505426e-05 1.190225295e-05)
5(1.381897697e-05 1.472125911e-05 1.336563075e-05 1.258565949e-05 1.205922219e-05)
5(1.413912187e-05 1.513907196e-05 1.379814079e-05 1.285759181e-05 1.231087473e-05)
5(1.656538213e-05 1.564406578e-05 1.443707197e-05 1.318131405e-05 1.267464587e-05)
5(1.877721365e-05 1.60597424e-05 1.49109488e-05 1.340312854e-05 1.290592003e-05)
5(1.911260448e-05 1.648336927e-05 1.526733218e-05 1.379515004e-05 1.317745616e-05)
5(1.990573046e-05 1.702708013e-05 1.572037836e-05 1.399903042e-05 1.340355505e-05)
5(2.015171746e-05 1.735429831e-05 1.599114842e-05 1.424833526e-05 1.360503141e-05)
5(2.078236665e-05 1.778620838e-05 1.630815048e-05 1.449789087e-05 1.377802019e-05)
5(2.148444749e-05 1.821451221e-05 1.667459276e-05 1.472802946e-05 1.398083949e-05)
5(2.212561183e-05 1.866402749e-05 1.70144305e-05 1.501865948e-05 1.418547285e-05)
5(2.259035596e-05 1.89906336e-05 1.728951047e-05 1.520324854e-05 1.43896889e-05)
5(2.314038184e-05 1.94408995e-05 1.768118611e-05 1.551610336e-05 1.466458941e-05)
5(2.366433276e-05 1.980455337e-05 1.796148804e-05 1.595330961e-05 1.501679951e-05)
5(2.405608651e-05 2.012352195e-05 1.829813816e-05 1.612255251e-05 1.52132356e-05)
5(2.440378581e-05 2.03524878e-05 1.860495907e-05 1.648285658e-05 1.561125531e-05)
5(2.472243381e-05 2.060505395e-05 1.89135153e-05 1.683217749e-05 1.603743052e-05)
5(2.496734216e-05 2.081435745e-05 1.914502397e-05 1.723878042e-05 1.665122698e-05)
5(2.517649331e-05 2.121985863e-05 1.968644778e-05 1.782759925e-05 1.744053707e-05)
5(2.544389044e-05 2.167667092e-05 2.016619223e-05 1.861715148e-05 1.850385587e-05)
5(2.547932713e-05 2.196891947e-05 2.092711824e-05 1.972021792e-05 1.979878015e-05)
5(2.556030968e-05 2.232827856e-05 2.184726862e-05 2.122213227e-05 2.15799489e-05)
5(2.555924542e-05 2.281177366e-05 2.284082207e-05 2.27865067e-05 2.367278651e-05)
5(2.565605344e-05 2.361018428e-05 2.446997975e-05 2.524342517e-05 2.681583472e-05)
5(2.584505618e-05 2.447027876e-05 2.618599116e-05 2.788671344e-05 2.947495491e-05)
5(2.598272816e-05 2.551202423e-05 2.813863987e-05 3.120407959e-05 3.394170243e-05)
5(2.624664792e-05 2.709477419e-05 3.093969308e-05 3.495267001e-05 3.830666754e-05)
5(2.670489309e-05 2.849610354e-05 3.310303051e-05 3.905549928e-05 4.282700007e-05)
5(2.747035343e-05 3.151435799e-05 3.846143748e-05 4.45226912e-05 4.735364486e-05)
5(2.857976399e-05 3.374349146e-05 4.264204031e-05 4.896624086e-05 5.424934124e-05)
5(2.987974173e-05 3.709441251e-05 4.639794357e-05 5.413684837e-05 5.509629572e-05)
5(3.118089972e-05 4.040618258e-05 4.943208242e-05 5.739851491e-05 6.048393809e-05)
5(3.348835549e-05 4.486505083e-05 5.471096073e-05 5.973990864e-05 5.714484369e-05)
5(3.644006647e-05 4.835589309e-05 5.753666305e-05 6.002455386e-05 5.080077048e-05)
5(3.889376927e-05 5.168710151e-05 5.879244237e-05 5.906219044e-05 4.200211531e-05)
5(4.0490301e-05 5.085508702e-05 5.144349676e-05 4.919599179e-05 3.183415147e-05)
5(4.061566327e-05 4.892758242e-05 4.673694991e-05 3.768499079e-05 2.212587261e-05)
5(3.972446585e-05 4.302109249e-05 3.924592539e-05 2.62032482e-05 1.363943176e-05)
5(3.599229762e-05 3.580963571e-05 2.869325954e-05 1.630772629e-05 7.337514001e-06)
5(2.79782291e-05 2.75600259e-05 1.828405425e-05 8.969642414e-06 3.398296231e-06)
5(2.203044757e-05 1.737457867e-05 1.005242363e-05 4.246749239e-06 1.348467994e-06)
5(1.434476073e-05 9.684406392e-06 4.730351033e-06 1.695254312e-06 4.621109456e-07)
5(7.820107694e-06 4.430768134e-06 1.841671769e-06 5.752552578e-07 1.347495295e-07)
5(3.57352509e-06 1.662537822e-06 5.923387955e-07 1.639194059e-07 3.376020776e-08)
5(1.332572059e-06 5.001586581e-07 1.569228339e-07 3.872274228e-08 7.148073119e-09)
5(3.416087636e-07 1.116263336e-07 3.128019877e-08 7.42921798e-09 1.32317955e-09)
5(6.219557947e-08 1.938567683e-08 4.756541322e-09 1.111919148e-09 1.932625204e-10)
5(6.81123429e-09 1.942596766e-09 5.262239935e-10 1.204802446e-10 2.229767892e-11)
5(4.540076742e-10 1.472837639e-10 2.959667847e-11 8.546348191e-12 1.462574885e-12)
5(1.365891218e-11 4.386067821e-12 9.326486678e-13 2.56049492e-13 4.450966725e-14)
5(5.854718336e-14 2.126545893e-14 2.904580005e-13 -4.034404414e-14 2.810574755e-16)
5(4.127221757e-19 1.005193468e-18 7.217966189e-10 9.826352255e-19 5.089715133e-18)
)


60
(
5(1.549344366e-05 1.059767724e-05 1.61561287e-05 1.345194307e-05 1.633116556e-05)
5(1.567930793e-05 1.390069983e-05 1.387346788e-05 1.278363199e-05 1.29800548e-05)
5(1.723982479e-05 1.484543366e-05 1.346239433e-05 1.303687756e-05 1.253186534e-05)
5(1.815713446e-05 1.581390395e-05 1.396375326e-05 1.395592981e-05 1.208427866e-05)
5(1.963270907e-05 1.710332847e-05 1.548874498e-05 1.455231143e-05 1.348674457e-05)
5(2.030823971e-05 1.845168337e-05 1.770275605e-05 1.558110093e-05 1.503324959e-05)
5(2.229403329e-05 1.95911484e-05 1.863306811e-05 1.648548928e-05 1.550877554e-05)
5(2.394069063e-05 2.050101099e-05 1.896110365e-05 1.691364122e-05 1.634995858e-05)
5(2.348691576e-05 2.130368968e-05 1.955536874e-05 1.734866195e-05 1.650023667e-05)
5(2.410458401e-05 2.211279114e-05 2.002270255e-05 1.791670524e-05 1.677273692e-05)
5(2.509888495e-05 2.301284089e-05 2.075112743e-05 1.846835481e-05 1.72541772e-05)
5(2.727253957e-05 2.394692571e-05 2.164284144e-05 1.905058688e-05 1.781540459e-05)
5(2.913646663e-05 2.477073237e-05 2.242229947e-05 1.954436246e-05 1.823158741e-05)
5(3.013525544e-05 2.557272443e-05 2.309655816e-05 2.011441653e-05 1.863964934e-05)
5(3.128957748e-05 2.644454348e-05 2.377326428e-05 2.055742219e-05 1.899189193e-05)
5(3.234841867e-05 2.721826181e-05 2.438267843e-05 2.099773118e-05 1.932597593e-05)
5(3.328775566e-05 2.804273072e-05 2.497721365e-05 2.138900794e-05 1.958201473e-05)
5(3.437643329e-05 2.880239682e-05 2.557223687e-05 2.174302483e-05 1.989793178e-05)
5(3.543051467e-05 2.949125839e-05 2.607037741e-05 2.211109019e-05 2.01404798e-05)
5(3.629558932e-05 3.008889086e-05 2.650989105e-05 2.238431827e-05 2.033418033e-05)
5(3.732220917e-05 3.067863818e-05 2.69470547e-05 2.266704259e-05 2.045047752e-05)
5(3.791484578e-05 3.113540866e-05 2.72589036e-05 2.295715035e-05 2.064796095e-05)
5(3.856767757e-05 3.148127339e-05 2.747926647e-05 2.300458023e-05 2.069318094e-05)
5(3.905768517e-05 3.170118384e-05 2.760617313e-05 2.308568116e-05 2.077155505e-05)
5(3.946201899e-05 3.182834077e-05 2.76452847e-05 2.311790783e-05 2.082989241e-05)
5(3.955705429e-05 3.181447364e-05 2.759191182e-05 2.310773088e-05 2.100061663e-05)
5(3.953544373e-05 3.177667152e-05 2.758361975e-05 2.314658669e-05 2.116191991e-05)
5(3.949132168e-05 3.158579279e-05 2.741182723e-05 2.321370726e-05 2.151855138e-05)
5(3.886231138e-05 3.121836212e-05 2.730292804e-05 2.342228279e-05 2.196766915e-05)
5(3.826365198e-05 3.072576151e-05 2.717066096e-05 2.380365247e-05 2.274902086e-05)
5(3.73311569e-05 3.0123496e-05 2.70312439e-05 2.42423544e-05 2.372595304e-05)
5(3.630307366e-05 2.962405256e-05 2.720311631e-05 2.517961168e-05 2.534321589e-05)
5(3.509550572e-05 2.910829099e-05 2.741436107e-05 2.627999612e-05 2.68458234e-05)
5(3.374362944e-05 2.859228011e-05 2.777377334e-05 2.782155858e-05 2.940064177e-05)
5(3.232751965e-05 2.836349264e-05 2.865451665e-05 2.97256982e-05 3.205822895e-05)
5(3.112281862e-05 2.810973094e-05 2.933058528e-05 3.195876678e-05 3.495043275e-05)
5(2.978996607e-05 2.877891248e-05 3.176075322e-05 3.504478794e-05 3.800570302e-05)
5(2.884064762e-05 2.919590423e-05 3.379284729e-05 3.778864727e-05 4.23186893e-05)
5(2.811108856e-05 3.038388419e-05 3.580888279e-05 4.10315577e-05 4.364101382e-05)
5(2.760543027e-05 3.179351731e-05 3.764645756e-05 4.340786352e-05 4.71618022e-05)
5(2.796536396e-05 3.405704278e-05 4.076372071e-05 4.528681541e-05 4.611008378e-05)
5(2.887569343e-05 3.59965681e-05 4.264416974e-05 4.596184188e-05 4.31071106e-05)
5(2.993411187e-05 3.796871546e-05 4.360288065e-05 4.564278921e-05 3.823406703e-05)
5(3.07242305e-05 3.784735892e-05 3.994434484e-05 4.026885345e-05 3.1780073e-05)
5(3.093695568e-05 3.6865813e-05 3.708312119e-05 3.332213824e-05 2.473690952e-05)
5(3.049279032e-05 3.342235333e-05 3.217217486e-05 2.559920765e-05 1.760481756e-05)
5(2.825159898e-05 2.876407624e-05 2.506354341e-05 1.799732369e-05 1.133918105e-05)
5(2.338486791e-05 2.296503544e-05 1.751797088e-05 1.145386609e-05 6.48584273e-06)
5(1.895430564e-05 1.5757401e-05 1.086821461e-05 6.471929602e-06 3.246902232e-06)
5(1.324646892e-05 9.695367208e-06 5.913459588e-06 3.16420924e-06 1.397583052e-06)
5(7.983742852e-06 5.080928645e-06 2.748925426e-06 1.328105837e-06 5.058833102e-07)
5(4.098610288e-06 2.223654672e-06 1.054953391e-06 4.566782277e-07 1.565938427e-07)
5(1.68306481e-06 7.869073116e-07 3.260834867e-07 1.284095342e-07 3.977818002e-08)
5(5.06872269e-07 2.111019811e-07 7.535810504e-08 2.743594504e-08 7.987111189e-09)
5(1.110559654e-07 4.083652091e-08 1.306006726e-08 4.640886285e-09 1.32553525e-09)
5(1.463091936e-08 5.305326928e-09 1.452783736e-09 5.495005648e-10 1.493675597e-10)
5(1.132713923e-09 3.265503754e-10 1.041245026e-10 3.693032448e-11 1.025809153e-11)
5(2.704960249e-11 7.327060048e-12 3.197571328e-12 1.159102974e-12 3.900280875e-13)
5(1.96779369e-13 -7.363255663e-11 3.735821961e-13 -5.285054149e-11 1.846723489e-15)
5(3.425250166e-17 1.965281082e-18 7.945109734e-10 4.912034571e-18 1.154917217e-17)
)


60
(
5(2.344468398e-05 1.711414058e-05 2.532681052e-05 2.230794356e-05 2.571865409e-05)
5(2.629382072e-05 2.233425081e-05 2.362468617e-05 2.194687904e-05 2.182656577e-05)
5(2.830358976e-05 2.590320425e-05 2.388426079e-05 2.25857625e-05 2.085142925e-05)
5(3.05324832e-05 2.837343674e-05 2.576377441e-05 2.402710599e-05 2.179088824e-05)
5(3.369238138e-05 3.073709212e-05 2.849033443e-05 2.59196391e-05 2.388868499e-05)
5(3.738030105e-05 3.319759362e-05 3.119486485e-05 2.778069358e-05 2.617422333e-05)
5(4.039591316e-05 3.535807469e-05 3.319992141e-05 2.936043565e-05 2.769919215e-05)
5(4.270924231e-05 3.736623115e-05 3.471851702e-05 3.06538279e-05 2.863715683e-05)
5(4.4946606e-05 3.929116898e-05 3.603589017e-05 3.177445833e-05 2.947212765e-05)
5(4.734762701e-05 4.117906495e-05 3.750957499e-05 3.296780183e-05 3.032524136e-05)
5(4.959894201e-05 4.313291097e-05 3.911961654e-05 3.425178579e-05 3.143352269e-05)
5(5.218876051e-05 4.503066852e-05 4.080795843e-05 3.552854855e-05 3.246443081e-05)
5(5.468552196e-05 4.69222333e-05 4.242174828e-05 3.667506248e-05 3.335668584e-05)
5(5.692231593e-05 4.876342209e-05 4.388749936e-05 3.77547964e-05 3.43178237e-05)
5(5.904374611e-05 5.056605064e-05 4.523302105e-05 3.879586721e-05 3.492686727e-05)
5(6.132279414e-05 5.226674511e-05 4.65307359e-05 3.974782729e-05 3.56234015e-05)
5(6.363684445e-05 5.390199514e-05 4.780164257e-05 4.057460594e-05 3.617959753e-05)
5(6.554600274e-05 5.546281602e-05 4.900181567e-05 4.134196331e-05 3.665297429e-05)
5(6.774196585e-05 5.683790587e-05 5.002924732e-05 4.200347646e-05 3.709703267e-05)
5(6.94807043e-05 5.812909349e-05 5.092083282e-05 4.251527057e-05 3.727820671e-05)
5(7.115358301e-05 5.924459763e-05 5.155097537e-05 4.280637004e-05 3.731214141e-05)
5(7.276265172e-05 6.004387336e-05 5.200220734e-05 4.29317289e-05 3.734703678e-05)
5(7.399809015e-05 6.064874629e-05 5.224930725e-05 4.277527263e-05 3.710878262e-05)
5(7.463109389e-05 6.100205983e-05 5.226535778e-05 4.240907819e-05 3.671390432e-05)
5(7.508828926e-05 6.099862897e-05 5.186706073e-05 4.187653258e-05 3.593338884e-05)
5(7.526708169e-05 6.056321409e-05 5.117310565e-05 4.113773224e-05 3.524326593e-05)
5(7.490494606e-05 5.975465409e-05 5.016978154e-05 4.015866794e-05 3.442841649e-05)
5(7.412665193e-05 5.854174725e-05 4.885746161e-05 3.898486929e-05 3.332303467e-05)
5(7.261149027e-05 5.69083409e-05 4.721021773e-05 3.763085029e-05 3.246831653e-05)
5(7.058852343e-05 5.48596618e-05 4.526594083e-05 3.610081395e-05 3.125460616e-05)
5(6.805262844e-05 5.241577326e-05 4.313470407e-05 3.453089634e-05 3.037360698e-05)
5(6.489655914e-05 4.964320121e-05 4.084801291e-05 3.297844047e-05 2.945185735e-05)
5(6.114241673e-05 4.656856931e-05 3.83960626e-05 3.14773446e-05 2.885601313e-05)
5(5.707546311e-05 4.326098227e-05 3.592464933e-05 3.015302557e-05 2.844944985e-05)
5(5.244611227e-05 3.988821285e-05 3.357065511e-05 2.905607157e-05 2.847420374e-05)
5(4.769663266e-05 3.648738482e-05 3.145193362e-05 2.825579062e-05 2.877277881e-05)
5(4.284959721e-05 3.330756384e-05 2.965313795e-05 2.786477146e-05 2.948944849e-05)
5(3.802631396e-05 3.04270861e-05 2.825957882e-05 2.791184492e-05 3.055422246e-05)
5(3.363396797e-05 2.801007165e-05 2.734383566e-05 2.837121379e-05 3.182706621e-05)
5(2.963675285e-05 2.618313461e-05 2.693624877e-05 2.919074346e-05 3.317824206e-05)
5(2.627492855e-05 2.500583464e-05 2.704378335e-05 3.019089627e-05 3.428702016e-05)
5(2.396526654e-05 2.443974211e-05 2.742905524e-05 3.106981727e-05 3.487284485e-05)
5(2.245487373e-05 2.441854779e-05 2.784750866e-05 3.149062534e-05 3.435457984e-05)
5(2.180245911e-05 2.466916995e-05 2.792050548e-05 3.098344799e-05 3.239731594e-05)
5(2.173319908e-05 2.469406693e-05 2.722495946e-05 2.919648431e-05 2.881848068e-05)
5(2.184299141e-05 2.40926229e-05 2.540148904e-05 2.591589892e-05 2.377382056e-05)
5(2.154075355e-05 2.249653886e-05 2.230228971e-05 2.131489753e-05 1.79464838e-05)
5(2.045557302e-05 1.973999547e-05 1.811600775e-05 1.592955126e-05 1.210994196e-05)
5(1.816859588e-05 1.592542735e-05 1.327785175e-05 1.062349711e-05 7.215635145e-06)
5(1.483270295e-05 1.157330618e-05 8.538237899e-06 6.17131931e-06 3.701930073e-06)
5(1.084430623e-05 7.347059089e-06 4.752835147e-06 3.076649108e-06 1.610607432e-06)
5(6.880836526e-06 3.905537443e-06 2.205709371e-06 1.256795654e-06 5.773708393e-07)
5(3.542163879e-06 1.690310211e-06 8.120937136e-07 4.187049077e-07 1.708519051e-07)
5(1.43453933e-06 5.608973018e-07 2.242484778e-07 1.077164463e-07 3.979770402e-08)
5(4.362387781e-07 1.311605519e-07 4.319689739e-08 1.992715351e-08 6.936069537e-09)
5(7.983953106e-08 1.921497094e-08 5.686227162e-09 2.484090261e-09 9.13842729e-10)
5(6.380059067e-09 1.809875444e-09 3.767450628e-10 1.912547974e-10 6.171266619e-11)
5(4.654198281e-10 7.742562915e-11 1.361611646e-11 9.266065314e-12 2.191030582e-12)
5(6.377309196e-12 3.979489002e-10 -5.016067205e-12 4.258067602e-10 1.874909964e-14)
5(1.477380194e-13 1.703346039e-08 -3.608983108e-10 2.765362645e-10 1.870811791e-17)
)


60
(
5(3.274696149e-05 2.569548188e-05 3.666806026e-05 3.41165985e-05 3.79075094e-05)
5(3.948248372e-05 3.49402403e-05 3.679771647e-05 3.516198027e-05 3.453705526e-05)
5(4.424249767e-05 4.12869731e-05 3.876697854e-05 3.713356364e-05 3.430771042e-05)
5(4.83009928e-05 4.565049196e-05 4.237415239e-05 3.99350044e-05 3.626389203e-05)
5(5.343827978e-05 4.964197236e-05 4.68602119e-05 4.318279718e-05 3.979127871e-05)
5(5.903039112e-05 5.367292052e-05 5.110123962e-05 4.635200628e-05 4.347402241e-05)
5(6.389121029e-05 5.730925851e-05 5.449612083e-05 4.906797796e-05 4.615633738e-05)
5(6.784252775e-05 6.075911063e-05 5.723628901e-05 5.134417805e-05 4.785995922e-05)
5(7.164811443e-05 6.409066108e-05 5.969977071e-05 5.348902633e-05 4.941842353e-05)
5(7.557565993e-05 6.744435086e-05 6.228969992e-05 5.566461242e-05 5.121868419e-05)
5(7.93656063e-05 7.067830018e-05 6.507121169e-05 5.79005822e-05 5.311446319e-05)
5(8.346109442e-05 7.39444367e-05 6.789122579e-05 6.0052358e-05 5.489743902e-05)
5(8.744317538e-05 7.719558964e-05 7.058741754e-05 6.212802278e-05 5.663553134e-05)
5(9.173376215e-05 8.027289991e-05 7.317135422e-05 6.407158416e-05 5.805440242e-05)
5(9.511123643e-05 8.325281482e-05 7.563076468e-05 6.589622615e-05 5.949027904e-05)
5(9.84995054e-05 8.610888322e-05 7.800318082e-05 6.757565717e-05 6.075134762e-05)
5(0.0001023485665 8.889037479e-05 8.01147942e-05 6.918058611e-05 6.176352813e-05)
5(0.0001057998333 9.148070924e-05 8.203722192e-05 7.06214783e-05 6.262190281e-05)
5(0.0001090374256 9.387196146e-05 8.385961219e-05 7.168617836e-05 6.325255767e-05)
5(0.0001121647433 9.608523067e-05 8.534787141e-05 7.252393389e-05 6.374633075e-05)
5(0.0001147868968 9.799400218e-05 8.648878158e-05 7.306463552e-05 6.382732635e-05)
5(0.0001171863097 9.950994005e-05 8.731707978e-05 7.329454256e-05 6.383479142e-05)
5(0.0001192670649 0.0001006547933 8.781186957e-05 7.319378088e-05 6.328187755e-05)
5(0.000120937957 0.0001012770383 8.77724305e-05 7.266419484e-05 6.242105396e-05)
5(0.0001216110359 0.0001013489386 8.716354198e-05 7.166375564e-05 6.117227766e-05)
5(0.000122053519 0.0001008651029 8.604697481e-05 7.026367693e-05 5.969672753e-05)
5(0.000121341299 9.953271013e-05 8.437576915e-05 6.841403049e-05 5.769979692e-05)
5(0.0001200136981 9.764045932e-05 8.21230022e-05 6.615049472e-05 5.54321811e-05)
5(0.0001179018109 9.507511426e-05 7.921357469e-05 6.337890658e-05 5.301345133e-05)
5(0.0001150346769 9.167887111e-05 7.578426661e-05 6.025586058e-05 5.035320457e-05)
5(0.0001109005164 8.752274524e-05 7.186486331e-05 5.682181626e-05 4.755665037e-05)
5(0.000105637872 8.272372009e-05 6.745719362e-05 5.317378355e-05 4.485285065e-05)
5(9.966518394e-05 7.727972684e-05 6.262983746e-05 4.939454345e-05 4.18767036e-05)
5(9.285479163e-05 7.146012433e-05 5.753950965e-05 4.564809582e-05 3.928293807e-05)
5(8.548865109e-05 6.515098183e-05 5.240844565e-05 4.203102101e-05 3.699123465e-05)
5(7.727710294e-05 5.859361418e-05 4.736334288e-05 3.870967188e-05 3.51404568e-05)
5(6.878265566e-05 5.220561832e-05 4.259430631e-05 3.584400806e-05 3.381525128e-05)
5(6.022007235e-05 4.600745328e-05 3.8308253e-05 3.351983024e-05 3.312822736e-05)
5(5.184491363e-05 4.0204231e-05 3.467619082e-05 3.187425765e-05 3.296272071e-05)
5(4.40857332e-05 3.526007158e-05 3.185164208e-05 3.095956324e-05 3.329542219e-05)
5(3.725691889e-05 3.127460199e-05 2.990623453e-05 3.069479348e-05 3.387490014e-05)
5(3.169061083e-05 2.843387392e-05 2.880708656e-05 3.087977509e-05 3.458823864e-05)
5(2.751679858e-05 2.673395584e-05 2.838262022e-05 3.119077599e-05 3.472446835e-05)
5(2.502929933e-05 2.592636064e-05 2.828189183e-05 3.119338517e-05 3.399412136e-05)
5(2.380305461e-05 2.575021024e-05 2.79523002e-05 3.035897449e-05 3.187460591e-05)
5(2.365190946e-05 2.569946273e-05 2.707528979e-05 2.830774619e-05 2.827525195e-05)
5(2.398765652e-05 2.509519929e-05 2.507799525e-05 2.491854122e-05 2.329368864e-05)
5(2.405478085e-05 2.357688454e-05 2.176098484e-05 2.028662396e-05 1.755397911e-05)
5(2.317293094e-05 2.076653219e-05 1.740021825e-05 1.497286957e-05 1.185107781e-05)
5(2.099297142e-05 1.677892654e-05 1.249991387e-05 9.888247104e-06 7.008103918e-06)
5(1.743330134e-05 1.212383393e-05 7.875201833e-06 5.635101772e-06 3.57319132e-06)
5(1.300867824e-05 7.576402266e-06 4.210971105e-06 2.727815962e-06 1.545154439e-06)
5(8.427032561e-06 4.020069783e-06 1.838534789e-06 1.056209779e-06 5.150570748e-07)
5(4.520431469e-06 1.718714244e-06 6.176467745e-07 3.189191331e-07 1.46541851e-07)
5(1.857452558e-06 5.317911732e-07 1.507198237e-07 6.798999025e-08 2.905324774e-08)
5(6.17494596e-07 1.13553342e-07 2.336975647e-08 9.93336565e-09 3.408279314e-09)
5(1.245471082e-07 1.407307196e-08 1.806407815e-09 8.985487884e-10 3.145672058e-10)
5(1.259732639e-08 9.311177452e-10 8.203925069e-11 3.285267118e-11 1.126591727e-11)
5(8.67475753e-10 3.583700259e-10 -1.734500949e-12 2.385560022e-10 9.043287758e-14)
5(9.261483209e-10 4.162379348e-12 2.993310943e-09 2.084684555e-17 2.11460681e-17)
)


60
(
5(4.320134881e-05 3.588576813e-05 4.996133105e-05 4.872223502e-05 5.270953019e-05)
5(5.486478661e-05 5.006973431e-05 5.285147738e-05 5.186039707e-05 5.081137058e-05)
5(6.279809177e-05 5.988602139e-05 5.727490641e-05 5.572318213e-05 5.193708753e-05)
5(6.924966918e-05 6.64667981e-05 6.310836363e-05 6.030099715e-05 5.561707134e-05)
5(7.669075436e-05 7.23610741e-05 6.956484348e-05 6.525071264e-05 6.078203818e-05)
5(8.464174326e-05 7.838513985e-05 7.56251251e-05 7.007043629e-05 6.606752718e-05)
5(9.138929912e-05 8.390604825e-05 8.078544441e-05 7.420339941e-05 7.017726929e-05)
5(9.743578071e-05 8.905943398e-05 8.506179424e-05 7.780073584e-05 7.303766111e-05)
5(0.0001029396049 9.406015414e-05 8.900162439e-05 8.123946523e-05 7.571535226e-05)
5(0.0001086686336 9.901641001e-05 9.299866322e-05 8.469474912e-05 7.846137371e-05)
5(0.00011459174 0.0001039938078 9.721514459e-05 8.811381409e-05 8.148634054e-05)
5(0.0001202552199 0.000108865634 0.0001014090515 9.14428888e-05 8.425330812e-05)
5(0.0001261005713 0.0001136343257 0.0001054834387 9.46634394e-05 8.707584067e-05)
5(0.0001315513105 0.0001182422435 0.000109338648 9.769249367e-05 8.916939778e-05)
5(0.0001373809741 0.0001227010423 0.000113058011 0.000100506604 9.162722303e-05)
5(0.0001426675937 0.0001270627467 0.0001166210862 0.0001031348795 9.339791045e-05)
5(0.0001477017709 0.0001311832545 0.0001199379157 0.0001056100617 9.534098863e-05)
5(0.000153155595 0.0001351359408 0.0001229941746 0.0001077239407 9.676783137e-05)
5(0.0001574552087 0.0001388179061 0.0001257068949 0.0001095485038 9.784987838e-05)
5(0.0001622555515 0.00014211382 0.0001280395423 0.0001110300335 9.880300268e-05)
5(0.0001663230714 0.0001449670305 0.0001299767581 0.0001121124947 9.905038304e-05)
5(0.0001694603364 0.0001473964461 0.0001313446956 0.000112694167 9.891967786e-05)
5(0.0001727924342 0.0001492303959 0.0001321561231 0.0001127112736 9.823417361e-05)
5(0.0001754112091 0.000150365963 0.0001322446707 0.0001120978943 9.705019725e-05)
5(0.0001766907602 0.0001506949101 0.0001317105732 0.0001108621451 9.551581814e-05)
5(0.0001774247362 0.0001501831532 0.0001304574015 0.0001089237691 9.315300437e-05)
5(0.0001773620822 0.0001487982603 0.0001283212631 0.0001062967555 9.017669607e-05)
5(0.0001756557332 0.0001464564566 0.0001251348927 0.0001029862916 8.698871847e-05)
5(0.0001724445861 0.0001429461049 0.0001210579664 9.890117822e-05 8.267363908e-05)
5(0.0001685790824 0.0001382434855 0.0001161926103 9.41120365e-05 7.833901339e-05)
5(0.0001630102553 0.0001326145455 0.0001104152715 8.873400043e-05 7.351573892e-05)
5(0.0001562219236 0.0001259311093 0.0001037010591 8.281683892e-05 6.843247479e-05)
5(0.0001479754895 0.0001180100998 9.644317625e-05 7.652698782e-05 6.305718787e-05)
5(0.0001380700803 0.0001093531694 8.860805683e-05 6.996811219e-05 5.807198737e-05)
5(0.0001276893045 9.99260538e-05 8.04295973e-05 6.340238886e-05 5.279913337e-05)
5(0.0001157095374 9.007358012e-05 7.206783334e-05 5.704207091e-05 4.821300972e-05)
5(0.0001035998875 7.998106663e-05 6.38080654e-05 5.106028228e-05 4.418028951e-05)
5(9.071135985e-05 6.980936022e-05 5.604263711e-05 4.56692229e-05 4.088150822e-05)
5(7.808677231e-05 6.00856418e-05 4.889783883e-05 4.113670323e-05 3.844339314e-05)
5(6.590714663e-05 5.127493564e-05 4.270577703e-05 3.760309124e-05 3.681173583e-05)
5(5.482210299e-05 4.360392537e-05 3.7816098e-05 3.512118215e-05 3.611542377e-05)
5(4.498207545e-05 3.746539477e-05 3.427726446e-05 3.371794763e-05 3.591035878e-05)
5(3.733428081e-05 3.300229604e-05 3.212976659e-05 3.310585979e-05 3.602329261e-05)
5(3.166245984e-05 3.014914597e-05 3.098205627e-05 3.288604226e-05 3.574831015e-05)
5(2.82352571e-05 2.885681091e-05 3.046428946e-05 3.24921407e-05 3.465804938e-05)
5(2.672931759e-05 2.861517718e-05 3.00543901e-05 3.133059032e-05 3.226520046e-05)
5(2.663987367e-05 2.868140523e-05 2.904023415e-05 2.891984449e-05 2.827443803e-05)
5(2.714269809e-05 2.829756001e-05 2.675878436e-05 2.515617293e-05 2.308043706e-05)
5(2.752374454e-05 2.683318669e-05 2.316238432e-05 2.018722605e-05 1.709707935e-05)
5(2.689393501e-05 2.388097188e-05 1.841979882e-05 1.464057437e-05 1.130985286e-05)
5(2.472837164e-05 1.950360898e-05 1.30796081e-05 9.36938156e-06 6.536678291e-06)
5(2.098721852e-05 1.442337642e-05 8.063858783e-06 5.15392372e-06 3.219774587e-06)
5(1.60249319e-05 9.115139342e-06 4.23337678e-06 2.315088232e-06 1.284017593e-06)
5(1.092661202e-05 4.899270981e-06 1.75192343e-06 8.448182931e-07 4.12971828e-07)
5(6.087457791e-06 2.11712442e-06 5.41546458e-07 2.223565206e-07 9.297764378e-08)
5(3.012655808e-06 6.819548161e-07 1.030051882e-07 3.860476392e-08 1.450640549e-08)
5(1.082765274e-06 1.702520413e-07 1.580089977e-08 3.911115516e-09 1.170513492e-09)
5(3.074799392e-07 1.936188446e-08 1.016507825e-09 1.975085877e-10 5.966596843e-11)
5(6.861218729e-08 1.356297316e-09 3.55159395e-11 -4.240465571e-10 3.95047772e-13)
5(8.704663849e-08 -1.460986029e-08 1.127935783e-08 -2.76518029e-10 1.578147609e-10)
)


60
(
5(5.467696002e-05 4.746855943e-05 6.511940281e-05 6.596148123e-05 7.032000709e-05)
5(7.197377865e-05 6.753025371e-05 7.157530294e-05 7.185111387e-05 7.069966412e-05)
5(8.374802243e-05 8.142936569e-05 7.910049594e-05 7.817450497e-05 7.382814403e-05)
5(9.309767952e-05 9.058321405e-05 8.764060456e-05 8.49319148e-05 7.93390219e-05)
5(0.0001031503226 9.874096761e-05 9.646408347e-05 9.19031894e-05 8.670522198e-05)
5(0.0001136848564 0.0001071421778 0.0001046626701 9.860233145e-05 9.40621909e-05)
5(0.0001226501475 0.0001147838818 0.0001118384094 0.000104504902 9.949037228e-05)
5(0.0001310244235 0.0001220197661 0.0001179496724 0.0001097539759 0.0001042018769)
5(0.0001384948463 0.0001290267277 0.0001236118825 0.0001147211488 0.0001079797129)
5(0.0001467079012 0.000135857439 0.0001293159071 0.0001196803909 0.000112200935)
5(0.000154532838 0.0001427559041 0.0001352582482 0.0001246107362 0.0001164080243)
5(0.0001626979614 0.0001494276138 0.0001411378377 0.0001294224245 0.0001206170264)
5(0.000170369158 0.0001559967655 0.0001468797068 0.0001340034218 0.0001244248159)
5(0.0001776522964 0.0001624009547 0.0001522606872 0.0001383317718 0.0001279906752)
5(0.0001854771236 0.000168687419 0.0001574501423 0.0001424190696 0.0001311430072)
5(0.0001928716287 0.0001747670838 0.0001623646381 0.0001462485582 0.0001339863698)
5(0.0002001212524 0.0001806083301 0.0001671643831 0.0001497377706 0.0001366921525)
5(0.0002064923211 0.0001861216359 0.0001715832962 0.0001528082511 0.0001389753037)
5(0.0002135397171 0.0001912154702 0.000175466042 0.0001556668762 0.0001408596234)
5(0.000219358817 0.0001958220514 0.0001789112834 0.0001580264641 0.0001421292992)
5(0.000225190044 0.000199867713 0.0001817637364 0.0001598150362 0.0001428779215)
5(0.0002303332315 0.0002034923164 0.0001839808253 0.0001609055105 0.0001431589779)
5(0.0002338762508 0.0002062057059 0.0001853830395 0.0001611967845 0.0001424474165)
5(0.0002376069011 0.0002079345075 0.0001859658033 0.0001606985242 0.0001413598532)
5(0.0002403318747 0.0002087255938 0.0001856445341 0.0001592756013 0.0001395021156)
5(0.0002407299188 0.0002084478865 0.0001841808983 0.0001568925362 0.0001361097217)
5(0.0002411875013 0.000207033286 0.000181526836 0.0001536681157 0.000132624684)
5(0.0002389174037 0.0002042048371 0.0001776261938 0.0001494809209 0.0001281691798)
5(0.0002360321008 0.0001997894664 0.0001726974288 0.0001441977858 0.0001223592602)
5(0.0002308864625 0.0001941610359 0.0001664885803 0.0001378035476 0.0001165099088)
5(0.0002250059882 0.0001871595428 0.0001588983752 0.0001306072888 0.0001091608302)
5(0.0002152054359 0.000178444171 0.0001499932687 0.0001224757802 0.0001016757057)
5(0.000204825312 0.0001684023163 0.0001401303702 0.0001135802541 9.366294349e-05)
5(0.0001927773985 0.0001569019009 0.0001294013513 0.0001040505355 8.575818765e-05)
5(0.0001783783992 0.0001442821653 0.0001178274013 9.421102213e-05 7.724722387e-05)
5(0.0001628610138 0.0001309081398 0.000105939944 8.427521125e-05 6.916942894e-05)
5(0.0001466583067 0.0001165734623 9.384441958e-05 7.457223442e-05 6.18344149e-05)
5(0.0001293318991 0.0001022441195 8.193497822e-05 6.550198597e-05 5.523212581e-05)
5(0.0001119088391 8.817604694e-05 7.061050459e-05 5.736393213e-05 4.961555189e-05)
5(9.51057883e-05 7.47063362e-05 6.034015965e-05 5.031770971e-05 4.507308403e-05)
5(7.873904017e-05 6.25792834e-05 5.15682695e-05 4.460471411e-05 4.193264037e-05)
5(6.435591479e-05 5.209958838e-05 4.452626906e-05 4.050580652e-05 4.002699044e-05)
5(5.238631861e-05 4.372208065e-05 3.936584754e-05 3.787967638e-05 3.900978858e-05)
5(4.246729582e-05 3.771616968e-05 3.609508217e-05 3.641386513e-05 3.845109988e-05)
5(3.55186198e-05 3.398424778e-05 3.448976279e-05 3.568386202e-05 3.772863465e-05)
5(3.123750925e-05 3.225504959e-05 3.374577281e-05 3.491568676e-05 3.60917009e-05)
5(2.9307602e-05 3.189947804e-05 3.325012686e-05 3.339711364e-05 3.317727764e-05)
5(2.904354678e-05 3.201748843e-05 3.216720296e-05 3.065872939e-05 2.875781663e-05)
5(2.965641639e-05 3.179717504e-05 2.983552057e-05 2.645901914e-05 2.311157478e-05)
5(3.018182461e-05 3.033024085e-05 2.594754308e-05 2.100484486e-05 1.680036398e-05)
5(2.973967461e-05 2.730552454e-05 2.071331436e-05 1.504167295e-05 1.083711412e-05)
5(2.784545718e-05 2.275240965e-05 1.479790894e-05 9.475642144e-06 5.961495116e-06)
5(2.434709894e-05 1.706710977e-05 9.267370102e-06 5.040484806e-06 2.826305557e-06)