/*--------------------------------*- C++ -*----------------------------------*\
| =========                 |                                                 |
| \\      /  F ield         | OpenFOAM: The Open Source CFD Toolbox           |
|  \\    /   O peration     | Version:  2.3.1                                 |
|   \\  /    A nd           | Web:      www.OpenFOAM.org                      |
|    \\/     M anipulation  |                                                 |
\*---------------------------------------------------------------------------*/
FoamFile
{
    version     2.0;
    format      ascii;
    class       dictionary;
    location    "constant";
    object      GRPSI45;
}
// * * * * * * * * * * * * * * * * * * * * * * * * * * * * * * * * * * * * * //

GRPSI45_table
60
(

60
(
5(-83574.44 -98974.175 -98864.33 -92317.38 -101280.01)
5(-81161.14808 -99711.07989 -98662.3606 -93502.53218 -107941.3549)
5(-70013.43167 -96791.7672 -100492.0665 -97842.93049 -118271.8307)
5(-63726.54461 -92876.50449 -100805.6822 -91672.9868 -103761.0736)
5(-66472.62962 -92993.22254 -97897.56441 -91801.51586 -107321.7184)
5(-70856.42851 -95452.72951 -96190.49469 -89806.68822 -107281.4176)
5(-71396.56642 -94324.2463 -95295.76245 -87495.20753 -101650.8163)
5(-68661.02089 -91359.62088 -93646.50037 -89165.49787 -105096.2159)
5(-68525.57896 -90806.67137 -92303.20292 -86969.25896 -102419.8759)
5(-67127.31772 -88914.17927 -91199.03212 -86062.47433 -100427.9252)
5(-66295.41624 -87614.8342 -89780.73021 -84845.93939 -99064.67053)
5(-65158.93602 -86385.77141 -88398.33481 -83644.75068 -98105.43853)
5(-63679.16947 -84817.12134 -86904.69255 -82300.34733 -96746.38278)
5(-63007.91168 -83554.24169 -85794.53314 -81344.58692 -95200.67926)
5(-61798.81939 -82050.12904 -84239.24934 -80144.73233 -94112.40468)
5(-60849.27821 -80623.44043 -82888.98561 -79049.08333 -92717.79809)
5(-59864.34954 -79194.01652 -81502.76492 -77812.52361 -91143.20086)
5(-58833.51844 -77753.51202 -80058.19485 -76637.91437 -89832.94463)
5(-57742.08928 -76293.01943 -78723.60066 -75499.23536 -88395.21897)
5(-56665.34783 -74855.21491 -77303.8714 -74459.49395 -87356.32708)
5(-55730.88204 -73487.92671 -75913.50482 -73249.56694 -85917.09562)
5(-54737.47878 -72025.06337 -74807.3434 -72330.60589 -84359.17294)
5(-53776.57894 -70679.68638 -73304.76105 -70995.42244 -82964.11661)
5(-52514.22003 -69199.62921 -72021.51261 -69900.20719 -81642.42757)
5(-51532.82656 -67754.87603 -70578.13483 -68730.15383 -80280.96348)
5(-50524.29362 -66215.17355 -69080.47876 -67702.4798 -79150.05557)
5(-49607.18945 -64891.85006 -67620.71238 -66448.46437 -77832.01467)
5(-48528.06108 -63360.24084 -66220.29833 -65383.86043 -76519.54482)
5(-47562.85539 -62053.1611 -64939.06696 -64161.66902 -74988.67092)
5(-46427.35349 -60652.69338 -63750.15835 -63049.23503 -73476.18663)
5(-45403.07461 -59187.03907 -62334.80246 -61958.85755 -72219.11371)
5(-44440.31217 -57846.15611 -61117.98945 -61094.78814 -71205.59744)
5(-43315.34696 -56350.33289 -59783.46782 -59670.70821 -69159.7996)
5(-42221.12599 -54841.55756 -58537.26892 -59058.73534 -68504.92197)
5(-41289.6438 -53485.18818 -57174.95089 -57895.83285 -67122.49647)
5(-40022.44654 -51794.64396 -55921.15782 -57064.74426 -65854.01425)
5(-39402.12437 -50836.64448 -54599.92053 -55460.77566 -63992.87483)
5(-38140.87304 -49429.17654 -53290.92982 -55206.01093 -64547.64226)
5(-37305.2782 -47948.56089 -52041.07141 -53408.48513 -61326.67102)
5(-36524.21227 -46498.75903 -50666.84371 -55561.7521 -66263.12256)
5(-35832.43724 -45434.63615 -49354.25486 -54133.52021 -64595.36577)
5(-34749.99703 -44077.3669 -49020.81461 -53043.11064 -61449.32884)
5(-34199.47928 -42898.62801 -49792.29971 -51722.30589 -55457.78912)
5(-33055.27521 -40598.15605 -48606.3184 -51399.75513 -53727.91035)
5(-32449.09357 -39575.51131 -47106.88354 -49967.1282 -52422.41837)
5(-30844.62978 -38615.57473 -45784.07934 -48051.96564 -50922.29228)
5(-30107.9289 -39502.37933 -44008.51267 -44235.15798 -49350.12037)
5(-30757.99641 -38672.45585 -41439.90491 -41970.1953 -47647.49606)
5(-29145.60297 -37085.87825 -39971.68737 -40400.99949 -45884.77779)
5(-32734.35161 -35269.16346 -35726.26194 -38837.78529 -44027.02202)
5(-30719.57745 -33148.95148 -33928.52207 -37166.72805 -42054.73746)
5(-25074.41811 -29216.85413 -32080.18493 -35367.87117 -39934.66264)
5(-22077.04634 -26561.17743 -30114.01291 -33413.19269 -37643.66807)
5(-20386.14205 -24489.89406 -28007.66747 -31264.93073 -35108.1726)
5(-18848.34507 -22423.99933 -25727.24991 -28909.04198 -32363.23774)
5(-17542.41145 -20387.00677 -23278.24065 -26323.19862 -29321.51803)
5(-16658.5243 -18462.75688 -20629.25904 -23583.15798 -26174.78734)
5(-14638.65012 -16130.64726 -18096.65846 -20706.40295 -22842.13339)
5(-11819.51604 -12844.71024 -16988.54462 -18145.66968 -16184.15455)
5(-8002.636 -8149.747 -8083.0095 -10986.1965 -14103.232)
)


60
(
5(-85429.85744 -98376.18833 -97622.30333 -91921.67801 -99921.26857)
5(-79885.29943 -98936.73414 -98908.87018 -92867.55421 -105905.5369)
5(-76553.29861 -98287.17331 -98757.62482 -92798.99174 -108103.7818)
5(-74867.10359 -96864.62153 -97657.06706 -91921.49885 -107391.003)
5(-74154.78817 -95191.40095 -96129.20175 -90534.76233 -105039.1349)
5(-73760.71262 -93673.26612 -94598.91026 -89030.16728 -102448.3337)
5(-73026.26231 -92333.22297 -93209.67047 -87750.39206 -100721.6268)
5(-71949.99345 -91013.14762 -91920.29396 -86660.73003 -99557.17392)
5(-70803.81363 -89703.19031 -90653.11305 -85582.90906 -98462.159)
5(-69742.08945 -88359.30917 -89338.59803 -84449.02412 -97197.38106)
5(-68716.09764 -86967.30283 -87994.00336 -83270.19027 -95770.88184)
5(-67748.90976 -85564.69968 -86641.05312 -82096.76872 -94291.92082)
5(-66760.90483 -84165.70251 -85295.72882 -80957.55455 -92894.15166)
5(-65745.29806 -82777.3522 -83949.39106 -79821.2886 -91553.20142)
5(-64723.35404 -81392.12209 -82612.56507 -78684.1685 -90204.09702)
5(-63697.27811 -80000.26083 -81280.09411 -77553.22313 -88849.5016)
5(-62673.56744 -78600.63405 -79938.35368 -76421.19063 -87493.37457)
5(-61648.13341 -77203.59583 -78599.75752 -75288.5111 -86136.56541)
5(-60631.0147 -75809.91521 -77251.43838 -74156.36241 -84798.66377)
5(-59602.61852 -74417.58711 -75905.59439 -73015.57812 -83452.52315)
5(-58576.52054 -73025.25257 -74568.14176 -71891.44328 -82120.58762)
5(-57544.46899 -71634.02255 -73236.77103 -70765.94527 -80781.92459)
5(-56507.49646 -70239.26729 -71916.84622 -69640.39175 -79418.12917)
5(-55474.3323 -68844.92222 -70606.17429 -68532.3041 -78067.77176)
5(-54447.63655 -67453.84977 -69279.29259 -67418.50672 -76738.49125)
5(-53419.15094 -66054.70114 -67946.82339 -66319.95818 -75436.52094)
5(-52401.45968 -64664.46615 -66612.23757 -65222.1818 -74147.36108)
5(-51366.98816 -63276.00833 -65298.35456 -64136.05532 -72860.43002)
5(-50343.52825 -61891.73596 -63995.79709 -63049.37302 -71547.09553)
5(-49334.78901 -60516.97725 -62697.04072 -61983.09735 -70271.27874)
5(-48331.15114 -59146.4444 -61407.3173 -60925.11227 -68997.3276)
5(-47328.71576 -57789.62918 -60133.18304 -59888.21477 -67760.60605)
5(-46339.69908 -56436.89815 -58874.27646 -58887.46586 -66560.47601)
5(-45365.2855 -55103.20985 -57636.80117 -57929.3262 -65426.18425)
5(-44393.94743 -53781.54819 -56437.113 -57017.36538 -64329.65372)
5(-43477.88702 -52496.01937 -55263.23864 -56134.86094 -63257.39632)
5(-42577.86826 -51234.152 -54131.12814 -55256.59225 -62141.36397)
5(-41717.62099 -50012.70727 -53039.29191 -54404.86512 -61038.93994)
5(-40944.3522 -48847.70802 -51974.76309 -53666.79271 -60135.12308)
5(-40160.31627 -47734.98992 -50994.92212 -53158.54318 -59636.90569)
5(-39478.50103 -46701.09885 -50069.15878 -52922.47123 -59630.32159)
5(-38763.72904 -45660.49062 -49306.27922 -52914.68903 -59774.07183)
5(-38204.61826 -44663.00957 -48721.03486 -52967.49867 -59614.32851)
5(-37747.45114 -43647.10632 -48325.64264 -52935.00172 -58765.47966)
5(-37185.18176 -42680.99143 -48089.0085 -52702.26705 -57403.3182)
5(-36520.7089 -41822.46987 -47825.56304 -52162.02735 -55797.15946)
5(-35697.02603 -41153.40209 -47425.04663 -51169.88279 -54099.45046)
5(-34896.27506 -40568.99919 -46729.34083 -49756.9453 -52296.93227)
5(-34311.55175 -39931.61551 -45640.68453 -47999.1857 -50268.6816)
5(-34003.16882 -39060.06503 -44039.73707 -45962.42118 -47962.32946)
5(-33822.10524 -37889.06493 -41952.48061 -43702.18092 -45455.42522)
5(-33215.51325 -36282.42001 -39506.27467 -41215.80806 -42768.39355)
5(-31897.80432 -34197.84901 -36858.84888 -38569.74496 -39919.68587)
5(-29853.52255 -31653.28194 -34019.47313 -35694.79959 -36803.69425)
5(-27168.30998 -28724.67869 -30977.84866 -32589.75914 -33504.86834)
5(-24199.8092 -25550.06237 -27685.42979 -29184.68214 -29898.82023)
5(-21062.12669 -22158.43423 -24119.79458 -25462.28699 -25939.72658)
5(-17851.32267 -18639.13723 -20276.55874 -21355.52407 -21584.88244)
5(-14774.53714 -15092.49465 -16055.98113 -16729.39941 -16757.28871)
5(-11424.63624 -12083.96366 -11242.68832 -10503.8346 -11265.58365)
)


60
(
5(-87944.63518 -97844.71194 -96296.49369 -91571.61912 -98295.03955)
5(-82471.64601 -98467.7265 -97800.80555 -92385.51231 -103633.2205)
5(-79190.33555 -97742.29489 -97678.62522 -92229.92601 -105396.8558)
5(-77472.69142 -96252.19329 -96553.54406 -91339.79416 -104604.1954)
5(-76699.15118 -94591.71774 -95037.55453 -89979.35 -102367.8752)
5(-76180.14793 -93095.19707 -93526.28313 -88489.08462 -99935.8492)
5(-75369.28119 -91730.92628 -92141.34033 -87215.73796 -98241.36664)
5(-74225.36983 -90396.36673 -90854.14591 -86099.94475 -97058.9613)
5(-73014.10977 -89067.85688 -89577.68987 -85001.03394 -95968.29213)
5(-71877.51826 -87704.58735 -88257.78384 -83829.0824 -94674.25354)
5(-70792.70846 -86297.1661 -86905.43678 -82645.5571 -93281.86436)
5(-69744.23243 -84879.63717 -85543.13213 -81463.56689 -91855.91144)
5(-68686.00849 -83465.9111 -84190.09441 -80304.95579 -90475.53648)
5(-67597.45517 -82059.2292 -82843.07838 -79155.55979 -89145.96606)
5(-66497.80424 -80651.5555 -81503.56568 -78009.61846 -87817.41232)
5(-65395.56779 -79240.87912 -80158.21411 -76861.14729 -86492.05682)
5(-64307.45598 -77826.77994 -78808.33947 -75712.01039 -85153.44573)
5(-63210.1729 -76413.54961 -77457.83691 -74564.14185 -83829.53619)
5(-62117.13163 -74997.84163 -76103.51331 -73414.64775 -82500.82051)
5(-61014.47236 -73585.07923 -74748.86695 -72265.77826 -81189.50873)
5(-59902.46339 -72169.09924 -73401.93957 -71118.16021 -79868.17637)
5(-58800.73753 -70760.35421 -72064.49036 -69977.61493 -78546.22004)
5(-57686.53059 -69342.40835 -70730.4207 -68842.40733 -77222.25938)
5(-56581.20364 -67927.74585 -69400.34973 -67713.14371 -75899.87602)
5(-55470.5307 -66507.56041 -68065.30826 -66590.29528 -74594.56416)
5(-54368.19475 -65092.32984 -66716.63186 -65473.01085 -73329.22291)
5(-53262.22793 -63675.54459 -65379.05164 -64356.77478 -72044.30753)
5(-52150.47635 -62263.04007 -64044.03917 -63250.86054 -70789.24654)
5(-51055.64776 -60858.996 -62724.39757 -62146.56604 -69506.68117)
5(-49963.0671 -59449.47259 -61406.29591 -61063.59521 -68250.4767)
5(-48865.73278 -58050.94867 -60106.16564 -59986.86807 -66997.56944)
5(-47773.76195 -56657.34534 -58812.85405 -58933.55458 -65782.32978)
5(-46697.31154 -55273.53274 -57525.83993 -57916.25813 -64630.59033)
5(-45625.35167 -53893.21357 -56271.10754 -56941.60705 -63502.07449)
5(-44554.28987 -52529.7377 -55043.34929 -56012.59314 -62443.67324)
5(-43477.7361 -51170.93702 -53839.86978 -55111.73609 -61407.87057)
5(-42486.91984 -49855.87329 -52665.88309 -54231.31475 -60355.69005)
5(-41480.48077 -48556.12738 -51535.44228 -53382.86918 -59326.6278)
5(-40503.59443 -47314.22339 -50465.9738 -52659.03002 -58510.9648)
5(-39561.82351 -46099.82745 -49448.85802 -52179.77591 -58099.66717)
5(-38638.37551 -44911.27 -48504.61535 -52001.11926 -58177.17232)
5(-37765.71252 -43795.33222 -47722.3496 -52019.98893 -58420.23058)
5(-36934.45969 -42665.13467 -47131.88599 -52150.24181 -58432.52129)
5(-36156.82624 -41536.66797 -46756.9892 -52258.76503 -57920.06137)
5(-35422.88642 -40477.49405 -46501.26818 -52195.67392 -56920.91319)
5(-34560.56164 -39545.68 -46301.78335 -51858.72857 -55644.6888)
5(-33571.5706 -38781.62786 -45988.68179 -51133.2615 -54280.84455)
5(-32625.97712 -38119.81048 -45427.45654 -50006.23415 -52771.19905)
5(-31940.64461 -37432.41878 -44474.00034 -48512.75574 -51001.70376)
5(-31511.36991 -36597.48716 -43083.17542 -46689.34777 -48895.94911)
5(-31205.76897 -35498.15265 -41222.34352 -44552.96272 -46451.77474)
5(-30633.32808 -34039.53189 -39001.23682 -42165.86079 -43774.98364)
5(-29474.83366 -32169.38093 -36505.42381 -39510.00024 -40873.08105)
5(-27682.32606 -29890.49046 -33781.67288 -36582.32519 -37699.95949)
5(-25464.8588 -27264.59033 -30763.54273 -33348.71263 -34234.66166)
5(-22881.09007 -24342.3791 -27478.07752 -29793.16224 -30433.83755)
5(-20054.79979 -21174.05624 -23886.58023 -25885.00505 -26290.16233)
5(-17123.77778 -17830.46098 -19947.46101 -21568.80336 -21779.82888)
5(-14122.2957 -14319.85557 -15682.4138 -16814.5848 -16781.75743)
5(-10724.95452 -11217.46308 -10792.95778 -10397.75139 -10919.55886)
)


60
(
5(-90158.31112 -97325.49241 -95058.93273 -91219.95241 -96814.71306)
5(-84689.61525 -98056.7194 -96842.54329 -91966.00243 -101670.7418)
5(-81376.61824 -97292.08117 -96793.97518 -91778.04387 -103175.6815)
5(-79613.96072 -95736.0704 -95654.0382 -90882.55965 -102315.223)
5(-78776.23373 -94066.87022 -94137.81989 -89535.52326 -100152.9134)
5(-78174.88486 -92580.7006 -92637.07873 -88042.11499 -97796.58888)
5(-77287.47779 -91198.57016 -91254.15108 -86761.60978 -96124.57994)
5(-76078.88825 -89840.29411 -89958.24947 -85626.73362 -94938.66827)
5(-74804.89154 -88490.10001 -88669.4445 -84501.55114 -93839.52175)
5(-73599.79413 -87105.11368 -87339.60902 -83318.1419 -92567.49897)
5(-72454.68433 -85684.08755 -85978.65111 -82115.84781 -91187.88418)
5(-71331.65436 -84246.2463 -84608.89936 -80916.31531 -89775.67013)
5(-70202.34534 -82810.49428 -83242.37185 -79739.29768 -88412.49488)
5(-69047.61464 -81382.41629 -81882.27252 -78575.46907 -87103.61105)
5(-67880.50626 -79953.71701 -80527.67754 -77407.31437 -85786.20142)
5(-66715.74766 -78519.09822 -79169.31885 -76243.28033 -84470.37174)
5(-65549.631 -77081.31606 -77807.3739 -75074.07005 -83146.39344)
5(-64385.00938 -75643.47943 -76448.05285 -73905.50412 -81816.85202)
5(-63217.95543 -74206.18858 -75075.31555 -72738.22313 -80520.23689)
5(-62045.08216 -72767.25038 -73705.89803 -71569.26868 -79216.15991)
5(-60863.47494 -71326.67162 -72343.12946 -70407.8823 -77919.37399)
5(-59686.95812 -69890.54804 -70986.82855 -69243.21976 -76606.92038)
5(-58507.31314 -68449.4819 -69634.88637 -68085.21154 -75292.30099)
5(-57326.60575 -67003.57186 -68281.99984 -66932.86654 -73982.27136)
5(-56145.64632 -65559.9097 -66926.60869 -65778.09716 -72677.15002)
5(-54960.02534 -64110.68264 -65565.11642 -64636.36022 -71403.82754)
5(-53782.25137 -62660.44517 -64194.54124 -63501.8807 -70153.3179)
5(-52593.795 -61213.08807 -62836.13982 -62360.57777 -68881.25706)
5(-51412.07256 -59769.29967 -61486.97342 -61240.36562 -67633.31116)
5(-50229.29698 -58322.62479 -60141.53714 -60115.43827 -66363.75487)
5(-49042.25606 -56878.76254 -58801.22679 -59009.77225 -65132.35997)
5(-47855.08675 -55433.23443 -57472.23878 -57917.21869 -63901.34192)
5(-46675.18986 -53993.63073 -56134.40591 -56852.85029 -62748.96037)
5(-45469.68161 -52547.93999 -54840.7324 -55826.41506 -61597.56371)
5(-44291.82654 -51109.43229 -53546.03766 -54849.08546 -60533.13363)
5(-43090.84146 -49683.77137 -52275.06514 -53885.90551 -59498.38201)
5(-41928.67049 -48255.51595 -51021.44852 -52949.85222 -58439.16881)
5(-40751.48355 -46852.64019 -49808.97404 -52043.59861 -57423.04597)
5(-39580.43725 -45454.34482 -48630.61043 -51263.96473 -56594.96098)
5(-38428.68202 -44072.06249 -47499.14996 -50733.94895 -56185.04095)
5(-37246.76344 -42737.27369 -46464.80128 -50465.60703 -56229.39546)
5(-36064.86085 -41397.90336 -45546.28168 -50413.10566 -56464.59383)
5(-34936.51236 -40064.74635 -44822.17815 -50494.64362 -56537.91126)
5(-33846.83303 -38727.36329 -44313.50344 -50567.51316 -56115.91298)
5(-32767.5206 -37464.39111 -43950.01504 -50518.15715 -55297.54585)
5(-31649.84961 -36349.86482 -43627.02313 -50226.18976 -54248.2133)
5(-30490.12571 -35394.17506 -43216.0866 -49626.86331 -53119.77784)
5(-29391.52247 -34622.8251 -42626.21029 -48646.80833 -51895.3238)
5(-28483.80514 -33813.66305 -41721.47238 -47342.87005 -50386.31631)
5(-28053.38684 -32967.81453 -40404.36639 -45728.3679 -48530.24523)
5(-27717.66732 -31926.67138 -38703.59868 -43768.52188 -46265.52185)
5(-27161.16181 -30597.07901 -36666.46886 -41504.36321 -43708.7849)
5(-26151.42888 -28939.46673 -34394.52251 -38939.33463 -40817.12883)
5(-24638.09723 -26936.50401 -31858.02002 -36067.70258 -37654.27592)
5(-22738.98013 -24618.49822 -29029.5812 -32849.44488 -34137.74367)
5(-20494.54342 -22016.98469 -25913.79074 -29263.15119 -30238.14686)
5(-18038.10744 -19170.73136 -22461.39487 -25344.62399 -26069.81351)
5(-15407.82406 -16117.60172 -18705.48423 -21023.96447 -21464.33985)
5(-12617.65737 -12836.1439 -14596.38562 -16238.82587 -16339.51091)
5(-10119.32786 -9623.713619 -9495.433064 -10172.35555 -10481.94435)
)


60
(
5(-91974.54853 -96793.5716 -93888.4157 -90845.66406 -95527.09139)
5(-86499.25074 -97667.24158 -95984.33085 -91554.68293 -99975.9366)
5(-83161.21883 -96893.32561 -96027.69972 -91354.17447 -101278.3819)
5(-81371.70662 -95285.40539 -94878.02976 -90463.31093 -100369.6665)
5(-80503.87825 -93612.74833 -93360.96202 -89118.83255 -98237.35947)
5(-79851.25477 -92146.46203 -91874.89395 -87615.795 -95923.47138)
5(-78922.19805 -90759.19273 -90489.72192 -86324.064 -94264.87157)
5(-77671.86941 -89390.11251 -89186.03238 -85169.81682 -93075.92449)
5(-76363.214 -88033.83211 -87891.53567 -84021.1864 -91963.75168)
5(-75125.4251 -86642.36049 -86552.01896 -82819.34643 -90693.95083)
5(-73934.93893 -85212.8446 -85184.47238 -81597.51224 -89316.82997)
5(-72773.94913 -83766.36312 -83802.4835 -80381.75835 -87917.32679)
5(-71604.51687 -82322.48382 -82427.77248 -79185.82944 -86556.5647)
5(-70403.60889 -80883.24347 -81057.94778 -77997.40123 -85241.78496)
5(-69193.07441 -79445.22604 -79691.34703 -76811.55987 -83937.80335)
5(-67985.18449 -78002.44312 -78319.31053 -75623.09359 -82627.26786)
5(-66781.12976 -76553.09169 -76945.58178 -74432.57153 -81299.03312)
5(-65572.20997 -75101.71869 -75570.87023 -73243.87252 -79977.23199)
5(-64364.22099 -73652.81709 -74184.19141 -72051.46763 -78675.96564)
5(-63144.30778 -72200.04883 -72802.70266 -70861.74744 -77373.87945)
5(-61924.09691 -70745.8926 -71420.53677 -69671.92885 -76070.47244)
5(-60700.04756 -69291.06002 -70046.99664 -68488.22937 -74764.53792)
5(-59473.36401 -67834.79339 -68675.97528 -67301.8792 -73448.0306)
5(-58242.66191 -66375.32944 -67310.85881 -66118.42317 -72123.1257)
5(-57018.09411 -64911.98829 -65931.75778 -64943.67347 -70829.71387)
5(-55770.17785 -63438.00817 -64551.13817 -63770.27569 -69544.11351)
5(-54555.56466 -61968.40834 -63149.72316 -62594.72436 -68271.25442)
5(-53316.9147 -60501.91637 -61768.47745 -61421.57511 -66993.11335)
5(-52092.98085 -59033.10874 -60377.53978 -60254.05825 -65726.27357)
5(-50839.94092 -57553.82427 -59001.99029 -59092.92035 -64449.56774)
5(-49581.56749 -56073.54962 -57630.41817 -57942.86878 -63190.43299)
5(-48339.67565 -54598.05558 -56246.72571 -56797.78782 -61958.55973)
5(-47071.24756 -53105.07335 -54867.91204 -55677.77805 -60758.63116)
5(-45801.75713 -51596.65325 -53498.10663 -54598.40613 -59592.14836)
5(-44508.12978 -50099.67757 -52141.67095 -53534.3453 -58476.57405)
5(-43195.61877 -48589.4771 -50801.80868 -52501.62067 -57382.95943)
5(-41914.77802 -47069.62756 -49460.47152 -51480.84915 -56265.23237)
5(-40594.90385 -45542.02616 -48127.41532 -50485.3625 -55205.04284)
5(-39223.42179 -44007.71026 -46844.32568 -49602.54869 -54308.44475)
5(-37864.0917 -42489.04398 -45578.9984 -48917.4234 -53790.84626)
5(-36454.00396 -40953.94804 -44369.07286 -48516.86716 -53749.48071)
5(-35056.60199 -39414.02437 -43267.35939 -48325.82926 -53888.38648)
5(-33647.61757 -37856.04416 -42335.73632 -48238.75828 -53870.51466)
5(-32233.59834 -36290.33878 -41622.13384 -48165.81366 -53434.43886)
5(-30870.86969 -34781.82878 -41034.0402 -48012.25039 -52649.20827)
5(-29536.456 -33458.7016 -40504.0153 -47668.96179 -51710.84017)
5(-28168.69651 -32343.62402 -39959.99774 -47040.13213 -50678.82031)
5(-26993.00817 -31433.26424 -39257.07763 -46099.448 -49558.26105)
5(-26069.58683 -30594.25037 -38294.34035 -44857.55397 -48245.34116)
5(-25577.79082 -29730.85825 -37015.00601 -43351.68164 -46557.27693)
5(-25266.62466 -28766.69448 -35420.29961 -41543.82891 -44513.8229)
5(-24809.2724 -27600.6487 -33570.55252 -39434.17365 -42119.26726)
5(-23937.85217 -26134.89278 -31501.98517 -37032.80671 -39393.57645)
5(-22608.33169 -24358.27312 -29191.3711 -34315.46119 -36356.39474)
5(-20915.6893 -22307.0859 -26628.33905 -31256.117 -32954.03841)
5(-18921.64697 -20005.9457 -23789.47936 -27815.61285 -29142.51141)
5(-16712.27944 -17461.10815 -20635.68983 -24029.20244 -24996.96208)
5(-14324.81371 -14696.89676 -17140.68796 -19841.44973 -20470.50335)
5(-11792.21348 -11667.953 -13230.84113 -15204.12293 -15490.25612)
5(-9157.136525 -9138.191058 -8892.5042 -9258.362148 -9850.961487)
)


60
(
5(-93386.45874 -96238.24717 -92770.38896 -90436.75852 -94422.77472)
5(-87911.36981 -97280.04304 -95196.67727 -91128.32998 -98512.02168)
5(-84563.67877 -96515.6628 -95344.12964 -90927.68709 -99634.76174)
5(-82763.04724 -94867.10628 -94192.07984 -90046.80991 -98680.62546)
5(-81889.5193 -93202.12894 -92676.25465 -88702.47694 -96567.18314)
5(-81214.68307 -91764.59791 -91204.48664 -87186.56284 -94278.66515)
5(-80269.32738 -90386.15985 -89820.48616 -85880.89373 -92623.80746)
5(-78999.08088 -89017.20132 -88515.99255 -84710.26903 -91423.87471)
5(-77677.55958 -87666.41225 -87215.99508 -83540.05613 -90303.38703)
5(-76421.60504 -86278.44701 -85873.82299 -82318.3976 -89024.43822)
5(-75216.85373 -84854.05787 -84499.56249 -81078.31255 -87648.76212)
5(-74034.90898 -83409.81242 -83112.6239 -79842.53284 -86244.53372)
5(-72845.02102 -81968.36693 -81730.90845 -78628.65485 -84887.20565)
5(-71632.4511 -80532.75843 -80351.62094 -77416.3702 -83562.56428)
5(-70401.37124 -79094.3373 -78974.79945 -76209.54688 -82256.79823)
5(-69171.46094 -77649.5506 -77594.91039 -74998.02671 -80933.8729)
5(-67946.06408 -76200.84763 -76211.44321 -73786.61956 -79605.98388)
5(-66718.50934 -74751.06231 -74822.05129 -72571.89022 -78283.29314)
5(-65488.28503 -73298.67339 -73425.74394 -71355.47449 -76968.52286)
5(-64253.6287 -71844.68855 -72027.96451 -70142.43924 -75664.69785)
5(-63009.6429 -70388.71737 -70635.12584 -68928.59178 -74354.72372)
5(-61763.26834 -68931.20252 -69245.2698 -67711.3379 -73031.27288)
5(-60514.09011 -67467.41425 -67864.30744 -66500.80169 -71693.72689)
5(-59262.81274 -66001.63154 -66477.22274 -65290.50446 -70367.01378)
5(-58020.14685 -64533.6865 -65073.6076 -64077.14652 -69054.30399)
5(-56760.6548 -63052.83199 -63669.40744 -62874.72418 -67755.64267)
5(-55493.92211 -61575.70186 -62257.6604 -61664.32197 -66470.80473)
5(-54227.50049 -60090.11035 -60847.41326 -60462.47759 -65182.84888)
5(-52967.90315 -58607.87539 -59433.50757 -59249.40416 -63879.64081)
5(-51684.61282 -57110.59675 -58023.63144 -58044.43657 -62578.19094)
5(-50398.22139 -55612.97997 -56609.58085 -56839.14176 -61286.86037)
5(-49104.76643 -54092.57784 -55183.90577 -55649.36401 -60011.30574)
5(-47766.86089 -52572.8374 -53768.2133 -54462.71011 -58767.8075)
5(-46446.76052 -51027.41736 -52333.28928 -53314.90677 -57571.30918)
5(-45091.01247 -49474.48521 -50908.13821 -52170.43274 -56382.54703)
5(-43711.05673 -47906.29545 -49484.22048 -51044.36501 -55221.82323)
5(-42302.40349 -46295.28231 -48046.89833 -49926.22323 -54046.81092)
5(-40840.69523 -44676.54464 -46632.33743 -48810.14829 -52868.01577)
5(-39338.75695 -43018.99865 -45209.17997 -47797.43164 -51875.74367)
5(-37826.94697 -41334.55804 -43783.59382 -46978.86951 -51232.72047)
5(-36218.40633 -39647.32913 -42403.09587 -46401.55006 -51073.16032)
5(-34594.73353 -37903.09224 -41111.08692 -46006.73932 -51002.75573)
5(-32973.30609 -36157.76516 -39956.54473 -45706.046 -50841.22675)
5(-31343.14625 -34380.0304 -38999.93943 -45438.0317 -50293.09908)
5(-29803.12572 -32704.92438 -38165.73301 -45084.44203 -49444.14108)
5(-28291.35869 -31203.65385 -37408.10888 -44562.7623 -48425.25587)
5(-26782.40012 -29944.14637 -36646.37178 -43802.47328 -47418.09561)
5(-25525.74581 -28945.01698 -35814.34148 -42792.17945 -46319.96408)
5(-24590.85002 -28037.93124 -34796.4221 -41569.97258 -45032.11342)
5(-24076.78146 -27179.91826 -33505.62981 -40100.70063 -43473.1967)
5(-23781.28126 -26313.71767 -32034.12335 -38407.18278 -41592.27294)
5(-23451.40758 -25276.68232 -30314.55536 -36421.47286 -39315.79207)
5(-22687.04971 -24023.60963 -28468.43737 -34182.27947 -36787.85374)
5(-21516.32553 -22450.58262 -26419.71886 -31684.1795 -33913.76098)
5(-20033.94838 -20638.06948 -24118.16853 -28859.9316 -30725.7167)
5(-18188.55125 -18541.18683 -21561.45184 -25699.22308 -27169.36489)
5(-16180.60704 -16238.00811 -18705.11195 -22154.95955 -23195.10437)
5(-13965.74231 -13704.04291 -15509.88269 -18206.37258 -18835.32328)
5(-11670.24846 -10973.03702 -11881.71366 -13772.72814 -14057.85454)
5(-9380.133996 -8756.835279 -7909.835233 -8172.895137 -8659.65637)
)


60
(
5(-94413.63912 -95652.91366 -91689.98491 -89990.08811 -93492.3946)
5(-88960.8058 -96899.62942 -94481.34632 -90690.59114 -97256.94269)
5(-85624.89025 -96175.14205 -94765.53935 -90513.42366 -98221.16247)
5(-83841.2966 -94513.62015 -93636.39881 -89657.31079 -97227.76767)
5(-82992.56968 -92879.36011 -92146.1306 -88329.85384 -95133.59701)
5(-82324.27172 -91498.30381 -90714.16592 -86813.46359 -92870.93126)
5(-81389.12324 -90152.82354 -89356.9771 -85507.62344 -91217.81652)
5(-80130.32624 -88812.18322 -88074.24013 -84336.12091 -90017.80176)
5(-78821.58601 -87492.13236 -86797.87189 -83158.54148 -88884.01789)
5(-77581.135 -86136.5767 -85473.16803 -81931.43937 -87608.56108)
5(-76385.26238 -84740.81233 -84120.71888 -80687.42689 -86229.7783)
5(-75215.17633 -83326.61121 -82752.30199 -79448.23669 -84829.91548)
5(-74037.63746 -81914.15664 -81387.55037 -78226.91304 -83469.40115)
5(-72831.70186 -80506.28555 -80026.77122 -77010.59703 -82148.52085)
5(-71610.0156 -79095.37055 -78666.19055 -75794.32279 -80836.98998)
5(-70392.59307 -77679.2957 -77302.02334 -74573.77203 -79509.49573)
5(-69176.73639 -76255.00404 -75931.38714 -73354.96073 -78180.41885)
5(-67958.71485 -74832.72371 -74555.52318 -72128.1997 -76852.08561)
5(-66736.51544 -73405.29947 -73174.21466 -70907.52221 -75540.69861)
5(-65505.85346 -71977.17405 -71791.29769 -69678.34652 -74222.5923)
5(-64273.01738 -70546.07546 -70405.08323 -68452.26502 -72913.49712)
5(-63036.29551 -69110.92925 -69030.36825 -67228.30322 -71581.43293)
5(-61793.23176 -67671.01897 -67652.80736 -66002.39207 -70247.97559)
5(-60556.30133 -66230.96459 -66275.54517 -64776.49311 -68907.52376)
5(-59295.6121 -64776.19821 -64892.33418 -63553.85009 -67579.81614)
5(-58063.37451 -63323.07481 -63478.7791 -62323.13861 -66271.49412)
5(-56802.64458 -61865.20558 -62071.66333 -61093.3184 -64971.07672)
5(-55540.89626 -60387.94387 -60667.58596 -59879.22998 -63658.27951)
5(-54256.73687 -58921.88857 -59259.0374 -58630.08932 -62329.14411)
5(-52983.9004 -57439.86063 -57822.40469 -57398.81017 -61048.6318)
5(-51670.12459 -55938.62689 -56419.53596 -56158.65243 -59685.36212)
5(-50362.24841 -54431.31671 -54988.74249 -54933.59846 -58390.09694)
5(-49030.07827 -52903.15029 -53537.19977 -53701.29725 -57104.41727)
5(-47659.0709 -51346.54203 -52080.04491 -52492.82388 -55859.5711)
5(-46256.5232 -49754.17304 -50622.24202 -51300.65907 -54608.65698)
5(-44840.5932 -48158.03772 -49136.06311 -50085.73477 -53374.82556)
5(-43337.89952 -46503.14738 -47645.56534 -48875.92339 -52129.11132)
5(-41821.17744 -44804.91431 -46128.34696 -47668.62743 -50869.21212)
5(-40210.37455 -43065.73593 -44623.27858 -46531.89416 -49738.32846)
5(-38533.65954 -41277.09699 -43100.07287 -45562.42943 -48945.24757)
5(-36811.74952 -39462.38239 -41556.71819 -44798.51679 -48596.61245)
5(-35047.35067 -37605.47664 -40102.41904 -44201.64175 -48362.04802)
5(-33296.42324 -35689.49137 -38735.56676 -43698.90938 -48009.24475)
5(-31552.98234 -33791.3955 -37564.69328 -43175.83819 -47252.09848)
5(-29863.18308 -31976.31691 -36521.11287 -42588.66274 -46224.5505)
5(-28232.94569 -30357.85276 -35544.62921 -41851.8368 -45097.17501)
5(-26746.79112 -29014.44526 -34579.68649 -40935.14532 -43993.01707)
5(-25387.08528 -27902.8915 -33629.24485 -39840.11659 -42840.44121)
5(-24386.18773 -26977.3111 -32541.05076 -38541.95453 -41570.24201)
5(-23815.80911 -26132.19108 -31306.16976 -37072.4363 -39981.10614)
5(-23485.25441 -25311.07496 -29919.46238 -35430.7181 -38159.40696)
5(-23114.43053 -24377.35942 -28389.72919 -33597.83237 -36056.49466)
5(-22494.46098 -23298.57306 -26730.68067 -31528.44045 -33698.20468)
5(-21530.47665 -21926.60336 -24884.1514 -29268.77865 -31091.98457)
5(-20259.16633 -20346.80807 -22826.07883 -26686.71559 -28155.72334)
5(-18685.56996 -18503.40088 -20533.25103 -23811.19805 -24877.12583)
5(-16849.97797 -16396.83797 -17941.06665 -20592.36684 -21246.29835)
5(-14867.53524 -14091.63343 -14997.56417 -16964.02381 -17248.6509)
5(-12804.87246 -11623.95549 -11650.48557 -12795.68742 -12733.44224)
5(-10671.70973 -9836.723401 -8354.713324 -7800.883069 -7894.076565)
)


60
(
5(-95087.4917 -95034.74317 -90635.96705 -89501.47852 -92713.01759)
5(-89663.64281 -96504.63926 -93823.56729 -90245.92847 -96190.35806)
5(-86349.90484 -95835.80345 -94268.70592 -90124.3234 -97032.93702)
5(-84597.86446 -94174.02232 -93185.93661 -89323.25736 -96024.82169)
5(-83787.85838 -92585.24696 -91741.84734 -88034.60421 -93968.14928)
5(-83139.10847 -91271.18361 -90373.4143 -86543.84901 -91744.12817)
5(-82227.88831 -89969.82609 -89061.69765 -85268.55236 -90125.47328)
5(-80992.5097 -88670.35581 -87826.50418 -84119.16875 -88933.53106)
5(-79713.28456 -87392.84796 -86589.42771 -82964.41751 -87822.39096)
5(-78499.4746 -86083.12926 -85310.02484 -81756.10803 -86558.9503)
5(-77327.24504 -84728.49342 -83996.89345 -80537.57428 -85211.10346)
5(-76180.74849 -83357.72862 -82671.47884 -79318.54704 -83828.84515)