/*--------------------------------*- C++ -*----------------------------------*\
| =========                 |                                                 |
| \\      /  F ield         | OpenFOAM: The Open Source CFD Toolbox           |
|  \\    /   O peration     | Version:  2.3.1                                 |
|   \\  /    A nd           | Web:      www.OpenFOAM.org                      |
|    \\/     M anipulation  |                                                 |
\*---------------------------------------------------------------------------*/
FoamFile
{
    version     2.0;
    format      ascii;
    class       dictionary;
    location    "constant";
    object      GRPSI33;
}
// * * * * * * * * * * * * * * * * * * * * * * * * * * * * * * * * * * * * * //

GRPSI33_table
60
(

60
(
5(0.0001467607554 0.000206874249 0.0002714890649 0.0003741762801 0.0004130550949)
5(0.0001868650974 0.000301810333 0.0003280109433 0.0004379395165 0.0005139841533)
5(0.0002632379431 0.0003021280172 0.0003686454633 0.0005033407601 0.0006709852179)
5(0.0002739882574 0.0003211039221 0.0003834011377 0.0005825738771 0.0005576878907)
5(0.0003072749474 0.0003605028487 0.0004320270924 0.0005808489613 0.0006670256388)
5(0.0003147813215 0.0004042699345 0.0005432709733 0.0006240553789 0.0007566925549)
5(0.00032341312 0.0004454161809 0.0005737948531 0.0006907283947 0.0007131980619)
5(0.0003806211983 0.0004786732067 0.0005748966819 0.0007032349441 0.0008362984941)
5(0.0004054837875 0.0005046608202 0.0006104443327 0.0007145893408 0.0007911333667)
5(0.0004403859147 0.0005284291463 0.0006091317353 0.0007330210948 0.000767915842)
5(0.0004697624205 0.000553092762 0.0006269492882 0.0007301950269 0.0007461891207)
5(0.0004910962679 0.000566960514 0.0006535034752 0.0007192223674 0.0007334866615)
5(0.0004950692083 0.0005755124346 0.0006576581968 0.0006867380991 0.000681063748)
5(0.0004976669291 0.0005761619371 0.0006437797387 0.0006752279079 0.0006453706446)
5(0.0005163653293 0.0005771286361 0.0006317029488 0.0006304805868 0.0005967193297)
5(0.0005224315613 0.0005753938128 0.0006082540374 0.0005943852141 0.0005446912389)
5(0.000520279681 0.0005598295848 0.0005815888046 0.000548870129 0.0004834431098)
5(0.0005088783668 0.0005373093006 0.0005391915818 0.0004977069037 0.000432710212)
5(0.0004946112127 0.0005076632793 0.0005025630075 0.0004574173967 0.0003925698022)
5(0.0004736200204 0.0004713333408 0.0004615043118 0.000408674097 0.0003539751397)
5(0.0004551784946 0.0004478821941 0.0004317117932 0.0003748959252 0.0003162284196)
5(0.0004325368536 0.0004198583878 0.0003961431898 0.0003573196172 0.0002951799205)
5(0.0004053908188 0.0003899752619 0.0003656766744 0.0003181878849 0.0002607668641)
5(0.0003841608055 0.0003589800804 0.0003360526426 0.0002916002565 0.0002396715375)
5(0.0003591489013 0.0003342133161 0.0003079226028 0.0002650477631 0.00021770824)
5(0.0003368956179 0.0003125201173 0.0002808813007 0.00024087094 0.0002017790264)
5(0.0003146359503 0.0002922516076 0.0002639190952 0.0002221191717 0.0001870460898)
5(0.0002960673447 0.0002724734184 0.0002433009997 0.000206233792 0.0001746483224)
5(0.0002751586824 0.0002537984199 0.0002287661969 0.0001939371305 0.0001630475399)
5(0.0002585924134 0.0002363344871 0.0002147962092 0.0001845659625 0.000154217948)
5(0.0002422434398 0.0002211395648 0.0001997592248 0.0001713679326 0.0001447235054)
5(0.0002289077349 0.000209464524 0.000189973099 0.0001648159265 0.0001426646265)
5(0.0002176011512 0.0001977527737 0.0001786851687 0.0001556688077 0.0001295270308)
5(0.0002066339619 0.0001868977164 0.0001676933495 0.0001482912133 0.0001280075579)
5(0.0001968720656 0.0001787401031 0.0001603181079 0.0001409273855 0.000119985635)
5(0.0001889370747 0.0001691027292 0.0001492774389 0.0001336759194 0.0001137677062)
5(0.0001817495286 0.0001652886038 0.0001486813548 0.0001296351574 0.0001085125599)
5(0.0001759578261 0.0001576559334 0.0001426021426 0.0001225925749 0.0001111716748)
5(0.0001700892826 0.0001526563925 0.0001355811136 0.0001179423182 9.766686082e-05)
5(0.0001634450483 0.0001472304564 0.0001281513255 0.0001113175966 0.0001186118947)
5(0.0001593887419 0.0001438596983 0.0001255272623 0.0001063812947 0.0001075932626)
5(0.0001561875251 0.0001392948486 0.0001207226504 0.0001070514216 9.762583591e-05)
5(0.0001521030119 0.000135686642 0.0001163107177 0.0001162082019 8.708321945e-05)
5(0.0001469248794 0.0001282527232 0.0001039382159 0.0001049432343 7.500027308e-05)
5(0.0001411174328 0.0001226715836 9.937148792e-05 9.367018332e-05 6.741415187e-05)
5(0.0001364431584 0.0001149182234 9.515374168e-05 8.274482721e-05 5.900695795e-05)
5(0.0001302730969 0.0001091889277 9.753721217e-05 7.240239772e-05 5.098855646e-05)
5(0.0001224314249 0.0001064196548 9.107596756e-05 6.321865943e-05 4.369274877e-05)
5(0.0001160136304 9.676081627e-05 8.076804062e-05 5.465229049e-05 3.719445479e-05)
5(0.0001084364278 9.723682826e-05 7.056394824e-05 4.686322364e-05 3.148934157e-05)
5(0.0001011970414 8.604706794e-05 6.103931398e-05 3.98191455e-05 2.649696579e-05)
5(0.0001001228353 7.493101664e-05 5.224842089e-05 3.360413164e-05 2.220615546e-05)
5(9.183503375e-05 6.441965097e-05 4.427817356e-05 2.814319824e-05 1.852147127e-05)
5(7.958204665e-05 5.460783468e-05 3.704913299e-05 2.339757264e-05 1.540384156e-05)
5(6.686506974e-05 4.565836402e-05 3.067702944e-05 1.93576287e-05 1.281857359e-05)
5(5.413289496e-05 3.74914233e-05 2.506702074e-05 1.60071635e-05 1.072169492e-05)
5(4.159866972e-05 3.010018915e-05 2.020318435e-05 1.318332184e-05 8.942698103e-06)
5(3.065868715e-05 2.311989694e-05 1.592820376e-05 1.075290023e-05 7.833424659e-06)
5(2.162430925e-05 1.675413743e-05 1.16417978e-05 1.000984979e-05 6.599613728e-06)
5(1.442214367e-05 1.107224498e-05 6.960638691e-06 5.908065271e-06 5.056393773e-06)
)


60
(
5(0.0001460341795 0.0002009982588 0.0002671462439 0.0003599844852 0.000389517408)
5(0.0001821598355 0.0002676051787 0.0003145486979 0.0004096226357 0.0004715547158)
5(0.0002315081811 0.0002812932246 0.0003505356583 0.0004551240623 0.0005695799879)
5(0.0002458554971 0.0003009126331 0.0003699902709 0.0005027761899 0.0005185067098)
5(0.0002711479451 0.0003296035924 0.0004017097993 0.0005052126006 0.0005672379479)
5(0.0002832462134 0.0003597809168 0.0004621680884 0.000526178686 0.0005990489082)
5(0.000295331227 0.0003867133625 0.0004809416834 0.000555584485 0.0005641879222)
5(0.000331105797 0.0004082578891 0.0004819723491 0.0005551302231 0.0006122125425)
5(0.0003498715179 0.0004243733956 0.0004982261942 0.0005522398248 0.0005744834707)
5(0.0003716670241 0.000436612053 0.0004924786061 0.0005492817738 0.0005465728916)
5(0.0003891995174 0.0004467661181 0.0004938149954 0.0005339786045 0.0005168232063)
5(0.0004002580614 0.0004494428082 0.0004966533141 0.000513521057 0.0004916959438)
5(0.0004011734929 0.0004476911791 0.0004872214865 0.0004824917234 0.0004492640539)
5(0.0003995525931 0.0004404049507 0.000468042601 0.0004616746034 0.0004166165249)
5(0.000404283953 0.0004322594248 0.0004495938415 0.0004256857504 0.0003792919607)
5(0.0004008019132 0.0004215418324 0.0004250671929 0.0003950463106 0.0003424219549)
5(0.0003930151425 0.0004036845651 0.00039961875 0.000360980046 0.0003027753782)
5(0.0003795089698 0.0003823791006 0.0003672802718 0.000325737337 0.0002698024382)
5(0.0003640444874 0.0003581924432 0.0003390951966 0.0002971827768 0.0002436995486)
5(0.000345191347 0.0003309901764 0.0003096974158 0.0002657091305 0.0002193929176)
5(0.0003277136541 0.0003111373223 0.0002871160488 0.0002429909439 0.0001967718074)
5(0.0003088539751 0.0002896880852 0.0002627880125 0.0002291034153 0.0001830450979)
5(0.0002880634682 0.0002681789191 0.0002419757434 0.0002054307969 0.000163226599)
5(0.0002705970821 0.0002468088592 0.000222313031 0.0001887943085 0.000150584803)
5(0.0002521855807 0.0002292556845 0.0002041964038 0.0001725284536 0.0001378545855)
5(0.0002356124143 0.0002138310663 0.0001869325394 0.0001578431389 0.0001283353184)
5(0.0002196583848 0.0001997148407 0.000175324689 0.0001462145134 0.0001197252736)
5(0.0002059688088 0.0001862360343 0.0001623694137 0.0001363553571 0.0001124482223)
5(0.0001918183522 0.000173641595 0.0001526760562 0.0001285282123 0.0001056169794)
5(0.0001799646279 0.000162085958 0.0001435842702 0.000122338418 0.000100374392)
5(0.0001687578435 0.0001520116951 0.0001341945628 0.0001144211604 9.485406961e-05)
5(0.0001592940635 0.0001438912421 0.0001276700404 0.0001099646739 9.317471834e-05)
5(0.0001511322197 0.0001359721668 0.0001205453609 0.0001043851976 8.605302708e-05)
5(0.0001433888413 0.0001287777623 0.000113754223 9.98120295e-05 8.482453798e-05)
5(0.0001364896775 0.0001230904463 0.000108908307 9.537919711e-05 8.041454608e-05)
5(0.000130501608 0.0001168818463 0.0001024390958 9.110544618e-05 7.703897588e-05)
5(0.0001254324562 0.0001137900688 0.0001013286796 8.860753763e-05 7.413059503e-05)
5(0.0001211548722 0.0001089654335 9.763330746e-05 8.46871367e-05 7.525387586e-05)
5(0.000117064391 0.0001057233538 9.360801991e-05 8.202576179e-05 6.834864357e-05)
5(0.0001128078073 0.0001023329296 8.950565637e-05 7.848177006e-05 7.873825873e-05)
5(0.0001099992187 0.0001002574115 8.799647231e-05 7.582492353e-05 7.324876504e-05)
5(0.0001080061855 9.758558167e-05 8.534564778e-05 7.602769287e-05 6.825342748e-05)
5(0.0001055157329 9.555270194e-05 8.292655432e-05 8.049110585e-05 6.287785635e-05)
5(0.0001026712539 9.172203145e-05 7.646120217e-05 7.469935249e-05 5.652887832e-05)
5(9.959504251e-05 8.862666621e-05 7.384521645e-05 6.881675412e-05 5.228152745e-05)
5(9.714289822e-05 8.440696501e-05 7.135575885e-05 6.293708552e-05 4.745674774e-05)
5(9.384955504e-05 8.108471351e-05 7.215009359e-05 5.71646839e-05 4.270411444e-05)
5(8.961519432e-05 7.917558828e-05 6.84407271e-05 5.182383283e-05 3.820506595e-05)
5(8.591422895e-05 7.374862363e-05 6.270885855e-05 4.668249903e-05 3.400305467e-05)
5(8.172105319e-05 7.347882833e-05 5.693597401e-05 4.18337086e-05 3.012550096e-05)
5(7.764833596e-05 6.736774377e-05 5.139338872e-05 3.725572035e-05 2.654950538e-05)
5(7.679962883e-05 6.12319868e-05 4.609052468e-05 3.296638262e-05 2.327242575e-05)
5(7.231282824e-05 5.521904037e-05 4.099966673e-05 2.897271148e-05 2.029548993e-05)
5(6.581707279e-05 4.936007756e-05 3.613533503e-05 2.529214936e-05 1.760405104e-05)
5(5.888008688e-05 4.363494152e-05 3.155086811e-05 2.193255333e-05 1.525006889e-05)
5(5.15498069e-05 3.81067289e-05 2.728188445e-05 1.895097666e-05 1.320988631e-05)
5(4.396004171e-05 3.284105093e-05 2.337643331e-05 1.631329096e-05 1.142842056e-05)
5(3.690900962e-05 2.771084456e-05 1.980187534e-05 1.400171735e-05 1.010347875e-05)
5(3.075824502e-05 2.302675871e-05 1.643548779e-05 1.269696342e-05 8.847086487e-06)
5(2.69533807e-05 2.001446856e-05 1.491179877e-05 1.143486532e-05 8.453105227e-06)
)


60
(
5(0.0001454683706 0.0001942203837 0.0002589974512 0.0003349455235 0.0003481705244)
5(0.0001769589854 0.0002312791692 0.0002955978208 0.0003663942328 0.0004026502302)
5(0.0001988276759 0.0002566577746 0.0003237710552 0.0003870462651 0.000432554437)
5(0.0002157018433 0.0002745789029 0.0003436488199 0.000397320328 0.0004366749642)
5(0.0002313839688 0.0002895509804 0.0003538466149 0.000397903897 0.0004192102222)
5(0.0002460771589 0.0003023842648 0.0003583694159 0.0003914302331 0.0003909728508)
5(0.0002591414382 0.0003116713338 0.0003598939873 0.0003788630278 0.000362651854)
5(0.0002705635958 0.0003174315818 0.0003564522909 0.0003622065162 0.0003347501741)
5(0.0002796308128 0.0003193123935 0.0003489005429 0.0003422687694 0.0003049648682)
5(0.0002851132591 0.000316618099 0.0003357845552 0.000317625987 0.0002732996863)
5(0.0002874592302 0.0003094395281 0.0003182800046 0.000290507773 0.0002398929726)
5(0.0002855548272 0.0002988847836 0.0002969563553 0.0002626909892 0.0002081542179)
5(0.0002804272841 0.0002850579801 0.0002740941107 0.0002357347944 0.0001804185029)
5(0.0002725650663 0.0002690628168 0.0002508765933 0.0002095941351 0.0001557814337)
5(0.0002619334111 0.0002517060124 0.0002279536 0.0001860423482 0.0001348285528)
5(0.0002489130351 0.0002333645357 0.0002055794041 0.0001647383614 0.0001172442556)
5(0.000234606847 0.000214899043 0.0001845218716 0.0001458856781 0.0001026624359)
5(0.0002195663334 0.0001967957985 0.0001654288902 0.000129764447 9.068164216e-05)
5(0.0002037733897 0.0001800713111 0.0001486447164 0.00011599387 8.097132099e-05)
5(0.0001887231211 0.0001643708852 0.0001338909662 0.0001043714436 7.301273807e-05)
5(0.0001741236477 0.0001500987184 0.0001211981557 9.481067727e-05 6.681691947e-05)
5(0.0001602117609 0.0001374111026 0.0001104329852 8.660436376e-05 6.159103249e-05)
5(0.0001475638354 0.0001261557281 0.000101118661 7.981732116e-05 5.728176671e-05)
5(0.0001362594141 0.000116178706 9.302918623e-05 7.419980939e-05 5.374342377e-05)
5(0.0001260573807 0.0001074226218 8.62833408e-05 6.922668572e-05 5.078841382e-05)
5(0.000116721849 9.974311624e-05 8.018778193e-05 6.487744977e-05 4.816243836e-05)
5(0.0001084742956 9.303547846e-05 7.50213352e-05 6.109417993e-05 4.59185739e-05)
5(0.0001011722761 8.69070199e-05 7.04941163e-05 5.77959167e-05 4.40330133e-05)
5(9.460506197e-05 8.143380432e-05 6.641627784e-05 5.491674237e-05 4.220085997e-05)
5(8.859808777e-05 7.658150872e-05 6.281414048e-05 5.230981329e-05 4.07487945e-05)
5(8.324584988e-05 7.220501767e-05 5.959103346e-05 5.001737226e-05 3.93502372e-05)
5(7.84019278e-05 6.825990733e-05 5.674972804e-05 4.797281392e-05 3.819672594e-05)
5(7.399270643e-05 6.469988324e-05 5.419043789e-05 4.618299177e-05 3.720598323e-05)
5(6.997806414e-05 6.151295259e-05 5.193383292e-05 4.463117511e-05 3.637524918e-05)
5(6.640423749e-05 5.868588808e-05 4.994091207e-05 4.331225346e-05 3.566129494e-05)
5(6.308346489e-05 5.620064596e-05 4.823403592e-05 4.219593079e-05 3.514912799e-05)
5(6.028279013e-05 5.407299058e-05 4.679634138e-05 4.134535254e-05 3.47253117e-05)
5(5.775940409e-05 5.226733029e-05 4.565864795e-05 4.065958965e-05 3.437389952e-05)
5(5.563961576e-05 5.087505485e-05 4.479413193e-05 4.013117037e-05 3.420133706e-05)
5(5.394138351e-05 4.974024733e-05 4.418194878e-05 3.979923221e-05 3.413985561e-05)
5(5.264839434e-05 4.90384234e-05 4.38392426e-05 3.958601844e-05 3.427397229e-05)
5(5.180798961e-05 4.846242121e-05 4.353997499e-05 3.948156887e-05 3.438520297e-05)
5(5.119132907e-05 4.818281553e-05 4.332351046e-05 3.944090965e-05 3.436180991e-05)
5(5.090872569e-05 4.810239425e-05 4.305726301e-05 3.936089809e-05 3.407713614e-05)
5(5.086441929e-05 4.789128739e-05 4.273560162e-05 3.914437201e-05 3.351763352e-05)
5(5.092124613e-05 4.75787613e-05 4.230991789e-05 3.866957145e-05 3.271169453e-05)
5(5.088836096e-05 4.707664531e-05 4.183964559e-05 3.789822143e-05 3.167273045e-05)
5(5.070798948e-05 4.647246398e-05 4.123645818e-05 3.687536413e-05 3.043785761e-05)
5(5.02057249e-05 4.576670686e-05 4.04887249e-05 3.567469444e-05 2.905490453e-05)
5(4.978775625e-05 4.512028708e-05 3.959936299e-05 3.432049475e-05 2.752217432e-05)
5(4.927127589e-05 4.450863131e-05 3.857026703e-05 3.279962923e-05 2.587788769e-05)
5(4.896448061e-05 4.387266106e-05 3.736205487e-05 3.108306807e-05 2.412115803e-05)
5(4.8820009e-05 4.304806558e-05 3.58719813e-05 2.917679098e-05 2.229802982e-05)
5(4.876815127e-05 4.192754246e-05 3.409748967e-05 2.713309128e-05 2.0410903e-05)
5(4.850281345e-05 4.035579288e-05 3.202656969e-05 2.496034032e-05 1.85655169e-05)
5(4.766158229e-05 3.837655631e-05 2.974007339e-05 2.277099161e-05 1.680012434e-05)
5(4.618407014e-05 3.608479874e-05 2.734859119e-05 2.063525768e-05 1.514360701e-05)
5(4.411477761e-05 3.361115199e-05 2.499945793e-05 1.866095047e-05 1.366977754e-05)
5(4.185023824e-05 3.131652055e-05 2.300352616e-05 1.701119277e-05 1.247152462e-05)
5(4.236148699e-05 3.320584824e-05 2.610370979e-05 1.88082695e-05 1.44182954e-05)
)


60
(
5(0.0001458045794 0.0001926818459 0.0002514961456 0.0003146208081 0.000316004653)
5(0.0001764657181 0.0002276510921 0.0002847969405 0.000339335577 0.0003565916922)
5(0.00019738258 0.0002498396884 0.0003072963594 0.0003517989785 0.000372106485)
5(0.0002121061577 0.0002633526969 0.0003197010738 0.0003528844795 0.0003655886118)
5(0.0002247721683 0.0002730811436 0.0003224736618 0.0003446535672 0.0003416337907)
5(0.0002358419874 0.0002799048003 0.0003190783823 0.0003306092548 0.000311666852)
5(0.0002445295674 0.0002830857889 0.0003124461395 0.0003124331842 0.000282071027)
5(0.0002509858322 0.0002824797674 0.0003024088678 0.0002919292598 0.0002542811889)
5(0.0002545865116 0.0002782787226 0.000288913564 0.0002691601421 0.0002266886476)
5(0.000254946065 0.000270363161 0.0002720013088 0.0002450864765 0.0001990511728)
5(0.0002520205448 0.0002594515887 0.0002522357551 0.000220467557 0.0001729481687)
5(0.0002459774283 0.0002460717159 0.0002312258565 0.0001969367328 0.0001498987188)
5(0.0002372406394 0.0002306317878 0.0002101227169 0.0001748210167 0.0001298437)
5(0.0002262331544 0.0002144766424 0.0001897339007 0.0001549076051 0.0001129376415)
5(0.0002141716385 0.0001979648777 0.000170620175 0.0001372608057 9.891970328e-05)
5(0.0002012636676 0.0001818898069 0.000153110309 0.0001218891229 8.721883947e-05)
5(0.0001870162484 0.0001663701864 0.0001372664612 0.0001086263122 7.754608068e-05)
5(0.0001731661284 0.0001518285598 0.0001233846363 9.738524205e-05 6.97802969e-05)
5(0.0001597258609 0.0001385008941 0.0001112003211 8.79986317e-05 6.335771722e-05)
5(0.0001470189495 0.0001264737843 0.0001008507581 8.007004154e-05 5.807868497e-05)
5(0.000135376881 0.0001156935091 9.197361993e-05 7.338383164e-05 5.363358562e-05)
5(0.000124615251 0.000106220748 8.441534162e-05 6.778546669e-05 4.997470018e-05)
5(0.0001148775962 9.788847564e-05 7.782804868e-05 6.29349352e-05 4.684725441e-05)
5(0.0001062930566 9.057772074e-05 7.217551959e-05 5.873570067e-05 4.412982423e-05)
5(9.857844096e-05 8.416003186e-05 6.727621101e-05 5.506756269e-05 4.172618896e-05)
5(9.17040146e-05 7.842240895e-05 6.297773408e-05 5.182626517e-05 3.967762928e-05)
5(8.555978492e-05 7.344178114e-05 5.921193628e-05 4.895772999e-05 3.778505166e-05)
5(8.013198001e-05 6.882830696e-05 5.5769793e-05 4.637083248e-05 3.613960292e-05)
5(7.505720656e-05 6.472012059e-05 5.2708158e-05 4.407744989e-05 3.461203963e-05)
5(7.0543327e-05 6.0973332e-05 4.993236079e-05 4.198585248e-05 3.328364435e-05)
5(6.636492908e-05 5.75219697e-05 4.740812226e-05 4.009523143e-05 3.20789662e-05)
5(6.258390484e-05 5.440412957e-05 4.513460393e-05 3.841419764e-05 3.099737801e-05)
5(5.906530601e-05 5.157411144e-05 4.304248977e-05 3.689379259e-05 3.011332998e-05)
5(5.5815668e-05 4.893203685e-05 4.118857391e-05 3.556830561e-05 2.932970379e-05)
5(5.285522465e-05 4.657074023e-05 3.955682332e-05 3.441961593e-05 2.868030214e-05)
5(5.029505266e-05 4.445237071e-05 3.809383334e-05 3.345285595e-05 2.814081536e-05)
5(4.780412413e-05 4.261735023e-05 3.686746652e-05 3.266819531e-05 2.777895144e-05)
5(4.557267908e-05 4.104349099e-05 3.587667688e-05 3.206390973e-05 2.751557467e-05)
5(4.371201583e-05 3.976152712e-05 3.513222377e-05 3.165290004e-05 2.739253904e-05)
5(4.223058834e-05 3.881585268e-05 3.462820109e-05 3.142767884e-05 2.744737446e-05)
5(4.117330642e-05 3.81561067e-05 3.432893557e-05 3.136564851e-05 2.761443538e-05)
5(4.035516628e-05 3.777591554e-05 3.423579243e-05 3.143614196e-05 2.783864764e-05)
5(3.998424426e-05 3.768890899e-05 3.427379847e-05 3.161444025e-05 2.806642788e-05)
5(3.994357356e-05 3.781886893e-05 3.438667043e-05 3.183373283e-05 2.819197752e-05)
5(4.019389696e-05 3.809279449e-05 3.451775915e-05 3.199018974e-05 2.814147738e-05)
5(4.066402804e-05 3.834630995e-05 3.460807598e-05 3.201067482e-05 2.792432514e-05)
5(4.115784226e-05 3.85051832e-05 3.462987646e-05 3.184005183e-05 2.752772486e-05)
5(4.160276437e-05 3.856177151e-05 3.45450206e-05 3.148360845e-05 2.698764864e-05)
5(4.186809814e-05 3.852326793e-05 3.436298512e-05 3.099973396e-05 2.632882365e-05)
5(4.19347921e-05 3.840661628e-05 3.409660889e-05 3.043012034e-05 2.556717271e-05)
5(4.19016354e-05 3.833891583e-05 3.380553591e-05 2.97757564e-05 2.471050747e-05)
5(4.194704413e-05 3.836803864e-05 3.348608645e-05 2.903336966e-05 2.375016833e-05)
5(4.228392457e-05 3.849775787e-05 3.309654841e-05 2.814534863e-05 2.265287921e-05)
5(4.293576305e-05 3.860643283e-05 3.252684172e-05 2.707079758e-05 2.144238029e-05)
5(4.385547533e-05 3.857733507e-05 3.169930516e-05 2.579735412e-05 2.011427902e-05)
5(4.474782381e-05 3.823536752e-05 3.058129851e-05 2.436407397e-05 1.874056681e-05)
5(4.534915949e-05 3.751400533e-05 2.922608353e-05 2.28490347e-05 1.737665447e-05)
5(4.543042301e-05 3.649159906e-05 2.783655894e-05 2.136540802e-05 1.609903038e-05)
5(4.505774231e-05 3.545678952e-05 2.672807217e-05 2.019978417e-05 1.510463111e-05)
5(4.709325412e-05 3.867368583e-05 3.078406814e-05 2.235048455e-05 1.826764806e-05)
)


60
(
5(0.00014603661 0.0001914407778 0.0002441584455 0.0002965731236 0.0002903612493)
5(0.0001763688542 0.0002244408087 0.0002743366153 0.0003168695919 0.0003219103588)
5(0.000195939065 0.0002436580603 0.0002924370284 0.000323976056 0.0003296081774)
5(0.0002089247645 0.0002538761367 0.0002995209857 0.0003199475558 0.0003171554051)
5(0.0002191991572 0.0002598303683 0.0002976314183 0.0003076663936 0.0002926585055)
5(0.0002272324681 0.0002626846121 0.0002899394055 0.0002904083058 0.0002645869092)
5(0.0002326756628 0.0002617843505 0.0002793437093 0.0002711034155 0.0002370691135)
5(0.0002356341076 0.0002576224917 0.0002663966703 0.00025025409 0.0002119671758)
5(0.0002358965639 0.000250241561 0.0002508109877 0.0002283212696 0.0001878463664)
5(0.0002331242243 0.0002400197133 0.0002330916012 0.0002062231663 0.0001648806382)
5(0.0002272838096 0.0002275829883 0.0002139340211 0.0001848154659 0.0001440489367)
5(0.0002193421662 0.0002136127159 0.0001947549628 0.0001648763611 0.000125803067)
5(0.0002092458702 0.0001987635558 0.0001762173922 0.0001466369778 0.0001102556712)
5(0.0001977163743 0.0001837566875 0.0001588446361 0.0001304448605 9.732390639e-05)
5(0.0001852603422 0.0001689487611 0.0001428802357 0.000116377912 8.628935681e-05)
5(0.0001726358365 0.0001546173041 0.0001284927257 0.0001043036013 7.732562634e-05)
5(0.0001601864713 0.0001413851971 0.0001158790424 9.391265576e-05 6.974513256e-05)
5(0.0001476778712 0.0001292932983 0.0001049414273 8.514041943e-05 6.350929047e-05)
5(0.0001364328795 0.0001182982817 9.537361472e-05 7.768078758e-05 5.833883839e-05)
5(0.0001253397869 0.0001085433399 8.721884774e-05 7.132751085e-05 5.398973573e-05)
5(0.0001155732648 9.994867077e-05 8.012797602e-05 6.585907492e-05 5.021302149e-05)
5(0.0001071714451 9.222633995e-05 7.40371477e-05 6.118601813e-05 4.695360273e-05)
5(9.9262075e-05 8.55086228e-05 6.877740383e-05 5.707312163e-05 4.412047521e-05)
5(9.187228885e-05 7.959090508e-05 6.423628374e-05 5.345862249e-05 4.163991586e-05)
5(8.570390915e-05 7.433707838e-05 6.014542979e-05 5.02657982e-05 3.938457019e-05)
5(8.006681496e-05 6.957292117e-05 5.651340145e-05 4.739669181e-05 3.738310539e-05)
5(7.505252437e-05 6.524671144e-05 5.323237469e-05 4.480362079e-05 3.556847011e-05)
5(7.042729789e-05 6.134645723e-05 5.027708383e-05 4.245859281e-05 3.389466284e-05)
5(6.630816164e-05 5.778742739e-05 4.757027873e-05 4.031418892e-05 3.240901171e-05)
5(6.247749095e-05 5.453036583e-05 4.508671206e-05 3.834985129e-05 3.101153623e-05)
5(5.893363389e-05 5.152685979e-05 4.281371091e-05 3.656531682e-05 2.979378166e-05)
5(5.562980397e-05 4.875111721e-05 4.073738312e-05 3.491547353e-05 2.864429849e-05)
5(5.258931836e-05 4.618064921e-05 3.879713569e-05 3.343043738e-05 2.764258331e-05)
5(4.973882675e-05 4.380269931e-05 3.700951593e-05 3.208770733e-05 2.682789993e-05)
5(4.711737873e-05 4.158930269e-05 3.539994512e-05 3.08972547e-05 2.605271233e-05)
5(4.464288181e-05 3.957938406e-05 3.396792574e-05 2.986604231e-05 2.54069553e-05)
5(4.234213919e-05 3.78002031e-05 3.272615311e-05 2.900462852e-05 2.491244392e-05)
5(4.02787665e-05 3.623610079e-05 3.167536543e-05 2.83160518e-05 2.457519483e-05)
5(3.846918951e-05 3.49165405e-05 3.082501513e-05 2.781058402e-05 2.433577701e-05)
5(3.699445818e-05 3.386929584e-05 3.020411385e-05 2.749294314e-05 2.430392251e-05)
5(3.580355829e-05 3.310934393e-05 2.983200727e-05 2.735289098e-05 2.43762917e-05)
5(3.495612805e-05 3.266336552e-05 2.968617382e-05 2.738755032e-05 2.456399132e-05)
5(3.448596021e-05 3.253195505e-05 2.974378222e-05 2.756597263e-05 2.480942012e-05)
5(3.437136097e-05 3.267908275e-05 2.994374082e-05 2.783989143e-05 2.502732722e-05)
5(3.4578195e-05 3.303820908e-05 3.02352902e-05 2.81258893e-05 2.517172696e-05)
5(3.508401599e-05 3.351601385e-05 3.056826585e-05 2.834583288e-05 2.520268926e-05)
5(3.571102499e-05 3.399747723e-05 3.086056178e-05 2.843301951e-05 2.509897623e-05)
5(3.64227077e-05 3.437951372e-05 3.105871006e-05 2.838022312e-05 2.489216087e-05)
5(3.705399777e-05 3.463077284e-05 3.113280761e-05 2.82128878e-05 2.457022279e-05)
5(3.738061519e-05 3.476145724e-05 3.113155334e-05 2.799054583e-05 2.420080313e-05)
5(3.757688455e-05 3.484519014e-05 3.113390836e-05 2.776411394e-05 2.377454583e-05)
5(3.76349847e-05 3.498473174e-05 3.121002907e-05 2.753870205e-05 2.330155616e-05)
5(3.773534163e-05 3.530458443e-05 3.13955891e-05 2.729671482e-05 2.274046682e-05)
5(3.815967654e-05 3.589046969e-05 3.163059063e-05 2.694640917e-05 2.205989641e-05)
5(3.897821522e-05 3.668027241e-05 3.176995028e-05 2.642921095e-05 2.122524582e-05)
5(4.032835548e-05 3.754231303e-05 3.171231858e-05 2.571867999e-05 2.026880331e-05)
5(4.194873163e-05 3.819463196e-05 3.138143091e-05 2.487619427e-05 1.927127514e-05)
5(4.353513946e-05 3.860774179e-05 3.091708449e-05 2.402238208e-05 1.834532931e-05)
5(4.487533359e-05 3.874793773e-05 3.067075994e-05 2.352255153e-05 1.77145885e-05)
5(4.710991837e-05 4.127232276e-05 3.364255053e-05 2.629862811e-05 2.050341925e-05)
)


60
(
5(0.0001461542933 0.0001899547633 0.0002370583108 0.0002805030445 0.0002696566588)
5(0.0001760650709 0.0002209355523 0.0002643441841 0.0002977988713 0.0002951578593)
5(0.0001945115378 0.0002378821812 0.0002791043347 0.0003014821646 0.0002983729217)
5(0.0002058729113 0.0002456352437 0.0002825563858 0.0002946932059 0.0002846538212)
5(0.0002141626168 0.0002488453896 0.0002773410535 0.000280556138 0.0002606677266)
5(0.0002198526084 0.0002487528681 0.000267376901 0.0002627836109 0.0002349419761)
5(0.0002228177039 0.0002453384604 0.0002550208643 0.0002434659967 0.0002106145197)
5(0.0002232273882 0.000238901346 0.0002408832179 0.0002233314878 0.0001879706411)
5(0.000221140576 0.000229566067 0.0002247422202 0.0002030266664 0.0001669178101)
5(0.0002161489373 0.0002183732564 0.000207461413 0.0001830494478 0.0001469287697)
5(0.0002089016035 0.0002054391564 0.0001895534524 0.0001642555155 0.0001296823319)
5(0.0001997900642 0.0001918299057 0.0001722352864 0.0001469325863 0.0001145031945)
5(0.000189026189 0.0001777936345 0.0001557162291 0.0001314914565 0.0001018111953)
5(0.000177653914 0.0001637913717 0.0001407590105 0.000117867464 9.071932177e-05)
5(0.0001655144621 0.0001502965847 0.0001271034918 0.0001060515377 8.168244081e-05)
5(0.0001535067198 0.0001376496992 0.0001150663912 9.588968945e-05 7.388615371e-05)
5(0.0001421081182 0.0001260957294 0.0001043987426 8.720622859e-05 6.744086996e-05)
5(0.0001311642243 0.0001156307693 9.512854547e-05 7.972349082e-05 6.192672284e-05)
5(0.0001207715718 0.0001061808697 8.711208073e-05 7.325295161e-05 5.734319809e-05)
5(0.0001116241822 9.790435305e-05 8.022850316e-05 6.767157571e-05 5.323055883e-05)
5(0.0001032206279 9.057562866e-05 7.42229686e-05 6.287037064e-05 4.975124967e-05)
5(9.551026348e-05 8.398997905e-05 6.902401695e-05 5.864980262e-05 4.667543643e-05)
5(8.893796255e-05 7.820284933e-05 6.445168708e-05 5.492319737e-05 4.384774578e-05)
5(8.292775062e-05 7.310797868e-05 6.039292954e-05 5.16098619e-05 4.139455571e-05)
5(7.757757668e-05 6.849293232e-05 5.675415901e-05 4.861446653e-05 3.915838268e-05)
5(7.279682872e-05 6.43729164e-05 5.348455587e-05 4.590619167e-05 3.717127758e-05)
5(6.84493142e-05 6.054592756e-05 5.051484639e-05 4.343262494e-05 3.527228586e-05)
5(6.459622578e-05 5.709899269e-05 4.780532654e-05 4.115003761e-05 3.354782689e-05)
5(6.105013842e-05 5.393924532e-05 4.529736766e-05 3.90584416e-05 3.201118174e-05)
5(5.758083689e-05 5.100782701e-05 4.295286749e-05 3.711480366e-05 3.05600081e-05)
5(5.44504501e-05 4.8264967e-05 4.078237922e-05 3.533493697e-05 2.924663199e-05)
5(5.153614433e-05 4.572513438e-05 3.877254858e-05 3.36619145e-05 2.810866417e-05)
5(4.88375845e-05 4.335360297e-05 3.689365881e-05 3.213525951e-05 2.690198241e-05)
5(4.622466511e-05 4.109628795e-05 3.513477177e-05 3.072917388e-05 2.593558676e-05)
5(4.379015238e-05 3.899025758e-05 3.351511083e-05 2.946357412e-05 2.506693509e-05)
5(4.150365106e-05 3.70593956e-05 3.205085687e-05 2.833460148e-05 2.43002003e-05)
5(3.937671132e-05 3.527935869e-05 3.072073823e-05 2.735565875e-05 2.366556937e-05)
5(3.741714388e-05 3.368803878e-05 2.956488879e-05 2.653007638e-05 2.314586096e-05)
5(3.562963162e-05 3.22918593e-05 2.860020547e-05 2.587402286e-05 2.280403284e-05)
5(3.404920961e-05 3.113117363e-05 2.784995027e-05 2.540249712e-05 2.258513595e-05)
5(3.273519675e-05 3.024468938e-05 2.732809751e-05 2.511539108e-05 2.253937179e-05)
5(3.173172136e-05 2.96466124e-05 2.704687496e-05 2.502937326e-05 2.264206546e-05)
5(3.105646594e-05 2.93535544e-05 2.700095548e-05 2.511892848e-05 2.280545446e-05)
5(3.073194207e-05 2.936166454e-05 2.715838903e-05 2.535116788e-05 2.302858865e-05)
5(3.075417384e-05 2.963105311e-05 2.748371016e-05 2.566541027e-05 2.322375215e-05)
5(3.105725459e-05 3.008443866e-05 2.789628466e-05 2.597658908e-05 2.338205954e-05)
5(3.166647112e-05 3.062714127e-05 2.833363305e-05 2.621505909e-05 2.343495613e-05)
5(3.239300408e-05 3.117780638e-05 2.87036535e-05 2.635028958e-05 2.34044223e-05)
5(3.315193966e-05 3.16373716e-05 2.895235035e-05 2.637614239e-05 2.32753185e-05)
5(3.374954029e-05 3.194080237e-05 2.908490197e-05 2.635133331e-05 2.311798977e-05)
5(3.418206422e-05 3.209833384e-05 2.916553394e-05 2.633692372e-05 2.295878747e-05)
5(3.436278381e-05 3.216461276e-05 2.930956576e-05 2.639695301e-05 2.281223214e-05)
5(3.431638938e-05 3.227405844e-05 2.965304592e-05 2.656970955e-05 2.267700979e-05)