/*--------------------------------*- C++ -*----------------------------------*\
| =========                 |                                                 |
| \\      /  F ield         | OpenFOAM: The Open Source CFD Toolbox           |
|  \\    /   O peration     | Version:  2.3.1                                 |
|   \\  /    A nd           | Web:      www.OpenFOAM.org                      |
|    \\/     M anipulation  |                                                 |
\*---------------------------------------------------------------------------*/
FoamFile
{
    version     2.0;
    format      ascii;
    class       dictionary;
    location    "constant";
    object      GRPSI44;
}
// * * * * * * * * * * * * * * * * * * * * * * * * * * * * * * * * * * * * * //

GRPSI44_table
60
(

60
(
5(4.391722184e-12 1.619003826e-12 3.089680378e-12 1.512387785e-12 1.305083885e-12)
5(2.857744796e-12 1.870175661e-12 1.840105703e-12 1.235492095e-12 9.230227306e-13)
5(2.226468718e-12 1.717868391e-12 1.439956797e-12 1.120940957e-12 8.004619228e-13)
5(1.875548054e-12 1.565544162e-12 1.278613825e-12 1.040454453e-12 7.003620935e-13)
5(1.854533283e-12 1.442097751e-12 1.271585238e-12 9.592479228e-13 7.009242998e-13)
5(1.7491546e-12 1.285602269e-12 1.253962025e-12 8.812845451e-13 6.742402385e-13)
5(1.570465408e-12 1.084376841e-12 1.098841266e-12 7.349872764e-13 5.601989777e-13)
5(1.354611825e-12 8.687350658e-13 8.42332758e-13 5.451818366e-13 4.325679353e-13)
5(1.040083195e-12 6.386575954e-13 5.900923815e-13 3.555030118e-13 2.732362652e-13)
5(7.184244813e-13 3.945201648e-13 3.533638719e-13 1.903996367e-13 1.402202691e-13)
5(4.462063904e-13 2.032898664e-13 1.770316296e-13 8.355907941e-14 5.741188551e-14)
5(2.429686622e-13 1.020634368e-13 8.050585313e-14 3.563436428e-14 2.179482521e-14)
5(1.336246374e-13 5.168265059e-14 3.831020767e-14 1.626643369e-14 9.372284879e-15)
5(7.254027332e-14 2.792894936e-14 1.939023999e-14 8.065514494e-15 4.422987064e-15)
5(4.177540203e-14 1.594740691e-14 1.044477868e-14 4.221542625e-15 2.206492543e-15)
5(2.47806069e-14 6.749545957e-15 5.791531642e-15 2.246606687e-15 1.140929974e-15)
5(1.550267505e-14 3.801885901e-15 3.32257212e-15 1.275714655e-15 6.15206764e-16)
5(1.00641917e-14 2.40450303e-15 2.021656853e-15 7.522166719e-16 3.424405151e-16)
5(6.660901355e-15 1.884537386e-15 1.238033994e-15 4.456187759e-16 1.921115913e-16)
5(4.515847025e-15 1.522424083e-15 7.721585836e-16 2.678772281e-16 1.104331784e-16)
5(3.09022339e-15 1.007144447e-15 4.865302093e-16 1.633966246e-16 6.52717667e-17)
5(2.163946164e-15 6.703637458e-16 3.08644215e-16 1.003600736e-16 3.934313189e-17)
5(1.545555112e-15 4.50744038e-16 1.977664722e-16 6.237884452e-17 2.411191958e-17)
5(1.064549962e-15 3.016584611e-16 1.270742828e-16 4.000629727e-17 1.588132046e-17)
5(7.500981795e-16 2.039971001e-16 8.329275736e-17 2.710585698e-17 1.167101017e-17)
5(5.257491431e-16 1.383120145e-16 5.610459434e-17 2.057789998e-17 1.045977318e-17)
5(3.679041602e-16 9.665058675e-17 4.125071613e-17 1.893696697e-17 1.183900399e-17)
5(2.638278043e-16 7.21077822e-17 3.561560122e-17 2.206740155e-17 1.629853924e-17)
5(1.920428144e-16 6.154349007e-17 3.864975173e-17 3.124960949e-17 2.543891997e-17)
5(1.48165328e-16 6.49911932e-17 5.216374935e-17 4.982634544e-17 4.259324902e-17)
5(1.297379624e-16 8.492554774e-17 8.084559008e-17 8.355275908e-17 7.27786297e-17)
5(1.382576317e-16 1.291359567e-16 1.346218953e-16 1.434821327e-16 1.254161916e-16)
5(1.798947006e-16 2.09184986e-16 2.275247312e-16 2.43566576e-16 2.112641407e-16)
5(2.672481323e-16 3.458307774e-16 3.81116683e-16 4.05128105e-16 3.451451827e-16)
5(4.246067956e-16 5.717006854e-16 6.288192265e-16 6.484160638e-16 5.376125252e-16)
5(6.851094478e-16 9.119150854e-16 9.875217171e-16 9.892224036e-16 7.897163255e-16)
5(1.092548909e-15 1.428583695e-15 1.520520402e-15 1.43073603e-15 1.085283686e-15)
5(1.684399469e-15 2.10140355e-15 2.172228086e-15 1.921242878e-15 1.382526833e-15)
5(2.478771955e-15 2.936093996e-15 2.885164916e-15 2.387872736e-15 1.584441214e-15)
5(3.43305238e-15 3.833909992e-15 3.537882625e-15 2.695232162e-15 1.611306505e-15)
5(4.492614867e-15 4.642195174e-15 3.988253236e-15 2.732045391e-15 1.415198809e-15)
5(5.44492292e-15 5.125376129e-15 4.030810641e-15 2.430226769e-15 1.053614588e-15)
5(6.020440817e-15 5.097897618e-15 3.604438668e-15 1.855056111e-15 6.562154071e-16)
5(5.9862453e-15 4.447214966e-15 2.783810957e-15 1.181258875e-15 3.327229847e-16)
5(5.261294258e-15 3.399342408e-15 1.839415911e-15 6.114800713e-16 1.336962856e-16)
5(4.031420619e-15 2.206506419e-15 9.999997374e-16 2.504869925e-16 4.059160189e-17)
5(2.620340378e-15 1.190328146e-15 4.271613567e-16 7.921453066e-17 9.036735021e-18)
5(1.388446997e-15 5.139913553e-16 1.386636199e-16 1.864852491e-17 1.447917769e-18)
5(5.969799956e-16 1.698801065e-16 3.268820015e-17 3.135632117e-18 1.673752414e-19)
5(1.894657047e-16 4.025335249e-17 5.486169917e-18 3.599492064e-19 1.490969556e-20)
5(4.382843684e-17 6.456237345e-18 5.973177374e-19 3.034474959e-20 1.043227602e-21)
5(6.26074936e-18 6.60582149e-19 4.393371482e-20 1.880410183e-21 5.719729858e-23)
5(6.350516917e-19 4.184646236e-20 2.251061929e-21 8.72669585e-23 2.393007671e-24)
5(2.81691154e-20 1.406607464e-21 6.813813877e-23 2.903919854e-24 8.336426663e-26)
5(6.053302813e-22 3.059477022e-23 1.358261301e-24 1.38824328e-25 2.521755975e-27)
5(4.432417052e-24 -2.513483843e-23 2.444301543e-26 2.022615082e-23 1.276191593e-28)
5(1.538438626e-26 -2.29376957e-21 -7.470632397e-25 5.2852997e-21 8.033041246e-30)
5(3.472391067e-29 1.070601262e-19 -4.736789348e-24 1.172527673e-18 2.877278992e-31)
5(8.657182887e-32 -3.550923949e-18 -1.001165045e-20 -1.672913974e-18 2.495569637e-33)
5(1.868097482e-36 8.503506814e-36 0 9.392899311e-35 3.830307147e-34)
)


60
(
5(8.250523206e-12 3.178200981e-12 5.179694967e-12 2.524497009e-12 1.865883172e-12)
5(6.878917129e-12 3.967081256e-12 3.580912757e-12 2.158834036e-12 1.359834314e-12)
5(6.008539851e-12 4.162379844e-12 3.045870892e-12 2.009315303e-12 1.180373334e-12)
5(5.694345232e-12 4.075691511e-12 2.944173155e-12 1.938728421e-12 1.113811156e-12)
5(5.656972525e-12 3.906161295e-12 2.979255858e-12 1.871885796e-12 1.111212751e-12)
5(5.687915175e-12 3.66579468e-12 2.948310997e-12 1.756259939e-12 1.076997282e-12)
5(5.37903354e-12 3.283763542e-12 2.648304286e-12 1.522272295e-12 9.292541281e-13)
5(4.777922501e-12 2.747685831e-12 2.166780135e-12 1.190930565e-12 7.214764194e-13)
5(3.843574274e-12 2.070264811e-12 1.573756085e-12 8.066865431e-13 4.757203313e-13)
5(2.847906335e-12 1.341334073e-12 9.821183476e-13 4.47424117e-13 2.480653379e-13)
5(1.849518107e-12 7.271958052e-13 5.013250874e-13 2.010473877e-13 1.042066492e-13)
5(1.026544291e-12 3.635860127e-13 2.287040657e-13 8.400264111e-14 3.892991645e-14)
5(5.492146933e-13 1.846360699e-13 1.072974856e-13 3.799868075e-14 1.65063105e-14)
5(3.090464292e-13 1.002498692e-13 5.467153023e-14 1.896027297e-14 7.874557845e-15)
5(1.799431562e-13 5.77388801e-14 2.965151811e-14 1.00812241e-14 3.968210892e-15)
5(1.117585906e-13 3.332174989e-14 1.687489255e-14 5.565598513e-15 2.116373158e-15)
5(7.092963854e-14 2.060193488e-14 9.929759789e-15 3.19555854e-15 1.169252796e-15)
5(4.700486054e-14 1.313849538e-14 6.062939169e-15 1.892912068e-15 6.704910055e-16)
5(3.204135433e-14 8.710289485e-15 3.754633421e-15 1.144834458e-15 3.912084871e-16)
5(2.211525476e-14 5.904569805e-15 2.370425087e-15 7.044897653e-16 2.332978194e-16)
5(1.605257645e-14 3.956087716e-15 1.515266732e-15 4.399396769e-16 1.414560653e-16)
5(1.117548997e-14 2.666592905e-15 9.779938945e-16 2.766024357e-16 8.749020393e-17)
5(8.2111986e-15 1.809585691e-15 6.331269532e-16 1.748978154e-16 5.538357256e-17)
5(5.880282953e-15 1.230033551e-15 4.113341717e-16 1.123481052e-16 3.619581619e-17)
5(4.382524917e-15 8.378567509e-16 2.681755102e-16 7.398913529e-17 2.540672266e-17)
5(3.175186541e-15 5.707163572e-16 1.769891347e-16 5.093630095e-17 2.011477897e-17)
5(2.335346558e-15 3.91059583e-16 1.194663328e-16 3.886999522e-17 1.894950541e-17)
5(1.7711549e-15 2.694295484e-16 8.589436516e-17 3.495599841e-17 2.191794625e-17)
5(1.27786352e-15 1.936730762e-16 7.010549318e-17 3.893609716e-17 2.99452262e-17)
5(9.591911746e-16 1.506065502e-16 6.944751247e-17 5.231916295e-17 4.602115671e-17)
5(7.203153887e-16 1.340435215e-16 8.514267805e-17 7.913663617e-17 7.387203855e-17)
5(5.62752332e-16 1.463770357e-16 1.227437411e-16 1.277226006e-16 1.230014877e-16)
5(4.638340578e-16 1.913659578e-16 1.91889342e-16 2.100316231e-16 2.02721356e-16)
5(4.325996137e-16 2.795963409e-16 3.088657933e-16 3.433126478e-16 3.31900932e-16)
5(4.703743149e-16 4.330446205e-16 4.988997554e-16 5.500421032e-16 5.218211086e-16)
5(6.079238999e-16 6.73875497e-16 7.83519461e-16 8.520603743e-16 7.893234385e-16)
5(8.447917302e-16 1.045316173e-15 1.210876424e-15 1.264885991e-15 1.130267695e-15)
5(1.220090709e-15 1.554627582e-15 1.76762891e-15 1.769476878e-15 1.516022216e-15)
5(1.77059462e-15 2.226452853e-15 2.431298048e-15 2.319730446e-15 1.872296982e-15)
5(2.47070482e-15 3.005774607e-15 3.131246225e-15 2.810275122e-15 2.109778498e-15)
5(3.306019295e-15 3.81140472e-15 3.752283058e-15 3.112693662e-15 2.122286243e-15)
5(4.168269907e-15 4.461177799e-15 4.090643538e-15 3.103222249e-15 1.88574949e-15)
5(4.852837634e-15 4.773920796e-15 4.020953012e-15 2.739783615e-15 1.461397992e-15)
5(5.148280341e-15 4.589217449e-15 3.505521197e-15 2.099478149e-15 9.686506303e-16)
5(4.936679323e-15 3.92114307e-15 2.673289907e-15 1.371611607e-15 5.371415604e-16)
5(4.199394779e-15 2.919514998e-15 1.737507305e-15 7.47512433e-16 2.403857226e-16)
5(3.101505847e-15 1.863197276e-15 9.325648815e-16 3.295763831e-16 8.56901622e-17)
5(1.944527857e-15 9.853602972e-16 4.021956669e-16 1.143748184e-16 2.275531119e-17)
5(1.011475168e-15 4.178584494e-16 1.335350258e-16 3.031626379e-17 4.507555695e-18)
5(4.17256259e-16 1.355779738e-16 3.294653394e-17 5.707288248e-18 6.412371056e-19)
5(1.315695826e-16 3.159519892e-17 5.691935312e-18 7.698958493e-19 6.155013596e-20)
5(2.820599648e-17 4.888799138e-18 6.343799925e-19 6.68530595e-20 4.676703932e-21)
5(3.783773775e-18 4.666491955e-19 4.412165791e-20 3.889884672e-21 2.326728911e-22)
5(2.616138347e-19 2.443826365e-20 1.645217539e-21 1.32360895e-22 8.188495523e-24)
5(9.943924886e-21 6.288556454e-22 3.580074231e-23 3.794405115e-25 2.28421094e-25)
5(1.515317645e-22 -1.216227239e-21 3.515465031e-24 -5.863490449e-22 4.496819172e-27)
5(6.331975873e-25 -2.817270015e-19 7.664109838e-22 -1.365900978e-19 1.452079675e-28)
5(5.037351631e-28 -8.175629685e-17 1.763065564e-19 -3.734989506e-17 5.532056169e-30)
5(1.136804834e-30 -3.334654456e-14 -2.485961705e-19 -1.24023547e-14 3.050953264e-32)
5(1.967720459e-34 4.548232757e-35 0 3.02579591e-34 9.281492225e-34)
)


60
(
5(1.947970634e-11 7.918440084e-12 1.074016209e-11 5.303379371e-12 3.307704931e-12)
5(2.017370645e-11 1.103583648e-11 8.827747313e-12 4.92903761e-12 2.607519895e-12)
5(2.007890277e-11 1.256348902e-11 8.269364252e-12 4.828421119e-12 2.35550776e-12)
5(2.008003285e-11 1.287182203e-11 8.387830264e-12 4.835948934e-12 2.32620108e-12)
5(2.084662984e-11 1.274828403e-11 8.697006792e-12 4.80783189e-12 2.372228468e-12)
5(2.146140527e-11 1.236196526e-11 8.655140753e-12 4.585063013e-12 2.323342341e-12)
5(2.084495018e-11 1.131127779e-11 7.924080562e-12 4.079562438e-12 2.062819376e-12)
5(1.889932709e-11 9.765931854e-12 6.652515472e-12 3.308202803e-12 1.635850752e-12)
5(1.623022198e-11 7.672575284e-12 4.986885892e-12 2.330656723e-12 1.11782466e-12)
5(1.244673673e-11 5.118664418e-12 3.208363654e-12 1.357569098e-12 6.175216702e-13)
5(8.088013174e-12 2.892359682e-12 1.709389081e-12 6.340283173e-13 2.714047467e-13)
5(4.697328933e-12 1.443597241e-12 7.809595151e-13 2.627940349e-13 1.021677648e-13)
5(2.559549153e-12 7.257383969e-13 3.574107097e-13 1.156367975e-13 4.150953271e-14)
5(1.441294213e-12 3.91590916e-13 1.79674628e-13 5.703141753e-14 1.988095949e-14)
5(8.414861288e-13 2.252871854e-13 9.724444759e-14 3.040982354e-14 1.018388103e-14)
5(5.295137481e-13 1.353352563e-13 5.537446586e-14 1.70073414e-14 5.573151195e-15)
5(3.484722456e-13 8.405426514e-14 3.274932203e-14 9.833478375e-15 3.136733837e-15)
5(2.321243109e-13 5.375343347e-14 1.997360327e-14 5.874062304e-15 1.846829666e-15)
5(1.627209231e-13 3.512365293e-14 1.246305191e-14 3.590157568e-15 1.108566483e-15)
5(1.15740127e-13 2.349856979e-14 7.937400481e-15 2.241071344e-15 6.785920744e-16)
5(8.430038675e-14 1.596225045e-14 5.109479974e-15 1.417489472e-15 4.253612902e-16)
5(6.220683422e-14 1.092249667e-14 3.339107572e-15 9.080742936e-16 2.701571142e-16)
5(4.687674345e-14 7.584592564e-15 2.197436428e-15 5.847372083e-16 1.759046483e-16)
5(3.517412484e-14 5.320924724e-15 1.454431454e-15 3.807038911e-16 1.167245175e-16)
5(2.679403079e-14 3.757129028e-15 9.639936611e-16 2.514337056e-16 7.952140542e-17)
5(2.087554384e-14 2.656910067e-15 6.420356235e-16 1.695318025e-16 5.81104985e-17)
5(1.618556477e-14 1.898681806e-15 4.316514442e-16 1.187335536e-16 4.714528037e-17)
5(1.286437265e-14 1.362730872e-15 2.971408701e-16 8.98511493e-17 4.353666057e-17)
5(9.914940559e-15 9.876516756e-16 2.130340485e-16 7.695530826e-17 4.781007135e-17)
5(7.668881504e-15 7.30298975e-16 1.651298293e-16 7.699608958e-17 5.959373361e-17)
5(5.993024221e-15 5.534266416e-16 1.455132476e-16 9.049226016e-17 8.367008711e-17)
5(4.62368491e-15 4.402341302e-16 1.502211302e-16 1.20529412e-16 1.247658458e-16)
5(3.505211613e-15 3.746909898e-16 1.789030761e-16 1.743258591e-16 1.935291438e-16)
5(2.71540562e-15 3.511491625e-16 2.38743714e-16 2.633501917e-16 3.041595674e-16)
5(2.036421378e-15 3.739933219e-16 3.424311312e-16 4.085400606e-16 4.83121462e-16)
5(1.58321945e-15 4.48836092e-16 5.107715997e-16 6.36565376e-16 7.437133918e-16)
5(1.291991359e-15 5.975278831e-16 7.749891824e-16 9.777140464e-16 1.121197418e-15)
5(1.139479709e-15 8.50240952e-16 1.166874555e-15 1.458902471e-15 1.615554024e-15)
5(1.176554756e-15 1.243222306e-15 1.718270543e-15 2.082374929e-15 2.189142523e-15)
5(1.384119331e-15 1.799630245e-15 2.427080127e-15 2.801502324e-15 2.760101275e-15)
5(1.795435158e-15 2.533824085e-15 3.235553468e-15 3.502396738e-15 3.169152683e-15)
5(2.420406268e-15 3.360331901e-15 3.996390069e-15 4.00202093e-15 3.287237861e-15)
5(3.183401071e-15 4.144808594e-15 4.513665434e-15 4.113480196e-15 3.006576314e-15)
5(3.941388088e-15 4.672854184e-15 4.584752613e-15 3.729516453e-15 2.399563113e-15)
5(4.500209692e-15 4.71867796e-15 4.113063689e-15 2.931276915e-15 1.630959592e-15)
5(4.61707591e-15 4.202984407e-15 3.190765522e-15 1.955452018e-15 9.179115995e-16)
5(4.172374905e-15 3.243475453e-15 2.088135216e-15 1.084964159e-15 4.227485804e-16)
5(3.274229693e-15 2.115142633e-15 1.126375604e-15 4.841190756e-16 1.519457373e-16)
5(2.157008784e-15 1.129407934e-15 4.800864498e-16 1.685403005e-16 4.227427206e-17)
5(1.171739382e-15 4.765869002e-16 1.535737527e-16 4.349840848e-17 8.614643956e-18)
5(5.04802099e-16 1.50512747e-16 3.618602934e-17 8.243272652e-18 1.239390868e-18)
5(1.607603906e-16 3.262261291e-17 5.834759278e-18 1.014273009e-18 1.152742534e-19)
5(3.363884064e-17 4.652967761e-18 5.827994442e-19 8.156026253e-20 7.747254121e-21)
5(4.413817255e-18 3.805549934e-19 3.130326589e-20 3.876624581e-21 3.167101325e-22)
5(3.149276439e-19 1.519698741e-20 7.942775004e-22 1.371526982e-22 8.112638379e-24)
5(8.207429695e-21 8.50331152e-21 -8.632919381e-23 6.317403921e-21 1.612781668e-25)
5(3.563777113e-23 1.645900261e-18 -1.773201354e-20 1.200072175e-18 2.118457308e-27)
5(2.055310551e-25 4.588008007e-16 -4.392723107e-18 3.056873361e-16 5.620891516e-29)
5(1.732974337e-28 2.169501915e-13 -1.581990561e-15 1.245655759e-13 5.107638443e-31)
5(2.48184588e-30 2.153897818e-11 1.966370032e-19 1.593610308e-13 2.524820098e-33)
)


60
(
5(3.995228747e-11 1.647428827e-11 1.923812524e-11 9.676859264e-12 5.449904959e-12)
5(4.812326275e-11 2.472675595e-11 1.787815256e-11 9.674477369e-12 4.679848091e-12)
5(5.23740593e-11 2.932522594e-11 1.798498435e-11 9.875970203e-12 4.448068052e-12)
5(5.488376805e-11 3.107631611e-11 1.879367459e-11 1.012261525e-11 4.491678365e-12)
5(5.851350815e-11 3.154954424e-11 1.962059687e-11 1.020141572e-11 4.622894066e-12)
5(6.153212598e-11 3.093541818e-11 1.958382393e-11 9.850638841e-12 4.565461317e-12)
5(6.17414967e-11 2.901068137e-11 1.817227403e-11 8.920269091e-12 4.124672322e-12)
5(5.772294674e-11 2.560006458e-11 1.55470449e-11 7.376499951e-12 3.342239532e-12)
5(5.042664995e-11 2.069231934e-11 1.201911085e-11 5.407245433e-12 2.365534208e-12)
5(4.030158215e-11 1.471999919e-11 8.018085829e-12 3.316793745e-12 1.405302277e-12)
5(2.754782538e-11 8.587742143e-12 4.415017453e-12 1.634341335e-12 6.393075243e-13)
5(1.618464834e-11 4.381449142e-12 2.042448404e-12 6.822343786e-13 2.482304175e-13)
5(8.958465594e-12 2.167868298e-12 9.203045308e-13 2.912899812e-13 9.861323507e-14)
5(5.201660935e-12 1.149268915e-12 4.536126964e-13 1.407670558e-13 4.626224127e-14)
5(3.073272703e-12 6.571277497e-13 2.442739486e-13 7.463592285e-14 2.424436034e-14)
5(1.937489309e-12 3.952281297e-13 1.395672637e-13 4.175301714e-14 1.340908404e-14)
5(1.296357886e-12 2.480404634e-13 8.252236431e-14 2.432847421e-14 7.611786442e-15)
5(8.899228622e-13 1.602748112e-13 5.041527144e-14 1.467370956e-14 4.550016905e-15)
5(6.327137462e-13 1.064979299e-13 3.176220416e-14 9.031512864e-15 2.771878834e-15)
5(4.63177738e-13 7.272904234e-14 2.040250887e-14 5.697339489e-15 1.744381074e-15)
5(3.455475597e-13 5.075246194e-14 1.334367898e-14 3.64953845e-15 1.106459582e-15)
5(2.622795834e-13 3.597979661e-14 8.870792467e-15 2.37697966e-15 7.243885677e-16)
5(2.045479802e-13 2.607368376e-14 5.99080195e-15 1.567269712e-15 4.802180786e-16)
5(1.6297822e-13 1.914641991e-14 4.079949601e-15 1.04194483e-15 3.20459643e-16)
5(1.272557697e-13 1.427206508e-14 2.79737819e-15 6.989395063e-16 2.207204081e-16)
5(1.038123933e-13 1.086638038e-14 1.941061665e-15 4.763818999e-16 1.586993865e-16)
5(8.205286835e-14 8.187128194e-15 1.36792805e-15 3.32384063e-16 1.196544463e-16)
5(6.673807067e-14 6.31610675e-15 9.789443109e-16 2.420137427e-16 9.907187988e-17)
5(5.392944567e-14 4.94984971e-15 7.129292854e-16 1.875390965e-16 9.192699183e-17)
5(4.460227169e-14 3.867079843e-15 5.381665899e-16 1.599073046e-16 9.629547962e-17)
5(3.575407872e-14 3.008536882e-15 4.293792048e-16 1.52685484e-16 1.134003181e-16)
5(2.800750847e-14 2.381919471e-15 3.648774653e-16 1.644639833e-16 1.46977596e-16)
5(2.191383427e-14 1.880124555e-15 3.341276451e-16 1.954029545e-16 1.992376878e-16)
5(1.697449353e-14 1.513836026e-15 3.347532986e-16 2.524718594e-16 2.855925661e-16)
5(1.317312826e-14 1.222451122e-15 3.693555936e-16 3.46580346e-16 4.249319237e-16)
5(9.915689168e-15 1.008044691e-15 4.477905541e-16 4.98819421e-16 6.388828415e-16)
5(7.144378496e-15 8.961210688e-16 5.921023679e-16 7.418817671e-16 9.681942964e-16)
5(5.086230636e-15 8.713030929e-16 8.36588284e-16 1.119521295e-15 1.448719043e-15)
5(3.532381983e-15 9.64389618e-16 1.230292599e-15 1.668890873e-15 2.081199907e-15)
5(2.550415925e-15 1.246342174e-15 1.807492232e-15 2.402685922e-15 2.824526239e-15)
5(2.076025435e-15 1.754509895e-15 2.587708494e-15 3.274719323e-15 3.567890935e-15)
5(2.040451472e-15 2.496927187e-15 3.512705796e-15 4.135682924e-15 4.132777004e-15)
5(2.459845812e-15 3.42763903e-15 4.414332e-15 4.759408693e-15 4.282446117e-15)
5(3.233083281e-15 4.36454465e-15 5.049359698e-15 4.90987383e-15 3.941738501e-15)
5(4.12742434e-15 5.049640389e-15 5.14700898e-15 4.45494898e-15 3.157047324e-15)
5(4.881073618e-15 5.221167945e-15 4.628888531e-15 3.497179828e-15 2.163914475e-15)
5(5.207226675e-15 4.730869418e-15 3.573517575e-15 2.334387638e-15 1.230104827e-15)
5(4.885262038e-15 3.709600393e-15 2.310074893e-15 1.284807845e-15 5.665617103e-16)
5(3.954365008e-15 2.446591473e-15 1.220759222e-15 5.65728224e-16 2.038059189e-16)
5(2.718754176e-15 1.320326712e-15 5.08288621e-16 1.942466018e-16 5.454115793e-17)
5(1.537099822e-15 5.585215844e-16 1.591104439e-16 4.892526953e-17 1.075800412e-17)
5(6.978375047e-16 1.732977074e-16 3.512750722e-17 8.672810785e-18 1.645138307e-18)
5(2.444469702e-16 3.890504391e-17 5.110252124e-18 9.6031542e-19 1.220241741e-19)
5(5.885342365e-17 5.65220225e-18 4.291813776e-19 6.306627913e-20 8.169168296e-21)
5(7.961292941e-18 4.260335102e-19 1.870913479e-20 2.092082071e-21 2.470643151e-22)
5(8.175339564e-19 2.703591496e-20 2.724393113e-22 8.322447284e-21 2.363678088e-24)
5(2.974486627e-20 2.183240084e-18 -8.312368109e-21 1.285553675e-18 3.359241281e-26)
5(2.784513589e-22 5.43530315e-16 -1.447492539e-18 2.588354104e-16 4.634544318e-28)
5(1.585952347e-24 2.015585261e-13 1.185025862e-18 7.239595424e-14 3.758808191e-30)
5(1.391362573e-24 2.119104416e-28 0 2.809891749e-33 5.141335771e-33)
)


60
(
5(7.482401837e-11 2.995592482e-11 3.10608503e-11 1.590763431e-11 8.420987641e-12)
5(1.020646706e-10 4.74435102e-11 3.143999993e-11 1.668907226e-11 7.755242884e-12)
5(1.185411886e-10 5.82595742e-11 3.316828523e-11 1.753543891e-11 7.666020652e-12)
5(1.291832245e-10 6.290326923e-11 3.533024825e-11 1.825477665e-11 7.893329949e-12)
5(1.421951773e-10 6.49577698e-11 3.706683919e-11 1.855784708e-11 8.150493486e-12)
5(1.549274202e-10 6.543758327e-11 3.712178503e-11 1.809704192e-11 8.094302572e-12)
5(1.570462388e-10 6.271386789e-11 3.501738719e-11 1.662289212e-11 7.400260813e-12)
5(1.519815382e-10 5.657872017e-11 3.060696229e-11 1.409401992e-11 6.16966411e-12)
5(1.363239185e-10 4.71186189e-11 2.440397154e-11 1.070917741e-11 4.552572047e-12)
5(1.129636954e-10 3.457927641e-11 1.688030916e-11 6.9335733e-12 2.80417381e-12)
5(8.013252128e-11 2.152387849e-11 9.675280539e-12 3.606364214e-12 1.379749161e-12)
5(5.023258131e-11 1.133459037e-11 4.61846076e-12 1.557766731e-12 5.624303676e-13)
5(2.78943911e-11 5.624501291e-12 2.063782127e-12 6.493435354e-13 2.169127069e-13)
5(1.6059747e-11 2.971354749e-12 9.976516792e-13 3.054647468e-13 9.93673931e-14)
5(9.6532606e-12 1.703610641e-12 5.340741652e-13 1.606977576e-13 5.157033136e-14)
5(6.221048494e-12 1.038811137e-12 3.056997863e-13 9.015282866e-14 2.885523708e-14)
5(4.208216948e-12 6.601011278e-13 1.828882247e-13 5.284767181e-14 1.664556008e-14)
5(3.018917703e-12 4.378676583e-13 1.13537665e-13 3.197944766e-14 1.007090684e-14)
5(2.159480942e-12 2.993382924e-13 7.246612461e-14 1.993968834e-14 6.207229566e-15)
5(1.600992231e-12 2.110995633e-13 4.761439344e-14 1.27369767e-14 4.004689476e-15)
5(1.224528752e-12 1.527263064e-13 3.200920077e-14 8.304083439e-15 2.58817722e-15)
5(9.457066229e-13 1.130007951e-13 2.195095404e-14 5.517539355e-15 1.697971818e-15)
5(7.636115736e-13 8.570248652e-14 1.541884149e-14 3.709828916e-15 1.139859612e-15)
5(6.120311148e-13 6.640224095e-14 1.100350235e-14 2.525467817e-15 7.802849491e-16)
5(4.938173678e-13 5.211779698e-14 7.984651024e-15 1.746508173e-15 5.457750062e-16)
5(4.082223111e-13 4.135996249e-14 5.920974167e-15 1.222596427e-15 3.908853025e-16)
5(3.435246773e-13 3.334549813e-14 4.454409439e-15 8.714315732e-16 2.907160377e-16)
5(2.840487674e-13 2.718067885e-14 3.384217912e-15 6.41238985e-16 2.307955221e-16)
5(2.299651563e-13 2.214107249e-14 2.607021239e-15 4.887169154e-16 1.945126375e-16)
5(1.920550826e-13 1.790834717e-14 2.059698946e-15 3.906824168e-16 1.806241797e-16)
5(1.579867952e-13 1.473519215e-14 1.660044088e-15 3.354651594e-16 1.846827389e-16)
5(1.297866966e-13 1.213977301e-14 1.346366779e-15 3.089439577e-16 2.042221834e-16)
5(1.042335393e-13 9.685754434e-15 1.117156364e-15 3.063404609e-16 2.40609968e-16)
5(8.10424674e-14 7.730798261e-15 9.494657535e-16 3.258809485e-16 3.079183966e-16)
5(6.401357431e-14 6.09624097e-15 8.338592429e-16 3.69435834e-16 4.012507914e-16)
5(4.792977495e-14 4.772242644e-15 7.595675599e-16 4.49467617e-16 5.612906154e-16)
5(3.623695218e-14 3.682676292e-15 7.322846855e-16 5.928856626e-16 8.089326002e-16)
5(2.563034211e-14 2.763382474e-15 7.872851611e-16 8.363265182e-16 1.196796573e-15)
5(1.782135475e-14 2.093848327e-15 9.603039665e-16 1.240082905e-15 1.778532643e-15)
5(1.175248583e-14 1.720355343e-15 1.316608075e-15 1.859973193e-15 2.554975274e-15)
5(7.451173461e-15 1.657133461e-15 1.92462511e-15 2.717157332e-15 3.452491319e-15)
5(4.744001979e-15 1.984961164e-15 2.80896264e-15 3.748724882e-15 4.382659575e-15)
5(3.450608518e-15 2.70869584e-15 3.896060581e-15 4.777309529e-15 5.036106272e-15)
5(3.187258051e-15 3.740557911e-15 4.978535038e-15 5.520465992e-15 5.202406968e-15)
5(3.747977613e-15 4.879068615e-15 5.735580148e-15 5.67596264e-15 4.752765505e-15)
5(4.733631436e-15 5.78452117e-15 5.888505367e-15 5.113233092e-15 3.774282698e-15)
5(5.646778767e-15 6.096063394e-15 5.277582593e-15 3.968195322e-15 2.533444843e-15)
5(6.178719262e-15 5.627698545e-15 4.037866982e-15 2.608483708e-15 1.428820097e-15)
5(5.951163023e-15 4.484974242e-15 2.599271425e-15 1.408503641e-15 6.413256166e-16)
5(4.986048817e-15 3.023037693e-15 1.36183521e-15 6.021966704e-16 2.237810431e-16)
5(3.544117691e-15 1.671848174e-15 5.585323762e-16 1.973061663e-16 5.857035612e-17)
5(2.121925937e-15 7.483135508e-16 1.70930306e-16 4.674855826e-17 1.073915689e-17)
5(1.016528652e-15 2.44711107e-16 3.765539907e-17 7.268362876e-18 1.297556471e-18)
5(4.049744077e-16 5.836414929e-17 5.095639854e-18 7.370538036e-19 1.071615413e-19)
5(1.064559996e-16 9.168340756e-18 3.791061402e-19 3.774007364e-20 3.983577943e-21)
5(2.672114235e-17 8.09986217e-19 1.077453366e-20 -3.226627359e-21 6.483718675e-23)
5(2.774155026e-18 -7.979410956e-19 1.670215798e-20 -9.495340383e-19 3.877593175e-25)
5(2.400777867e-19 -3.40621358e-16 4.393084646e-18 -2.772047054e-16 4.712350794e-27)
5(9.601212236e-21 -2.169779275e-13 1.581692979e-15 -1.245428121e-13 2.331356124e-29)
5(2.214477234e-20 -2.153897818e-11 -1.966370032e-19 -1.593610308e-13 3.056954069e-13)
)


60
(
5(1.32375928e-10 4.966987392e-11 4.682924749e-11 2.425017039e-11 1.246841301e-11)
5(2.00205681e-10 8.299379246e-11 5.04645826e-11 2.632167448e-11 1.21135188e-11)
5(2.461550546e-10 1.0511052e-10 5.501879939e-11 2.827560817e-11 1.233550465e-11)
5(2.810438367e-10 1.1591389e-10 5.959559006e-11 2.978040679e-11 1.285284952e-11)
5(3.184938459e-10 1.221223534e-10 6.287906036e-11 3.051470814e-11 1.337546538e-11)
5(3.554548867e-10 1.261087173e-10 6.361673042e-11 3.004277299e-11 1.339928999e-11)
5(3.677645344e-10 1.2374764e-10 6.098442994e-11 2.803112529e-11 1.237513444e-11)
5(3.660071726e-10 1.152835093e-10 5.437260238e-11 2.428343518e-11 1.063218293e-11)
5(3.355287386e-10 9.909555257e-11 4.450723289e-11 1.908419096e-11 8.082641119e-12)
5(2.883008072e-10 7.606987474e-11 3.197409483e-11 1.291358452e-11 5.215322639e-12)
5(2.169212574e-10 4.976287914e-11 1.933131843e-11 7.182610636e-12 2.71996048e-12)
5(1.409810201e-10 2.754520823e-11 9.645268467e-12 3.225201573e-12 1.142383964e-12)
5(7.911789669e-11 1.398169806e-11 4.347375398e-12 1.340307519e-12 4.613294034e-13)
5(4.520741626e-11 7.338721755e-12 2.076607776e-12 6.157068052e-13 1.994335356e-13)
5(2.756673771e-11 4.246340228e-12 1.111646066e-12 3.214207327e-13 1.047461465e-13)
5(1.805506876e-11 2.63432728e-12 6.430504545e-13 1.809031156e-13 5.764369909e-14)
5(1.255203109e-11 1.72794794e-12 3.923139466e-13 1.069664234e-13 3.381004609e-14)
5(8.809279023e-12 1.176786146e-12 2.493234688e-13 6.54142434e-14 2.054156949e-14)
5(6.508838361e-12 8.278740715e-13 1.636048115e-13 4.139675896e-14 1.3079866e-14)
5(4.925919643e-12 6.04237037e-13 1.113616501e-13 2.690083107e-14 8.319150654e-15)
5(3.857154364e-12 4.509694916e-13 7.767482149e-14 1.792588027e-14 5.527643145e-15)
5(3.023073015e-12 3.489427181e-13 5.60143793e-14 1.220024755e-14 3.731931072e-15)
5(2.404095386e-12 2.743466893e-13 4.129145232e-14 8.452266904e-15 2.528193018e-15)
5(1.994282801e-12 2.189331522e-13 3.112760847e-14 5.966624004e-15 1.770896979e-15)
5(1.661031359e-12 1.783790141e-13 2.400558144e-14 4.267989088e-15 1.259550856e-15)
5(1.357782352e-12 1.473613857e-13 1.876807475e-14 3.104049873e-15 9.090804488e-16)
5(1.154442649e-12 1.221594799e-13 1.495447165e-14 2.313005834e-15 6.773886605e-16)
5(9.585973078e-13 1.026554742e-13 1.20807049e-14 1.763410484e-15 5.27599771e-16)
5(8.22283684e-13 8.574702466e-14 9.898890385e-15 1.377471203e-15 4.265973439e-16)
5(6.87425162e-13 7.221794681e-14 8.179470584e-15 1.10418122e-15 3.736760266e-16)
5(5.958571291e-13 6.116441629e-14 6.816370179e-15 9.204219908e-16 3.447059116e-16)
5(4.718325203e-13 5.080717154e-14 5.61511184e-15 7.903966728e-16 3.406624317e-16)
5(3.87717607e-13 4.209672948e-14 4.625118466e-15 7.059132132e-16 3.548797004e-16)
5(3.181290333e-13 3.44736549e-14 3.856799053e-15 6.494298562e-16 3.929702757e-16)
5(2.513764902e-13 2.775135844e-14 3.15565637e-15 6.179698018e-16 4.542904461e-16)
5(1.948591644e-13 2.202714505e-14 2.584249099e-15 6.142182366e-16 5.501913913e-16)
5(1.493052183e-13 1.672686641e-14 2.096934381e-15 6.49520347e-16 7.219079526e-16)
5(1.087810958e-13 1.253728812e-14 1.723235837e-15 7.476539119e-16 9.902991187e-16)
5(7.665520901e-14 9.022640827e-15 1.472168232e-15 9.689764983e-16 1.43171029e-15)
5(5.249426903e-14 6.289033258e-15 1.421545231e-15 1.391048506e-15 2.121643219e-15)
5(3.276235845e-14 4.411727632e-15 1.649854529e-15 2.088003167e-15 3.051219282e-15)
5(1.977213168e-14 3.301514775e-15 2.23381479e-15 3.089619621e-15 4.139688909e-15)
5(1.197465457e-14 2.996730654e-15 3.203583152e-15 4.324620487e-15 5.251791969e-15)
5(7.066630992e-15 3.441636117e-15 4.457430791e-15 5.531435838e-15 5.99775459e-15)
5(5.075968712e-15 4.454152623e-15 5.763050806e-15 6.389607023e-15 6.149802796e-15)
5(4.857381027e-15 5.721828118e-15 6.676688112e-15 6.53125857e-15 5.512044433e-15)
5(5.625363105e-15 6.78505814e-15 6.856510996e-15 5.826836889e-15 4.291409945e-15)
5(6.603068687e-15 7.210315871e-15 6.14109227e-15 4.483051099e-15 2.84919595e-15)
5(7.230755322e-15 6.748453921e-15 4.725127368e-15 2.900624552e-15 1.559229816e-15)
5(7.058713008e-15 5.460703442e-15 3.060018292e-15 1.54144918e-15 6.7499945e-16)
5(6.076344127e-15 3.77077883e-15 1.626147588e-15 6.500389832e-16 2.270398953e-16)
5(4.558073688e-15 2.181245924e-15 6.823757029e-16 2.092966961e-16 5.443691474e-17)
5(2.923381326e-15 1.022518959e-15 2.19884263e-16 4.709798531e-17 9.397002005e-18)