/*--------------------------------*- C++ -*----------------------------------*\
| =========                 |                                                 |
| \\      /  F ield         | OpenFOAM: The Open Source CFD Toolbox           |
|  \\    /   O peration     | Version:  2.3.1                                 |
|   \\  /    A nd           | Web:      www.OpenFOAM.org                      |
|    \\/     M anipulation  |                                                 |
\*---------------------------------------------------------------------------*/
FoamFile
{
    version     2.0;
    format      ascii;
    class       dictionary;
    location    "constant";
    object      GRPSI19;
}
// * * * * * * * * * * * * * * * * * * * * * * * * * * * * * * * * * * * * * //

GRPSI19_table
60
(

60
(
5(-6.365380272e-11 -4.006493581e-11 -1.707612724e-10 -1.135236808e-10 -7.465810464e-10)
5(1.65545958e-09 -1.627501247e-11 -1.117305123e-10 -7.811619618e-11 -4.26895223e-10)
5(5.165508888e-09 5.829486935e-12 -2.709185994e-11 -2.818981785e-11 -4.967292572e-11)
5(4.627823854e-09 1.906693882e-12 3.442539559e-12 2.037209856e-13 2.279630147e-12)
5(-1.914611854e-10 -1.970884448e-13 -3.705961094e-12 1.182975432e-11 3.427681452e-12)
5(-6.322895879e-09 1.706288664e-13 -2.671292225e-12 1.737068798e-12 2.814822418e-11)
5(-4.988425829e-09 1.789329519e-12 1.463970785e-11 1.839168565e-12 -1.474700473e-12)
5(6.020116778e-09 4.993071268e-12 1.192537789e-11 8.231508639e-12 -1.619610814e-11)
5(1.001933383e-08 2.8280293e-11 1.726763158e-11 5.4703086e-12 1.528427838e-11)
5(5.019468952e-09 4.617860339e-11 2.037025741e-11 1.147170936e-11 1.703270953e-11)
5(-6.281921396e-09 -7.684697398e-12 3.612896676e-12 1.581535602e-11 2.060922572e-11)
5(-1.102673663e-08 -1.867161434e-11 5.087238627e-12 2.703937456e-11 3.216599661e-11)
5(-3.702316874e-09 2.456965411e-11 2.41091624e-11 2.286975477e-11 3.245725874e-11)
5(1.89539411e-11 2.569914998e-11 2.982701041e-11 3.078164503e-11 2.710206092e-11)
5(3.851106415e-10 1.150497197e-10 7.542514126e-11 7.485908755e-11 5.297081388e-11)
5(3.793272257e-10 1.205938149e-10 1.158407545e-10 7.45279317e-11 8.631868424e-11)
5(-1.826658685e-10 3.687713426e-11 5.272886136e-11 8.105515856e-11 1.061714647e-10)
5(-2.846449631e-10 4.416298113e-11 5.84483685e-11 1.122540595e-10 1.359192754e-10)
5(-4.465172416e-11 9.510179654e-11 1.625226143e-10 1.911816407e-10 1.44360879e-10)
5(1.222044855e-10 1.523878302e-10 1.888909644e-10 2.351418363e-10 1.369575748e-10)
5(1.579399882e-10 2.079214057e-10 2.745488158e-10 1.241673807e-10 1.021609319e-10)
5(2.559378286e-10 3.359185669e-10 3.85897053e-10 3.141624899e-10 2.723709299e-10)
5(3.364260336e-10 5.586428936e-10 4.971975018e-10 5.798820616e-10 4.294151681e-10)
5(5.142318609e-10 9.470014323e-10 7.937880822e-10 8.128461186e-10 5.596008316e-10)
5(7.649612137e-10 1.559341299e-09 1.35349696e-09 1.391376158e-09 8.356697169e-10)
5(1.058838762e-09 1.740111073e-09 1.713800751e-09 2.044818356e-09 1.184579473e-09)
5(1.534928632e-09 1.742579128e-09 2.580507374e-09 2.870728754e-09 1.717035716e-09)
5(2.619959085e-09 3.235028528e-09 3.812336594e-09 3.841884947e-09 2.55632481e-09)
5(4.056138733e-09 5.857619528e-09 5.26364557e-09 4.700957456e-09 3.394145282e-09)
5(6.234313049e-09 8.916183719e-09 8.714619892e-09 7.707105106e-09 4.807020484e-09)
5(9.366588426e-09 1.211595105e-08 1.141081009e-08 9.138056702e-09 3.692405977e-09)
5(1.326242192e-08 1.73681723e-08 1.584738351e-08 1.11820925e-08 7.778602967e-09)
5(1.968578263e-08 2.569557384e-08 2.460836121e-08 1.466574784e-08 6.159146499e-09)
5(2.861568027e-08 3.246578381e-08 2.903979737e-08 1.637820867e-08 2.312547498e-09)
5(3.853496946e-08 4.507468705e-08 4.284533786e-08 1.902862625e-08 6.090623915e-09)
5(4.975918301e-08 4.454432331e-08 2.785439338e-08 1.021927066e-08 4.104906277e-09)
5(6.082417836e-08 5.107908094e-08 1.444194921e-08 7.229798599e-09 -1.234722134e-08)
5(7.313836501e-08 5.731637826e-08 3.349122933e-08 1.668278297e-09 -4.476763859e-09)
5(9.148158399e-08 4.607345868e-08 3.437850052e-08 -8.36996743e-09 -1.03706035e-08)
5(8.508449954e-08 1.879805984e-08 -1.174609733e-08 -1.588327292e-08 -1.941484451e-08)
5(4.649323812e-08 -1.252914889e-08 -4.876120684e-08 -2.766989132e-08 -8.027422143e-11)
5(1.572353828e-08 -4.450434743e-08 -5.143345616e-08 -3.87933906e-08 -1.335933299e-10)
5(-9.903311547e-09 -5.653997138e-08 -1.695718383e-08 -2.409394858e-08 6.578585736e-10)
5(-4.671014001e-08 -6.176202118e-08 -2.111623723e-08 6.141650424e-13 5.91565925e-11)
5(-1.002686727e-07 -6.800830332e-08 -6.220427483e-08 1.164158351e-12 -6.548058793e-10)
5(-1.254045968e-07 -5.47939054e-08 -3.511579471e-08 1.376117995e-10 -5.361776465e-11)
5(-9.273047743e-08 -4.960342171e-08 -9.498441651e-09 3.777192467e-12 7.564057114e-12)
5(-7.671443927e-08 -2.341456338e-08 -2.613105334e-09 -1.289004714e-10 1.31813119e-11)
5(-6.014195863e-08 -3.552528776e-09 -5.812961785e-10 1.114864034e-11 2.226398361e-11)
5(-2.396702105e-08 -1.571130611e-09 -5.678139898e-11 1.883018866e-11 3.710233242e-11)
5(-9.666441994e-09 -2.51453408e-11 1.36538412e-11 3.109045695e-11 6.069781424e-11)
5(-3.717114258e-09 1.00221909e-11 2.242541402e-11 5.02303418e-11 9.728378946e-11)
5(-7.149581237e-10 1.618693324e-11 3.636721961e-11 7.976309288e-11 1.547216714e-10)
5(1.324419964e-12 2.576476381e-11 5.792600275e-11 1.252418813e-10 2.410839954e-10)
5(2.632191587e-11 4.065383505e-11 9.088621526e-11 1.922583158e-10 3.677065746e-10)
5(6.467938883e-11 6.379985259e-11 1.41241342e-10 2.902919923e-10 5.429394863e-10)
5(8.967143015e-11 1.290174581e-10 2.189943534e-10 4.305887391e-10 7.785460348e-10)
5(8.746265964e-11 2.156748884e-10 3.960196408e-10 4.420613209e-10 1.102780306e-09)
5(9.00154503e-11 3.02703706e-10 7.250269031e-10 1.641767885e-09 2.64076701e-09)
5(9.48130031e-11 3.541615884e-10 9.243819262e-10 2.911606839e-09 3.990345978e-09)
)


60
(
5(-7.354149673e-11 1.297700855e-11 -3.127091873e-10 -2.652535377e-10 -2.542746992e-09)
5(-4.65081376e-11 2.335834399e-11 -1.899226022e-10 -1.350358712e-10 -1.529554025e-09)
5(-1.25616206e-12 4.683247123e-11 -8.749671736e-13 9.204994528e-11 -1.320342675e-10)
5(3.704570909e-11 7.864074599e-11 1.320152209e-10 2.92877149e-10 5.937486272e-10)
5(7.189279565e-11 1.196258138e-10 2.539617579e-10 5.078572434e-10 1.286462134e-09)
5(9.774185109e-11 1.653841483e-10 3.41023777e-10 6.862651149e-10 1.735765053e-09)
5(1.198424008e-10 2.192017696e-10 4.08778191e-10 8.409569968e-10 1.873410294e-09)
5(1.497050422e-10 2.900737549e-10 5.005917047e-10 1.052582427e-09 2.083315474e-09)
5(1.932988159e-10 3.843138942e-10 6.544109759e-10 1.345614948e-09 2.68707868e-09)
5(2.714017224e-10 5.070511687e-10 8.864741515e-10 1.724665448e-09 3.449606143e-09)
5(3.646548942e-10 6.630824423e-10 1.171731429e-09 2.167116387e-09 4.140805696e-09)
5(4.720171916e-10 8.535354524e-10 1.485487312e-09 2.641461446e-09 4.928564719e-09)
5(6.210403868e-10 1.083281444e-09 1.82916726e-09 3.114542667e-09 5.511726094e-09)
5(8.011683654e-10 1.364323315e-09 2.21520706e-09 3.599127479e-09 5.9161763e-09)
5(1.015784846e-09 1.702379852e-09 2.661384786e-09 4.118320279e-09 6.393654473e-09)
5(1.324887227e-09 2.115401422e-09 3.193177357e-09 4.675058981e-09 6.798851428e-09)
5(1.709644474e-09 2.634117822e-09 3.822425337e-09 5.284969008e-09 7.036180502e-09)
5(2.164060541e-09 3.279642165e-09 4.561704127e-09 5.970515362e-09 7.232710075e-09)
5(2.767342146e-09 4.081614968e-09 5.444097239e-09 6.783324186e-09 7.440960368e-09)
5(3.566985583e-09 5.11617731e-09 6.568959107e-09 7.817915067e-09 8.023516169e-09)
5(4.626132772e-09 6.464840429e-09 8.051612145e-09 9.195671404e-09 8.999318184e-09)
5(5.952150406e-09 8.272199567e-09 1.002656763e-08 1.115874176e-08 1.040575605e-08)
5(7.685804479e-09 1.07886131e-08 1.282387673e-08 1.413163444e-08 1.299891927e-08)
5(1.030212064e-08 1.426903687e-08 1.678331996e-08 1.853336935e-08 1.713883471e-08)
5(1.382245155e-08 1.924455477e-08 2.251540147e-08 2.506648811e-08 2.339605379e-08)
5(1.879537157e-08 2.642691323e-08 3.095794459e-08 3.468470302e-08 3.261831537e-08)
5(2.613965038e-08 3.688580182e-08 4.321234326e-08 4.844683634e-08 4.565882374e-08)
5(3.691732592e-08 5.210841337e-08 6.09779874e-08 6.79509333e-08 6.392510623e-08)
5(5.236320882e-08 7.389721118e-08 8.628395269e-08 9.512610896e-08 8.933240012e-08)
5(7.52131632e-08 1.04904217e-07 1.218305021e-07 1.321015075e-07 1.2230456e-07)
5(1.082165839e-07 1.482430485e-07 1.696040399e-07 1.802138333e-07 1.634299754e-07)
5(1.539004387e-07 2.060575741e-07 2.320948037e-07 2.398685216e-07 2.134637111e-07)
5(2.16344004e-07 2.813422818e-07 3.105430054e-07 3.102322867e-07 2.658403157e-07)
5(3.00113825e-07 3.766657762e-07 4.04203374e-07 3.858204564e-07 3.158188739e-07)
5(4.068777513e-07 4.880427579e-07 5.071344683e-07 4.583044032e-07 3.565939378e-07)
5(5.365938903e-07 6.088089828e-07 6.071591996e-07 5.141305333e-07 3.749194193e-07)
5(6.806833487e-07 7.284865207e-07 6.872966864e-07 5.36677098e-07 3.580106645e-07)
5(8.26832566e-07 8.201288699e-07 7.224286968e-07 5.063249608e-07 2.829944271e-07)
5(9.541349086e-07 8.64229079e-07 6.870760711e-07 4.030229696e-07 1.325774009e-07)
5(1.025994389e-06 8.212714861e-07 5.533851752e-07 2.202973152e-07 -7.700044336e-08)
5(9.977153069e-07 6.700868646e-07 3.257779172e-07 -3.551163237e-08 -2.960478556e-07)
5(8.433974791e-07 3.966204736e-07 1.670642445e-08 -3.340406097e-07 -4.615628898e-07)
5(5.445541613e-07 -1.161588403e-09 -3.422954644e-07 -6.064167162e-07 -5.351974371e-07)
5(9.522253478e-08 -4.334167772e-07 -6.880603396e-07 -7.733239236e-07 -5.178786442e-07)
5(-4.394092245e-07 -8.286169082e-07 -9.517174535e-07 -7.906305361e-07 -4.310485629e-07)
5(-9.463802393e-07 -1.117297704e-06 -1.061007061e-06 -6.729472405e-07 -3.069107489e-07)
5(-1.326826441e-06 -1.228906159e-06 -9.805133403e-07 -4.85873195e-07 -1.84102138e-07)
5(-1.477624472e-06 -1.146665118e-06 -7.513816017e-07 -2.996186408e-07 -9.241494824e-08)
5(-1.377495693e-06 -9.068024663e-07 -4.770306229e-07 -1.561191519e-07 -3.883000562e-08)
5(-1.082582599e-06 -5.977651428e-07 -2.504747873e-07 -6.752909377e-08 -1.393645897e-08)
5(-7.057243945e-07 -3.191841369e-07 -1.085465013e-07 -2.413448533e-08 -4.512626687e-09)
5(-3.733492178e-07 -1.359151848e-07 -3.785018586e-08 -7.626848826e-09 -1.300613583e-09)
5(-1.528280231e-07 -4.61601873e-08 -1.140037851e-08 -2.269590927e-09 -2.415101369e-10)
5(-5.070202526e-08 -1.310283583e-08 -3.398406095e-09 -6.507031379e-10 2.253617718e-10)
5(-1.296579364e-08 -3.651534837e-09 -1.219324163e-09 -5.959678045e-11 6.203216012e-10)
5(-3.909038198e-09 -1.588283265e-09 -6.008792263e-10 2.864776959e-10 1.030985526e-09)
5(-2.066423061e-09 -1.018038691e-09 -2.892014988e-10 6.167591307e-10 1.520519417e-09)
5(-1.429221547e-09 -7.341412478e-10 -5.244610339e-11 1.003994489e-09 2.18848903e-09)
5(-1.046258762e-09 -4.701734978e-10 3.355510854e-10 1.844680139e-09 3.429176214e-09)
5(-9.408208708e-10 -3.220496496e-10 6.167215261e-10 2.472205491e-09 4.26553567e-09)
)


60
(
5(-5.779990354e-11 1.099999863e-10 -4.687098487e-10 -3.820470443e-10 -5.019812123e-09)
5(-2.261073478e-11 1.375591107e-10 -2.327574512e-10 -3.886220561e-11 -2.891749048e-09)
5(5.32057062e-11 2.038613575e-10 1.884861467e-10 6.286259072e-10 5.389973067e-10)
5(1.410834775e-10 3.045171886e-10 5.739787348e-10 1.316291452e-09 2.909112835e-09)
5(2.427939086e-10 4.473618549e-10 9.672967818e-10 2.033599083e-09 5.061826758e-09)
5(3.413962916e-10 6.165771786e-10 1.299985529e-09 2.659454578e-09 6.464467533e-09)
5(4.341544536e-10 8.137409283e-10 1.581591611e-09 3.24312484e-09 7.082993862e-09)
5(5.444304914e-10 1.063525656e-09 1.934205104e-09 3.958903396e-09 8.015075122e-09)
5(7.204674e-10 1.386649722e-09 2.464625712e-09 4.902319988e-09 9.513177393e-09)
5(9.780463725e-10 1.800188123e-09 3.189822994e-09 6.055247918e-09 1.155063643e-08)
5(1.309454585e-09 2.303970847e-09 4.045759157e-09 7.313427598e-09 1.372266721e-08)
5(1.678506004e-09 2.893450108e-09 4.978509147e-09 8.573116041e-09 1.536995447e-08)
5(2.126755822e-09 3.596188249e-09 5.974696501e-09 9.811762645e-09 1.644729906e-08)
5(2.725626324e-09 4.441562037e-09 7.079061503e-09 1.103963456e-08 1.73500123e-08)
5(3.517258977e-09 5.455445523e-09 8.329187653e-09 1.227238209e-08 1.800395504e-08)
5(4.375442618e-09 6.646270877e-09 9.729697862e-09 1.349378732e-08 1.819019448e-08)
5(5.416226539e-09 8.057351855e-09 1.127249131e-08 1.470951395e-08 1.832815492e-08)
5(6.844776358e-09 9.725067635e-09 1.30114507e-08 1.603046932e-08 1.8335303e-08)
5(8.553393421e-09 1.1715618e-08 1.503324623e-08 1.754304014e-08 1.819489499e-08)
5(1.073412268e-08 1.412045254e-08 1.743720164e-08 1.939341097e-08 1.842104036e-08)
5(1.327095176e-08 1.708096852e-08 2.039978499e-08 2.184509374e-08 1.996564843e-08)
5(1.635269096e-08 2.084251923e-08 2.414042161e-08 2.526365911e-08 2.266330713e-08)
5(2.055240252e-08 2.566545605e-08 2.914552611e-08 3.026059701e-08 2.685116885e-08)
5(2.586218322e-08 3.198969417e-08 3.610221232e-08 3.768332261e-08 3.396948729e-08)
5(3.245283725e-08 4.056401523e-08 4.589274018e-08 4.877466712e-08 4.513738184e-08)
5(4.143794797e-08 5.240300357e-08 5.973226414e-08 6.443926799e-08 6.118393052e-08)
5(5.430211931e-08 6.884079157e-08 7.908763072e-08 8.68400391e-08 8.387205622e-08)
5(7.091937863e-08 9.220242963e-08 1.069647144e-07 1.187980085e-07 1.165663427e-07)
5(9.504867431e-08 1.252779563e-07 1.470837679e-07 1.635693627e-07 1.626384554e-07)
5(1.291366315e-07 1.718697915e-07 2.025892478e-07 2.248673437e-07 2.210530453e-07)
5(1.766622971e-07 2.370977494e-07 2.7816326e-07 3.062266885e-07 2.974791315e-07)
5(2.446367172e-07 3.251980712e-07 3.79367606e-07 4.109098899e-07 3.919443404e-07)
5(3.375191403e-07 4.414575075e-07 5.094145407e-07 5.36329898e-07 5.015886182e-07)
5(4.603626399e-07 5.901704311e-07 6.676931167e-07 6.801926802e-07 6.16677163e-07)
5(6.209459921e-07 7.710992896e-07 8.496866894e-07 8.351426759e-07 7.254239277e-07)
5(8.23945405e-07 9.769492547e-07 1.04331713e-06 9.799788812e-07 8.164143754e-07)
5(1.043086661e-06 1.194991981e-06 1.223377791e-06 1.08694621e-06 8.504556737e-07)
5(1.287386376e-06 1.401148345e-06 1.352582749e-06 1.120803513e-06 7.892331471e-07)
5(1.526762196e-06 1.547056079e-06 1.393469666e-06 1.042648637e-06 6.052855076e-07)
5(1.694179554e-06 1.582358638e-06 1.299546623e-06 8.191598e-07 2.810519618e-07)
5(1.762468404e-06 1.465897536e-06 1.023544445e-06 4.333261852e-07 -1.370569827e-07)
5(1.652847109e-06 1.143358887e-06 5.604584741e-07 -9.607127844e-08 -5.594683596e-07)
5(1.301777233e-06 6.000444621e-07 -5.095242944e-08 -6.892090482e-07 -9.1125674e-07)
5(7.171125159e-07 -1.187908454e-07 -7.515615044e-07 -1.214932372e-06 -1.128768521e-06)
5(-7.359523425e-08 -9.098939042e-07 -1.423801819e-06 -1.546885456e-06 -1.177579128e-06)
5(-9.787330258e-07 -1.623078801e-06 -1.911295861e-06 -1.621690798e-06 -1.055337708e-06)
5(-1.809656824e-06 -2.135106194e-06 -2.079763496e-06 -1.451220384e-06 -8.164168439e-07)
5(-2.383071518e-06 -2.326908379e-06 -1.89769956e-06 -1.115996382e-06 -5.434506511e-07)
5(-2.583500342e-06 -2.143011768e-06 -1.465186452e-06 -7.399504785e-07 -3.059211273e-07)
5(-2.366369862e-06 -1.673110485e-06 -9.534794044e-07 -4.163735129e-07 -1.462558471e-07)
5(-1.837102473e-06 -1.092432569e-06 -5.20752109e-07 -1.951303455e-07 -5.897306103e-08)
5(-1.187353914e-06 -5.817839813e-07 -2.334647521e-07 -7.730718139e-08 -2.044245362e-08)
5(-6.105278727e-07 -2.471377638e-07 -8.486329972e-08 -2.569200528e-08 -6.756105465e-09)
5(-2.414142966e-07 -8.348154482e-08 -2.629107951e-08 -8.117469576e-09 -2.174094082e-09)
5(-7.196977406e-08 -2.381732568e-08 -8.263428637e-09 -2.889919651e-09 -5.013163245e-10)
5(-1.954486994e-08 -8.031093925e-09 -3.901686928e-09 -1.278126858e-09 5.406308809e-10)
5(-7.868186304e-09 -4.629439418e-09 -2.599190293e-09 -3.636746726e-10 1.487713921e-09)
5(-5.464955379e-09 -3.677042364e-09 -1.82054331e-09 3.86113268e-10 2.603948952e-09)
5(-4.354057508e-09 -2.61804828e-09 -4.547888079e-10 2.477596802e-09 4.959398944e-09)
5(-3.897141517e-09 -1.832187917e-09 5.410636919e-10 4.232600418e-09 6.698690167e-09)
)


60
(
5(1.131470971e-11 3.314977198e-10 -5.599611504e-10 -3.40048543e-10 -7.581173278e-09)
5(6.364141463e-11 3.930150357e-10 -1.372040723e-10 3.809781671e-10 -3.916404184e-09)
5(1.851104765e-10 5.391969966e-10 6.811491869e-10 1.816908472e-09 2.313519206e-09)
5(3.603992269e-10 7.659423795e-10 1.505663957e-09 3.301164176e-09 7.235703049e-09)
5(5.927511347e-10 1.097370331e-09 2.346974572e-09 4.821414052e-09 1.158812783e-08)
5(8.241060528e-10 1.493030376e-09 3.090728795e-09 6.203406164e-09 1.430987698e-08)
5(1.045476017e-09 1.952799408e-09 3.769422608e-09 7.492838068e-09 1.561512895e-08)
5(1.337010258e-09 2.526309434e-09 4.58614677e-09 8.985738925e-09 1.747890937e-08)
5(1.773315347e-09 3.255477482e-09 5.737745915e-09 1.089045457e-08 2.052581975e-08)
5(2.350288627e-09 4.162509707e-09 7.24593352e-09 1.315002289e-08 2.42722846e-08)
5(3.074313751e-09 5.256737012e-09 9.011760493e-09 1.555255089e-08 2.77145643e-08)
5(3.974658286e-09 6.554106107e-09 1.094917979e-08 1.794191979e-08 3.03565684e-08)
5(4.996717385e-09 8.081933956e-09 1.298173336e-08 2.026036717e-08 3.238217808e-08)
5(6.271452029e-09 9.877333692e-09 1.518244923e-08 2.252522348e-08 3.334073916e-08)
5(7.923353323e-09 1.196111523e-08 1.764907643e-08 2.476605127e-08 3.387111178e-08)
5(1.00101356e-08 1.444065021e-08 2.042564206e-08 2.698030163e-08 3.418950553e-08)
5(1.233397047e-08 1.739326915e-08 2.35227407e-08 2.917718805e-08 3.380716781e-08)
5(1.540458614e-08 2.075722868e-08 2.685334409e-08 3.152028632e-08 3.359575434e-08)
5(1.886630461e-08 2.468946055e-08 3.057259127e-08 3.401258299e-08 3.328841086e-08)
5(2.297850413e-08 2.942190903e-08 3.484048587e-08 3.684773876e-08 3.340954306e-08)
5(2.898902449e-08 3.482601107e-08 3.981639501e-08 4.056059187e-08 3.58972768e-08)
5(3.546315522e-08 4.128264591e-08 4.608442099e-08 4.555163001e-08 3.947276474e-08)
5(4.132839064e-08 4.933898697e-08 5.404539956e-08 5.255054709e-08 4.526924795e-08)
5(5.028975038e-08 5.921255728e-08 6.384804542e-08 6.273017476e-08 5.44421814e-08)
5(6.217206394e-08 7.138240545e-08 7.690138401e-08 7.724192068e-08 6.925670002e-08)
5(7.556211587e-08 8.707004635e-08 9.521551527e-08 9.779967489e-08 9.209057354e-08)
5(9.26780747e-08 1.083638802e-07 1.203235899e-07 1.267396159e-07 1.222578588e-07)
5(1.153210421e-07 1.376924231e-07 1.553201648e-07 1.674968945e-07 1.658577846e-07)
5(1.456935201e-07 1.780628915e-07 2.048185449e-07 2.245113569e-07 2.258229299e-07)
5(1.866291946e-07 2.338942926e-07 2.739635743e-07 3.031905911e-07 3.080511063e-07)
5(2.43908772e-07 3.115410019e-07 3.685871367e-07 4.091850031e-07 4.156272979e-07)
5(3.230626494e-07 4.170119006e-07 4.952794235e-07 5.478308755e-07 5.501145856e-07)
5(4.301926346e-07 5.584109278e-07 6.603806528e-07 7.19324448e-07 7.098003405e-07)
5(5.751003031e-07 7.424273274e-07 8.678171934e-07 9.245331561e-07 8.956094328e-07)
5(7.627565296e-07 9.707187489e-07 1.113859202e-06 1.157643329e-06 1.081880152e-06)
5(9.982430749e-07 1.23839081e-06 1.38967599e-06 1.394286366e-06 1.253107534e-06)
5(1.286764659e-06 1.538510712e-06 1.670092705e-06 1.604865655e-06 1.38602904e-06)
5(1.605289136e-06 1.842756063e-06 1.916740797e-06 1.745569737e-06 1.40058276e-06)
5(1.925186805e-06 2.10368652e-06 2.077146424e-06 1.757241181e-06 1.249030146e-06)
5(2.219395636e-06 2.272976088e-06 2.076294195e-06 1.58434177e-06 8.918881636e-07)
5(2.400783917e-06 2.268771668e-06 1.853731045e-06 1.174822501e-06 3.607324455e-07)
5(2.407377255e-06 2.011151892e-06 1.371140757e-06 5.151265348e-07 -2.813062602e-07)
5(2.164734591e-06 1.459207332e-06 6.199017555e-07 -3.353044781e-07 -9.416591352e-07)
5(1.608757409e-06 6.184880035e-07 -3.551260912e-07 -1.230434361e-06 -1.501396243e-06)
5(7.368932221e-07 -4.414885613e-07 -1.42653716e-06 -1.988988797e-06 -1.883976591e-06)
5(-3.944134139e-07 -1.574026741e-06 -2.388844734e-06 -2.4537614e-06 -1.981424053e-06)
5(-1.595394795e-06 -2.570822131e-06 -3.004173335e-06 -2.549696085e-06 -1.795438403e-06)
5(-2.672682391e-06 -3.241414249e-06 -3.133866273e-06 -2.293692544e-06 -1.411739798e-06)
5(-3.409814513e-06 -3.428997459e-06 -2.798237793e-06 -1.785598739e-06 -9.520551791e-07)
5(-3.616918168e-06 -3.088108085e-06 -2.119301901e-06 -1.186140217e-06 -5.524337552e-07)
5(-3.29537728e-06 -2.366102264e-06 -1.348588589e-06 -6.664213604e-07 -2.71205804e-07)
5(-2.583489714e-06 -1.504144681e-06 -7.208891671e-07 -3.155901032e-07 -1.118135764e-07)
5(-1.675145337e-06 -7.716628246e-07 -3.159518483e-07 -1.215260815e-07 -3.89573443e-08)
5(-8.518287151e-07 -3.173001607e-07 -1.113835464e-07 -4.061796218e-08 -1.315884287e-08)
5(-3.349060007e-07 -1.024759461e-07 -3.361344541e-08 -1.341509131e-08 -4.778804841e-09)
5(-1.026259625e-07 -2.945576947e-08 -1.228247836e-08 -5.763490136e-09 -1.763490582e-09)
5(-2.729480867e-08 -1.218264219e-08 -7.438304472e-09 -3.284289323e-09 6.933981806e-11)
5(-1.26479536e-08 -7.689534511e-09 -5.534122827e-09 -8.381979669e-10 1.942765337e-09)
5(-9.994336486e-09 -6.205193403e-09 -3.761740572e-09 3.535212828e-09 8.002808482e-09)
5(-9.01416469e-09 -6.659381879e-09 -2.797800779e-09 6.301722489e-09 1.304730227e-08)
)


60
(
5(1.698994195e-10 7.339360475e-10 -4.905570519e-10 1.34419315e-11 -9.509511801e-09)
5(2.455604614e-10 8.476319662e-10 1.932352294e-10 1.254663264e-09 -4.167460258e-09)
5(4.343090615e-10 1.114144287e-09 1.575074543e-09 3.763480779e-09 5.368257921e-09)
5(7.35856451e-10 1.530396431e-09 3.033845398e-09 6.353461333e-09 1.349318975e-08)
5(1.160487544e-09 2.153504539e-09 4.512043453e-09 8.948212714e-09 2.048677431e-08)
5(1.609294538e-09 2.896002851e-09 5.84197158e-09 1.130120782e-08 2.487158432e-08)
5(2.060654934e-09 3.75291673e-09 7.107023524e-09 1.355906403e-08 2.71621421e-08)
5(2.631913096e-09 4.808843793e-09 8.595033329e-09 1.613326636e-08 3.019091707e-08)
5(3.441881325e-09 6.124128721e-09 1.06096009e-08 1.926330887e-08 3.482698599e-08)
5(4.517530828e-09 7.764773222e-09 1.321762893e-08 2.289942615e-08 4.047574639e-08)
5(5.896089056e-09 9.73309888e-09 1.623208836e-08 2.676814704e-08 4.556192679e-08)
5(7.505489025e-09 1.205343704e-08 1.949036405e-08 3.06265725e-08 4.933545223e-08)
5(9.541703187e-09 1.477173375e-08 2.29732395e-08 3.439429189e-08 5.182653311e-08)
5(1.18740975e-08 1.795262778e-08 2.678583303e-08 3.811379953e-08 5.350028261e-08)
5(1.464697464e-08 2.166797895e-08 3.104200432e-08 4.184157142e-08 5.472707595e-08)
5(1.849932266e-08 2.604365844e-08 3.577456429e-08 4.554822673e-08 5.498114331e-08)
5(2.293531937e-08 3.11999435e-08 4.09543375e-08 4.917756705e-08 5.458413866e-08)
5(2.812282428e-08 3.71208114e-08 4.667000076e-08 5.296248873e-08 5.415877144e-08)
5(3.459086853e-08 4.401455398e-08 5.307550467e-08 5.710990366e-08 5.436415628e-08)
5(4.224070021e-08 5.194177446e-08 6.026106857e-08 6.192217691e-08 5.519663873e-08)
5(5.10572116e-08 6.099504404e-08 6.847752832e-08 6.764810605e-08 5.830897144e-08)
5(6.147966241e-08 7.156882061e-08 7.794398932e-08 7.485224804e-08 6.292702453e-08)
5(7.415338799e-08 8.399366173e-08 8.911039838e-08 8.439778219e-08 7.098824233e-08)
5(8.881295286e-08 9.852804584e-08 1.028893465e-07 9.732165811e-08 8.301751876e-08)
5(1.044726714e-07 1.156111235e-07 1.204478204e-07 1.150274846e-07 1.010748008e-07)
5(1.232767194e-07 1.352476083e-07 1.428433581e-07 1.393457162e-07 1.274858773e-07)
5(1.47637855e-07 1.606429621e-07 1.717229906e-07 1.726050018e-07 1.628399258e-07)
5(1.768411178e-07 1.947693459e-07 2.109788832e-07 2.18875639e-07 2.14786333e-07)
5(2.111743973e-07 2.393861135e-07 2.658164339e-07 2.831939877e-07 2.865141956e-07)
5(2.564858317e-07 2.998077102e-07 3.419240306e-07 3.715691358e-07 3.827036091e-07)
5(3.177895457e-07 3.813975184e-07 4.449568325e-07 4.929135469e-07 5.153304852e-07)
5(3.987188383e-07 4.931660197e-07 5.848670147e-07 6.531331966e-07 6.758857776e-07)
5(5.090042294e-07 6.453290321e-07 7.717790114e-07 8.563316065e-07 8.756981512e-07)
5(6.601069212e-07 8.432330804e-07 1.006971603e-06 1.105533772e-06 1.118465265e-06)
5(8.60798068e-07 1.094517484e-06 1.295468503e-06 1.39651205e-06 1.379442714e-06)
5(1.113847305e-06 1.40043681e-06 1.635645106e-06 1.714262049e-06 1.648304585e-06)
5(1.418171776e-06 1.754647337e-06 2.002078154e-06 2.032064954e-06 1.885332378e-06)
5(1.779309377e-06 2.142348656e-06 2.358500737e-06 2.298038539e-06 2.020047492e-06)
5(2.174756058e-06 2.515824816e-06 2.645088504e-06 2.443834446e-06 1.968998204e-06)
5(2.557817149e-06 2.815820834e-06 2.791671932e-06 2.398151136e-06 1.676705827e-06)
5(2.872696912e-06 2.963659293e-06 2.71604259e-06 2.071900649e-06 1.138679657e-06)
5(3.044266169e-06 2.871348032e-06 2.327673838e-06 1.408175342e-06 3.632450742e-07)
5(2.972033398e-06 2.458933047e-06 1.5898258e-06 4.33567437e-07 -5.481060431e-07)
5(2.576796081e-06 1.667987744e-06 4.86712759e-07 -7.457824181e-07 -1.468540111e-06)
5(1.811459184e-06 5.343973071e-07 -8.625350736e-07 -1.931393508e-06 -2.264047722e-06)
5(7.039237818e-07 -8.410281915e-07 -2.267992577e-06 -2.897968049e-06 -2.774218135e-06)
5(-6.466789493e-07 -2.27371456e-06 -3.477655442e-06 -3.475411207e-06 -2.89808745e-06)
5(-2.10647462e-06 -3.526694068e-06 -4.168194983e-06 -3.56544067e-06 -2.620616559e-06)
5(-3.408641793e-06 -4.347343101e-06 -4.206195042e-06 -3.164923812e-06 -2.061599218e-06)
5(-4.292532694e-06 -4.528661146e-06 -3.655418615e-06 -2.433237538e-06 -1.39272157e-06)
5(-4.595834197e-06 -4.056458892e-06 -2.728429909e-06 -1.606339198e-06 -7.942728359e-07)
5(-4.275107203e-06 -3.067737083e-06 -1.717101843e-06 -8.935046544e-07 -3.876712263e-07)
5(-3.443365443e-06 -1.932362623e-06 -8.902193759e-07 -4.119916159e-07 -1.598440736e-07)
5(-2.348141298e-06 -1.018675701e-06 -3.718404792e-07 -1.533109039e-07 -5.430776013e-08)
5(-1.266492919e-06 -4.251640977e-07 -1.239152524e-07 -4.936083711e-08 -1.894079108e-08)
5(-5.241838005e-07 -1.341457183e-07 -3.8437547e-08 -1.715632401e-08 -7.479978573e-09)
5(-1.834221149e-07 -3.941754817e-08 -1.667911319e-08 -8.941089114e-09 -3.318623146e-09)
5(-4.948268245e-08 -1.715580242e-08 -1.136909695e-08 -5.044592535e-09 -9.836842723e-11)
5(-1.972212468e-08 -1.153301787e-08 -3.456472029e-09 2.037530845e-09 9.51619504e-09)
5(-1.580361637e-08 -9.770167792e-09 2.86704525e-09 7.154021981e-09 1.740691466e-08)
)


60
(
5(4.571681227e-10 1.376273183e-09 -1.598156212e-10 7.681022554e-10 -1.036487165e-08)
5(5.476143827e-10 1.557177527e-09 8.581042336e-10 2.638042609e-09 -3.44644124e-09)
5(8.250748519e-10 1.981857847e-09 2.968144099e-09 6.481609448e-09 9.929777483e-09)
5(1.325512813e-09 2.653530947e-09 5.226491194e-09 1.047622107e-08 2.177261556e-08)
5(2.018280637e-09 3.670183127e-09 7.509274996e-09 1.442106722e-08 3.13084011e-08)
5(2.76718093e-09 4.888395876e-09 9.603485464e-09 1.79780511e-08 3.765540118e-08)
5(3.539445226e-09 6.294252255e-09 1.163575496e-08 2.137609954e-08 4.110990396e-08)
5(4.52435554e-09 8.017116365e-09 1.402018762e-08 2.5253083e-08 4.537954192e-08)
5(5.86743542e-09 1.013892279e-08 1.718354324e-08 2.990873856e-08 5.208212168e-08)
5(7.675650408e-09 1.273966579e-08 2.117491478e-08 3.5250622e-08 5.969821794e-08)
5(9.817692463e-09 1.58548296e-08 2.575418113e-08 4.089687628e-08 6.643693697e-08)
5(1.249441881e-08 1.953169014e-08 3.075282087e-08 4.65748889e-08 7.169090818e-08)
5(1.570810059e-08 2.3834213e-08 3.612038961e-08 5.222278878e-08 7.529348508e-08)
5(1.967691805e-08 2.891752983e-08 4.205927134e-08 5.787179036e-08 7.80314568e-08)
5(2.451585641e-08 3.48840431e-08 4.872027375e-08 6.354220904e-08 7.974960358e-08)
5(3.022632739e-08 4.184356216e-08 5.614477825e-08 6.930142578e-08 8.098584331e-08)
5(3.749525995e-08 5.001694063e-08 6.437356093e-08 7.531479495e-08 8.156227341e-08)
5(4.58982357e-08 5.944934013e-08 7.349107979e-08 8.17118615e-08 8.198448049e-08)
5(5.630630929e-08 7.028141408e-08 8.362844857e-08 8.857345421e-08 8.319063845e-08)
5(6.891963123e-08 8.281916076e-08 9.486205937e-08 9.616358741e-08 8.500445209e-08)
5(8.208100468e-08 9.696258014e-08 1.073189781e-07 1.049329085e-07 9.013044895e-08)
5(9.885556851e-08 1.129764546e-07 1.21679407e-07 1.153734737e-07 9.719591769e-08)
5(1.189121754e-07 1.312082012e-07 1.380678574e-07 1.284792443e-07 1.073383023e-07)
5(1.391624172e-07 1.514121464e-07 1.566571075e-07 1.452709932e-07 1.234921585e-07)
5(1.628130231e-07 1.742197286e-07 1.790239714e-07 1.664801502e-07 1.441015239e-07)
5(1.912720737e-07 2.010185729e-07 2.05947497e-07 1.941146188e-07 1.72797427e-07)
5(2.21878328e-07 2.325954676e-07 2.390871273e-07 2.308598515e-07 2.14547918e-07)
5(2.547205728e-07 2.700082682e-07 2.819380846e-07 2.801884317e-07 2.705663311e-07)
5(2.955680387e-07 3.170643502e-07 3.396332367e-07 3.47732599e-07 3.461561198e-07)
5(3.48289481e-07 3.795457255e-07 4.178388847e-07 4.410632341e-07 4.537792629e-07)
5(4.111816118e-07 4.626244406e-07 5.235943792e-07 5.670015352e-07 5.965548063e-07)
5(4.898539654e-07 5.733662749e-07 6.670503912e-07 7.35579726e-07 7.778793422e-07)
5(5.939380562e-07 7.208428586e-07 8.570654526e-07 9.559879401e-07 1.013961649e-06)
5(7.390204069e-07 9.166975223e-07 1.10366442e-06 1.232043513e-06 1.297032846e-06)
5(9.337955608e-07 1.172649522e-06 1.414526761e-06 1.5657139e-06 1.617187522e-06)
5(1.177277882e-06 1.493409726e-06 1.790241234e-06 1.949292479e-06 1.965793564e-06)
5(1.486868409e-06 1.878203611e-06 2.216383552e-06 2.352587323e-06 2.307274279e-06)
5(1.860038135e-06 2.309297306e-06 2.659726185e-06 2.733465185e-06 2.578002293e-06)
5(2.284910376e-06 2.756246581e-06 3.07313762e-06 3.02787696e-06 2.673653754e-06)
5(2.731320861e-06 3.179400762e-06 3.376367637e-06 3.145987253e-06 2.480511156e-06)
5(3.149416004e-06 3.494078001e-06 3.479808344e-06 2.976093428e-06 2.036524059e-06)
5(3.46945327e-06 3.596961345e-06 3.282342085e-06 2.430680087e-06 1.280880842e-06)
5(3.595247859e-06 3.397799107e-06 2.693646605e-06 1.48729415e-06 2.291317906e-07)
5(3.452964797e-06 2.818324677e-06 1.649459248e-06 1.888861739e-07 -9.663636332e-07)
5(2.939401436e-06 1.822908541e-06 2.009398179e-07 -1.310213631e-06 -2.184611342e-06)
5(1.954564585e-06 4.387667031e-07 -1.502200101e-06 -2.769880728e-06 -3.203782656e-06)
5(7.147778843e-07 -1.222544443e-06 -3.218172424e-06 -3.937379708e-06 -3.817583711e-06)
5(-7.661378242e-07 -2.939448445e-06 -4.572161165e-06 -4.599892199e-06 -3.906147135e-06)