/*--------------------------------*- C++ -*----------------------------------*\
| =========                 |                                                 |
| \\      /  F ield         | OpenFOAM: The Open Source CFD Toolbox           |
|  \\    /   O peration     | Version:  2.3.1                                 |
|   \\  /    A nd           | Web:      www.OpenFOAM.org                      |
|    \\/     M anipulation  |                                                 |
\*---------------------------------------------------------------------------*/
FoamFile
{
    version     2.0;
    format      ascii;
    class       dictionary;
    location    "constant";
    object      GRPSI29;
}
// * * * * * * * * * * * * * * * * * * * * * * * * * * * * * * * * * * * * * //

GRPSI29_table
60
(

60
(
5(8.418502012e-06 1.441106188e-05 1.365975906e-05 1.831323308e-05 1.98791565e-05)
5(1.303923125e-05 2.719082678e-05 1.966783898e-05 2.439707968e-05 2.420219548e-05)
5(-1.499106237e-05 2.565706429e-05 2.543227023e-05 3.232677253e-05 4.332826232e-05)
5(-8.083142753e-05 2.817596136e-05 2.724371413e-05 4.344797161e-05 2.892297808e-05)
5(-0.0001143851702 3.512252879e-05 3.481970188e-05 4.64168105e-05 4.478703104e-05)
5(-0.0001005699767 4.437706612e-05 5.488122816e-05 5.865870328e-05 6.439917537e-05)
5(3.631064919e-05 5.536639227e-05 6.557972205e-05 7.806059899e-05 7.451447464e-05)
5(5.035692815e-05 6.763169277e-05 7.448205492e-05 9.467331811e-05 0.0001079047952)
5(-0.000124654684 8.195495982e-05 9.098769937e-05 0.0001171218548 0.0001280929461)
5(-0.000191834454 9.181903766e-05 0.0001075733086 0.000147458666 0.0001594270119)
5(-0.0002023728661 0.0001099357489 0.0001373394694 0.0001834546246 0.0002020611726)
5(-3.042043916e-05 0.0001534247055 0.0001802483235 0.0002323996561 0.000256854398)
5(0.000134089136 0.0001897885034 0.0002286702015 0.0002869606358 0.0003216420815)
5(0.0001619440678 0.0002342028575 0.0002836140637 0.0003624650629 0.0004025988861)
5(0.000204431823 0.0002918488962 0.0003541651398 0.0004438032315 0.0004970461833)
5(0.0002301397204 0.0003334750417 0.0004253472176 0.0005364376034 0.0006048939108)
5(0.0002882669979 0.0004199586188 0.0005200986356 0.0006598235646 0.0007338899681)
5(0.0003732149445 0.0005251909134 0.0006520501606 0.0007996557149 0.0008812119576)
5(0.0004709256565 0.0006508816774 0.000792826418 0.0009637651181 0.001044608772)
5(0.0005719743367 0.0007895877573 0.0009504460372 0.001138326851 0.001241605464)
5(0.000698394179 0.0009566902383 0.001146450658 0.001352387005 0.001466440009)
5(0.0008453123756 0.001146538734 0.001357604401 0.001620871351 0.001727390639)
5(0.001010347331 0.001359237529 0.001606088109 0.001864973864 0.001971494562)
5(0.001213784349 0.001595902782 0.001883243836 0.002156752753 0.002262052827)
5(0.001440615776 0.001867314522 0.002183880368 0.002461686122 0.002560265919)
5(0.001704050526 0.002173594709 0.002506628438 0.002786182082 0.002893290199)
5(0.002004927641 0.002533840293 0.002900408179 0.003150713237 0.003243404096)
5(0.002350947839 0.002935307826 0.003296282538 0.003546647103 0.003617847434)
5(0.002723244291 0.00335881096 0.003759926493 0.003989944637 0.004009543153)
5(0.003154149253 0.003817484687 0.004256248423 0.00448726624 0.004440928976)
5(0.003627900401 0.004324953606 0.004761439624 0.004949178111 0.004869651314)
5(0.004168788924 0.004906556497 0.005358954058 0.005533514494 0.005447652884)
5(0.004776882145 0.005517931942 0.005955312984 0.00608586368 0.005802157876)
5(0.005437062529 0.006172220822 0.006566603522 0.00668850466 0.006439311659)
5(0.006167665331 0.006916794527 0.007280547403 0.007297579491 0.006953691331)
5(0.006984028782 0.007649637193 0.007892469988 0.007906525929 0.007457457815)
5(0.007876364908 0.008587003581 0.00887591308 0.008642520546 0.007925168584)
5(0.008859008193 0.009434533648 0.009691199425 0.009250977406 0.00885281227)
5(0.009902424107 0.01040556949 0.01046255317 0.009969312264 0.008926871652)
5(0.01096114737 0.01139665392 0.01119948712 0.01056494885 0.01105084877)
5(0.01218543826 0.01252998928 0.01223193731 0.01128503777 0.01130407432)
5(0.01351654667 0.01364690824 0.01317438489 0.01254508578 0.01150444858)
5(0.01487970362 0.01488107493 0.01416736769 0.01453820202 0.0115357953)
5(0.0162366771 0.01584125085 0.01439186427 0.01479086335 0.01142939763)
5(0.01758373068 0.01698882364 0.01534200744 0.01484994975 0.01136733235)
5(0.01907994908 0.01789348621 0.01632237061 0.01473934034 0.01116973342)
5(0.0204291257 0.01900775466 0.01855345482 0.01450327887 0.01088539898)
5(0.02172730844 0.02053392872 0.01917811111 0.01418455232 0.01054008697)
5(0.02266686959 0.02077550913 0.01891041229 0.01376136592 0.0101668013)
5(0.02341899153 0.02307676883 0.01836461183 0.0132638235 0.009795750051)
5(0.02402675338 0.02252683828 0.01766494217 0.01271470393 0.009426883475)
5(0.02594825718 0.02160016582 0.01685385919 0.01216220701 0.009081154444)
5(0.02583370095 0.02047487286 0.01598352031 0.01160506718 0.008750518048)
5(0.02443514762 0.01922182072 0.01507189059 0.01106019643 0.008439151257)
5(0.02247365367 0.01790858256 0.01415344659 0.01055385742 0.008171928492)
5(0.02008966493 0.01652684763 0.01322436286 0.01010195911 0.007959553636)
5(0.01731023508 0.01508035877 0.0123027452 0.009693621029 0.007818693099)
5(0.01466907994 0.01340360102 0.01136135635 0.009345846848 0.007848176764)
5(0.01231588945 0.01165949868 0.01014797042 0.009762471527 0.007966544074)
5(0.01029370724 0.01013213623 0.008872155286 0.008416629851 0.007646994726)
)


60
(
5(7.821802994e-06 1.238011887e-05 1.319405395e-05 1.765068968e-05 2.015420775e-05)
5(1.12323852e-05 1.995644802e-05 1.752882799e-05 2.196782894e-05 2.350493408e-05)
5(-1.774895241e-06 2.04851857e-05 2.20033744e-05 2.774129952e-05 3.502790622e-05)
5(-3.359280705e-05 2.331811248e-05 2.488942999e-05 3.579386558e-05 3.078181991e-05)
5(-4.897057281e-05 2.884621144e-05 3.122094627e-05 4.072267045e-05 4.280526624e-05)
5(-4.025202775e-05 3.619339807e-05 4.468599114e-05 5.139000979e-05 5.8074751e-05)
5(3.056390802e-05 4.516176359e-05 5.462023704e-05 6.687417595e-05 6.999100199e-05)
5(4.068190711e-05 5.575946788e-05 6.475089449e-05 8.244501808e-05 9.526754196e-05)
5(-4.289524791e-05 6.861943724e-05 8.02287714e-05 0.0001028065515 0.0001159186399)
5(-7.15674026e-05 8.064119243e-05 9.751650138e-05 0.0001293061983 0.0001446161207)
5(-7.06811419e-05 9.857351165e-05 0.0001236201602 0.0001612036782 0.0001815946206)
5(2.308300571e-05 0.0001312169599 0.0001586807389 0.0002024946566 0.000227616658)
5(0.0001149749574 0.000162716524 0.0001995068467 0.0002497174834 0.0002819208713)
5(0.0001406010823 0.0002012586746 0.0002469863018 0.0003110757613 0.0003479418248)
5(0.0001765433761 0.0002497667917 0.0003064636294 0.000379570928 0.0004253306121)
5(0.0002073253698 0.0002944006252 0.0003705611208 0.0004585443281 0.0005132124161)
5(0.0002576807123 0.0003656923427 0.0004514284904 0.0005577790954 0.0006165262775)
5(0.0003256994134 0.0004515326976 0.0005560073789 0.0006706623873 0.0007340341552)
5(0.0004050825379 0.0005532723338 0.0006713369632 0.0008014268655 0.0008651038508)
5(0.0004918732244 0.0006676092119 0.0008015295216 0.0009436339294 0.001018057128)
5(0.0005965293482 0.0008024580955 0.000957557335 0.001112130379 0.001191153712)
5(0.000719797322 0.0009563259539 0.001128274114 0.001314478022 0.001389494516)
5(0.0008585702895 0.001129570912 0.001325685892 0.001512374328 0.001583437568)
5(0.001025601183 0.001322346091 0.001544974306 0.00174118121 0.001808316655)
5(0.001210922244 0.001541792635 0.001785548897 0.001983997959 0.002042395773)
5(0.001425855036 0.001787673091 0.002044620199 0.002245084728 0.002300474132)
5(0.001668402659 0.002070516332 0.002348561675 0.002532418785 0.002575266164)
5(0.001944525708 0.002383713402 0.00266284924 0.002845341161 0.002868711806)
5(0.002244219387 0.00271783365 0.003019758209 0.00318963306 0.003178942828)
5(0.002586172337 0.003081175138 0.00340528056 0.003571283818 0.003518380389)
5(0.002959209139 0.003481569267 0.003804245486 0.003943704931 0.003861912612)
5(0.003379393114 0.003930269619 0.004261477299 0.004387965662 0.004291931444)
5(0.003848954847 0.004406770361 0.004730421706 0.004828667927 0.004615728445)
5(0.004359589275 0.004920981492 0.005221977678 0.005304251712 0.005096584264)
5(0.004919890663 0.005493102596 0.005775416762 0.005796220845 0.005521545034)
5(0.005535364092 0.006076549387 0.006294603058 0.006301939398 0.005955063547)
5(0.006218949153 0.006778451642 0.007015033576 0.006887805296 0.006381429215)
5(0.006951786915 0.007454283527 0.007668229779 0.007421925215 0.007045278034)
5(0.007743863234 0.008219831397 0.00831668531 0.008024462603 0.007291029451)
5(0.008560726982 0.009004721464 0.008968318422 0.008581731619 0.00857691898)
5(0.009474800745 0.009891140063 0.00979758703 0.009215501792 0.008936840282)
5(0.01049065991 0.01078823026 0.01058872657 0.01013560474 0.009280157346)
5(0.01152249752 0.01177420264 0.01142963606 0.01143633739 0.00953358927)
5(0.01258538057 0.0126576076 0.01189962191 0.0118768845 0.009703064351)
5(0.0136720156 0.01363571587 0.01274505341 0.01221888941 0.009878033797)
5(0.01487023436 0.01452383215 0.01361689668 0.01245620415 0.009963854522)
5(0.01601886249 0.01552038853 0.01511938546 0.01260283182 0.009968010395)
5(0.01715600263 0.01672773367 0.01579449832 0.01266228079 0.009901936037)
5(0.01812046262 0.01726736279 0.01597788749 0.01261615436 0.009777701758)
5(0.01899718885 0.01882491316 0.01595892198 0.01247707449 0.009617039622)
5(0.01977723362 0.01889373136 0.01578696693 0.0122526712 0.00943236538)
5(0.02118198536 0.01868940829 0.01548175511 0.01196866665 0.009226185268)
5(0.02149066585 0.0182779215 0.01505777201 0.01164212486 0.009012281996)
5(0.02105397576 0.01770391098 0.01454727516 0.01129445245 0.008802599338)
5(0.02020845734 0.01698430281 0.01397525769 0.01093765373 0.008611152492)
5(0.01901348755 0.01615613006 0.01336299874 0.01059697267 0.008454353094)
5(0.01750746354 0.01524668514 0.01272820904 0.01028040851 0.00834398537)
5(0.0159878348 0.01418157479 0.01207558827 0.01001105174 0.008342706691)
5(0.01456577957 0.01310258085 0.01133332271 0.01014644505 0.008412406341)
5(0.01339302343 0.01231188577 0.01102400991 0.009951988702 0.008684615454)
)


60
(
5(7.006885332e-06 9.889554035e-06 1.266520145e-05 1.70732176e-05 2.088078049e-05)
5(8.955622599e-06 1.209850025e-05 1.506879226e-05 1.939892335e-05 2.321523864e-05)
5(1.08473719e-05 1.460097042e-05 1.811166563e-05 2.291071472e-05 2.717773603e-05)
5(1.296879336e-05 1.763532625e-05 2.205547938e-05 2.781722447e-05 3.306279115e-05)
5(1.570383961e-05 2.16154412e-05 2.714191479e-05 3.451048653e-05 4.105644222e-05)
5(1.92772868e-05 2.688626976e-05 3.38965892e-05 4.334240969e-05 5.174197212e-05)
5(2.394257805e-05 3.367716838e-05 4.283258143e-05 5.466612335e-05 6.515016754e-05)
5(2.996780937e-05 4.231921351e-05 5.401343017e-05 6.876277069e-05 8.169271986e-05)
5(3.755738815e-05 5.323119121e-05 6.804337379e-05 8.631629925e-05 0.0001019209926)
5(4.714044792e-05 6.689267367e-05 8.545846358e-05 0.0001078843626 0.0001264590936)
5(5.922349556e-05 8.376969536e-05 0.0001068004551 0.0001340077255 0.000155805166)
5(7.407187675e-05 0.0001045623711 0.0001327939081 0.0001653153916 0.0001904211799)
5(9.251068177e-05 0.0001298475739 0.0001643352555 0.000202530657 0.0002312053688)
5(0.0001150169699 0.0001605187678 0.0002020379768 0.0002462634863 0.0002781559499)
5(0.0001428278034 0.0001972604238 0.0002469494807 0.0002973714513 0.0003328863132)
5(0.0001763685556 0.0002410602461 0.0002997738219 0.0003568739624 0.0003950360154)
5(0.0002165082383 0.000293125114 0.0003613957603 0.0004253276422 0.000465473555)
5(0.0002644768139 0.0003541496775 0.000432779304 0.0005034484961 0.0005455983864)
5(0.0003216221452 0.0004251811659 0.0005146541268 0.0005921850291 0.0006347851498)
5(0.0003876348335 0.0005070892977 0.000608013104 0.0006914230856 0.0007339683864)
5(0.0004651819767 0.0006009889746 0.0007133670601 0.0008024502011 0.0008433687487)
5(0.0005564555942 0.0007077189413 0.0008311301658 0.0009251299103 0.0009653855986)
5(0.0006604522029 0.000828058637 0.0009631792467 0.001061238947 0.001095588402)
5(0.000775421362 0.0009625733387 0.00110864213 0.001210591329 0.001239376478)
5(0.0009084886395 0.001113326452 0.00127015299 0.00137330981 0.001394808484)
5(0.001056697524 0.001279697646 0.001445813682 0.001549674256 0.00156184399)
5(0.001222074187 0.001462625663 0.00163832696 0.001740846913 0.001742066859)
5(0.001404893677 0.001662544305 0.001847312045 0.001947553836 0.001938480208)
5(0.001608340068 0.001881633453 0.002073428727 0.002170257908 0.002144112267)
5(0.001832041252 0.002120860572 0.002318747679 0.002410625922 0.002370929139)
5(0.002074522655 0.002380137382 0.002582240939 0.002668246055 0.002610753838)
5(0.002340915597 0.002660789467 0.002867049715 0.00294524457 0.002871117857)
5(0.002632236083 0.002965349016 0.003174804944 0.003244615164 0.003147703617)
5(0.002946273203 0.003295979476 0.003507058578 0.00356418477 0.003447102677)
5(0.003289957814 0.003651163255 0.003863687817 0.003909960798 0.003767216226)
5(0.003657522571 0.004037136492 0.004247425367 0.004283133749 0.004108644245)
5(0.004056178109 0.0044516601 0.004661199525 0.004685781626 0.004473770724)
5(0.004490044891 0.004899741426 0.005109098909 0.005115437601 0.004859416086)
5(0.00495130582 0.005388563668 0.005594478753 0.005575191469 0.005269881309)
5(0.00545123003 0.005907958856 0.006119461364 0.006068234985 0.005706941131)
5(0.005995490426 0.006485006752 0.006689116674 0.006594680811 0.006175293139)
5(0.006578375758 0.007097066605 0.007291728139 0.007158531974 0.006665631444)
5(0.007204690926 0.007764549053 0.007940844006 0.007759404711 0.007158312836)
5(0.007875835582 0.008492762521 0.008625443067 0.008388380048 0.007642871196)
5(0.008614642903 0.009259197263 0.009350248619 0.009032715863 0.008112375533)
5(0.009406278406 0.01007391521 0.01010752521 0.009664631431 0.008550152028)
5(0.01026511845 0.01091767275 0.0108973977 0.01025934505 0.008926510093)
5(0.01117214083 0.01180894052 0.01166691747 0.01079644169 0.009237534558)
5(0.01213200731 0.01270806936 0.01239402191 0.0112503069 0.009463896217)
5(0.01314092532 0.0135955789 0.01303452156 0.01159983545 0.009612803721)
5(0.0141609813 0.0144177182 0.01353847082 0.01182706187 0.009690332001)
5(0.01517721393 0.01512394467 0.01389284086 0.01193827058 0.00970127857)
5(0.01614272176 0.01564823818 0.01408163703 0.01194283776 0.009667064771)
5(0.01695668265 0.01597402487 0.01411624337 0.0118700696 0.009598218601)
5(0.01756408593 0.01608210798 0.01402062627 0.01173049855 0.00951322157)
5(0.0179030666 0.01601310791 0.0138227842 0.01155450846 0.009431239587)
5(0.01798462325 0.01580591621 0.01355835876 0.01136275423 0.009357320428)
5(0.01781842023 0.01550572796 0.0132751955 0.01118517533 0.009319173713)
5(0.01750965345 0.01521516582 0.01307877076 0.01107617056 0.009361480713)
5(0.01735795318 0.01561484124 0.01411357194 0.01196991644 0.01065727792)
)


60
(
5(6.686270218e-06 9.276834228e-06 1.266439698e-05 1.73881147e-05 2.176662357e-05)
5(8.311732353e-06 1.13034059e-05 1.476126226e-05 1.943609238e-05 2.415610658e-05)
5(1.00573043e-05 1.366798776e-05 1.759180699e-05 2.277969865e-05 2.809840846e-05)
5(1.204455664e-05 1.649723139e-05 2.141292217e-05 2.75282229e-05 3.371826614e-05)
5(1.460164194e-05 2.024164973e-05 2.647687986e-05 3.389308257e-05 4.15395402e-05)
5(1.807718453e-05 2.524851713e-05 3.303321132e-05 4.220595484e-05 5.158408099e-05)
5(2.255449503e-05 3.166420953e-05 4.152487351e-05 5.279239736e-05 6.417470345e-05)
5(2.826624121e-05 3.976097151e-05 5.219434417e-05 6.595007354e-05 7.935981602e-05)
5(3.549582049e-05 4.98121912e-05 6.529299736e-05 8.194480606e-05 9.785888471e-05)
5(4.449393673e-05 6.224824242e-05 8.13954931e-05 0.0001012262466 0.0001194737013)
5(5.590434839e-05 7.759005103e-05 0.0001009066587 0.0001242400625 0.0001454171748)
5(6.964476681e-05 9.624221775e-05 0.0001244752398 0.000151529718 0.0001753643337)
5(8.652823633e-05 0.0001187773104 0.0001525164443 0.0001835722226 0.0002101682424)
5(0.0001070961641 0.0001457245723 0.0001855276937 0.0002208435074 0.0002500973294)
5(0.0001317980064 0.0001776737772 0.000224021866 0.0002640299845 0.0002954904905)
5(0.0001612195008 0.0002150428293 0.0002688408759 0.0003137728342 0.0003474155669)
5(0.0001968155739 0.0002590757298 0.0003207727169 0.0003702596171 0.0004061561607)
5(0.000238279275 0.0003102510051 0.0003806194917 0.0004342102868 0.0004718212878)
5(0.0002870655445 0.000369338907 0.000448195405 0.0005069515342 0.0005453748833)
5(0.0003435429326 0.0004370206515 0.0005252335372 0.0005881793974 0.0006271966809)
5(0.0004093087993 0.0005139512142 0.0006118838123 0.0006788222317 0.0007178501072)
5(0.0004837051428 0.0006007707365 0.0007086129467 0.0007789359691 0.0008164190036)
5(0.0005686485447 0.000698176402 0.0008153093649 0.0008886866585 0.0009248634854)
5(0.0006641086709 0.0008076936338 0.0009334220305 0.00100955605 0.001045426849)
5(0.0007737216065 0.0009293981612 0.001063669652 0.001142097402 0.001173354627)
5(0.0008913914434 0.001062134459 0.001206309694 0.001285131351 0.001313662773)
5(0.00102508106 0.001207614668 0.001361475438 0.00144199115 0.001465416735)
5(0.001172360486 0.001365803958 0.001529683529 0.001610579282 0.001629817533)
5(0.001335150745 0.001538751081 0.001712275636 0.001794708218 0.001805709648)
5(0.001506770353 0.001727894779 0.001908221203 0.001991392016 0.001994935492)
5(0.001699856336 0.001932089864 0.002120778085 0.002205227104 0.002201384977)
5(0.001909641313 0.002152304363 0.002350822824 0.002436015167 0.002425142907)
5(0.002131886173 0.002392142823 0.002599126304 0.002684678692 0.002666474256)
5(0.002372248769 0.002648094915 0.002867566488 0.002954325202 0.002926556212)
5(0.002632086181 0.002927238438 0.003157387493 0.003246436387 0.003210831008)
5(0.002916725464 0.003229339439 0.003470552626 0.003561989333 0.003515507721)
5(0.003213402391 0.003553847238 0.003811154403 0.003904101216 0.003844414778)
5(0.003541697858 0.003904750092 0.004181789843 0.004277409148 0.00420025244)
5(0.00388762727 0.004286608893 0.004587277144 0.004682324444 0.004589541147)
5(0.004263991406 0.004702285924 0.005024752954 0.005122862422 0.005008704799)
5(0.004674794656 0.005156828817 0.005500505405 0.005603582612 0.005471976147)
5(0.005100379533 0.005643723646 0.006024048854 0.006126181162 0.005958136906)
5(0.005572926921 0.006179396713 0.006590337004 0.006698085823 0.006479129209)
5(0.006069128786 0.006771935001 0.007206775935 0.007316387632 0.007018681495)
5(0.006617090438 0.007423198096 0.007885593485 0.007977928541 0.007566680357)
5(0.00721927881 0.008126615532 0.008620603191 0.008671842859 0.008111686878)
5(0.007878729111 0.008899132416 0.009415705212 0.009369937518 0.008642219756)
5(0.008621452576 0.009742735161 0.01025987209 0.01006290636 0.009132355882)
5(0.009455510332 0.01067037704 0.01112184586 0.01072668516 0.00956402009)
5(0.01038505738 0.01164918107 0.01196760549 0.01131279719 0.009920311236)
5(0.01143134107 0.01267785758 0.01275129352 0.01180436024 0.0101804085)
5(0.01257432193 0.0137029189 0.01342894588 0.01217805173 0.01035787843)
5(0.01381532446 0.01465029116 0.01397281041 0.01243361628 0.01046782309)
5(0.01508090222 0.01546194016 0.01435868584 0.01256584716 0.01049248521)
5(0.01630612848 0.01611254435 0.01458086482 0.01259602912 0.0104834654)
5(0.01733415059 0.01655648813 0.0146544914 0.01254618044 0.01044790957)
5(0.01814366331 0.0167935919 0.01461633439 0.01244932663 0.01040139849)
5(0.01865409251 0.01686893626 0.01453336093 0.01235063571 0.01037646682)
5(0.01883291769 0.01683525773 0.01452133741 0.01235974989 0.01046108483)
5(0.01903820594 0.0175807424 0.01578174322 0.01331268303 0.01220144994)
)


60
(
5(6.540536743e-06 9.108740359e-06 1.283209055e-05 1.790826005e-05 2.261967245e-05)
5(8.073942072e-06 1.106482929e-05 1.486474455e-05 1.984293785e-05 2.508624094e-05)
5(9.682154434e-06 1.330791728e-05 1.763826173e-05 2.300914486e-05 2.882372163e-05)
5(1.162948636e-05 1.603621649e-05 2.134875245e-05 2.755057319e-05 3.45548272e-05)
5(1.41188309e-05 1.959534088e-05 2.622460953e-05 3.364500997e-05 4.209914415e-05)
5(1.747010014e-05 2.43071759e-05 3.253812612e-05 4.149222268e-05 5.14040757e-05)
5(2.185365822e-05 3.028563369e-05 4.054487956e-05 5.12168667e-05 6.308907429e-05)
5(2.726001227e-05 3.787414001e-05 5.053033186e-05 6.321028312e-05 7.679633371e-05)
5(3.42170002e-05 4.727682405e-05 6.271095495e-05 7.770250389e-05 9.334503897e-05)
5(4.268723928e-05 5.875018437e-05 7.75398363e-05 9.497108407e-05 0.0001128515697)
5(5.321307597e-05 7.26703065e-05 9.529083595e-05 0.00011549175 0.0001357243225)
5(6.594445403e-05 8.941002327e-05 0.0001163935034 0.0001395566626 0.0001623454469)
5(8.147722672e-05 0.0001093667026 0.0001410919736 0.0001673739223 0.0001920502443)
5(0.0001004175784 0.00013300693 0.000170016475 0.0001995430173 0.0002269244885)
5(0.0001225779671 0.0001609836742 0.000203598155 0.0002366506495 0.0002659823632)
5(0.0001487111061 0.0001935469258 0.0002423179694 0.0002787861137 0.0003107059925)
5(0.0001795976455 0.0002311342747 0.0002865393578 0.0003261744366 0.0003606821679)
5(0.0002161738536 0.0002743118792 0.0003366958206 0.0003802303754 0.0004162852896)
5(0.0002578444145 0.0003239778385 0.0003938576232 0.0004406924957 0.0004799253594)
5(0.0003070112339 0.0003805961083 0.0004583789803 0.0005087469504 0.000548625482)
5(0.0003632502279 0.000444453159 0.0005303251134 0.0005842033031 0.0006261184895)
5(0.0004234992744 0.0005162501459 0.0006109516315 0.0006678697097 0.0007104323587)
5(0.0004949087666 0.0005968142887 0.0006998864377 0.0007597297373 0.0008045730559)
5(0.0005773761595 0.0006860909423 0.0007983188584 0.0008611695011 0.0009069397666)
5(0.0006655524537 0.0007844237463 0.0009060636857 0.0009722873137 0.001018987462)
5(0.0007645305741 0.0008929014117 0.001023870564 0.001093194608 0.001138754699)
5(0.0008738723163 0.001012587374 0.001151504213 0.001224230389 0.001270284215)
5(0.0009953865256 0.001142806816 0.001291214248 0.001366309367 0.001410905481)
5(0.001126933639 0.001283605061 0.001441996716 0.001520920581 0.001568158911)
5(0.001268364554 0.001436906436 0.001604427047 0.00168776224 0.001732114573)
5(0.001426184634 0.001601824728 0.001780072666 0.001868574183 0.001913507922)
5(0.001592097316 0.001779759612 0.001971786208 0.002064267483 0.00210855085)
5(0.001770176986 0.001973866785 0.00217582956 0.002275312899 0.002320957415)
5(0.001964659578 0.002179784787 0.002397590547 0.002506303529 0.002549826067)
5(0.002168602934 0.00240260087 0.002636430471 0.002755502103 0.00280378223)
5(0.002394577917 0.002642002737 0.002896401098 0.003024983328 0.003078370276)
5(0.002627601228 0.002903295837 0.003179862143 0.003320348532 0.003374348735)
5(0.002880301314 0.003186616659 0.003486466442 0.003642042206 0.003698859075)
5(0.003148418894 0.00349288125 0.003821880025 0.003994272122 0.00405691341)
5(0.003437967039 0.003822899792 0.004188082507 0.004381746388 0.004453605977)
5(0.003736167108 0.004179055027 0.00458859375 0.004808890565 0.004876642831)
5(0.004064896304 0.004565285953 0.005029625198 0.005276208266 0.005355665943)
5(0.00440146654 0.004988519795 0.005509427629 0.005794327483 0.005865210828)
5(0.004760983291 0.005459964277 0.006046540889 0.006372054499 0.006420710734)
5(0.005136366808 0.005970721219 0.006642593124 0.007006629382 0.006996042032)
5(0.005561365407 0.006536811849 0.007311110725 0.007697916253 0.007605347374)
5(0.006014444249 0.007172276265 0.008052803308 0.008437719429 0.008239348973)
5(0.006575826251 0.00787689512 0.008884655709 0.009205267472 0.008858155997)
5(0.00720583396 0.008678562825 0.009783695228 0.009995002947 0.009465248603)
5(0.007924582146 0.009596189961 0.01073101566 0.01077980715 0.01001799397)
5(0.008823979262 0.01064785641 0.0117147149 0.01151990934 0.0105023455)
5(0.009853482704 0.01177353405 0.01268728129 0.01217565227 0.01088431782)
5(0.01105446814 0.0130076357 0.0135958139 0.01273346705 0.01117575952)
5(0.01238785976 0.01423318569 0.01441997456 0.0131523682 0.0113699439)
5(0.01386144907 0.01540791131 0.0150946085 0.01345052726 0.01148783471)
5(0.01531040413 0.01647740715 0.01561530292 0.01363208912 0.01154690276)
5(0.0167474111 0.01733263384 0.0159561091 0.01373739256 0.01157240524)
5(0.01797461216 0.01801113969 0.01619676548 0.01382573 0.01163360367)
5(0.0188843559 0.01839494019 0.01642292871 0.01404556661 0.01183511176)
5(0.01908697538 0.01893084709 0.01733944647 0.01526837013 0.01336854074)
)


60
(
5(6.486304177e-06 9.11324753e-06 1.308744275e-05 1.850518448e-05 2.339433948e-05)
5(7.992373222e-06 1.098506041e-05 1.502189741e-05 2.039272387e-05 2.58361486e-05)
5(9.568612926e-06 1.320130127e-05 1.778913664e-05 2.342022217e-05 2.955411811e-05)
5(1.143816641e-05 1.587348103e-05 2.14855209e-05 2.773884541e-05 3.490749834e-05)
5(1.400449048e-05 1.930695422e-05 2.625463811e-05 3.346325485e-05 4.202679389e-05)
5(1.724286357e-05 2.379297485e-05 3.222504559e-05 4.075260494e-05 5.066689101e-05)
5(2.154774349e-05 2.950762841e-05 3.973206214e-05 4.978632685e-05 6.152363098e-05)
5(2.681861189e-05 3.671711675e-05 4.906543e-05 6.082478347e-05 7.406606903e-05)
5(3.347205358e-05 4.563971071e-05 6.041622851e-05 7.40058136e-05 8.898879177e-05)
5(4.163370619e-05 5.639020327e-05 7.406626649e-05 8.964936702e-05 0.0001069400936)
5(5.158391636e-05 6.912380829e-05 9.017611989e-05 0.0001078991834 0.0001269388531)
5(6.336187944e-05 8.434616851e-05 0.000109101898 0.0001291091774 0.000150386118)
5(7.79781422e-05 0.0001023245312 0.0001311387234 0.000153496727 0.0001770282893)
5(9.547359025e-05 0.0001235486939 0.0001568084823 0.0001815062436 0.0002070552226)
5(0.0001159351316 0.0001482506004 0.000186218621 0.00021340851 0.0002416912945)
5(0.0001398898964 0.0001768651032 0.0002200077998 0.0002492576314 0.0002804309621)
5(0.0001674604155 0.0002095657382 0.0002581961899 0.0002900518414 0.0003235701372)
5(0.0002000621106 0.0002470713615 0.0003013969201 0.0003364429519 0.0003729110908)
5(0.0002380322173 0.0002900354915 0.0003503672357 0.0003876690689 0.000426398341)
5(0.0002801274993 0.0003385464623 0.0004046436455 0.0004450546166 0.0004875468228)
5(0.0003290797983 0.0003933585462 0.0004653400911 0.0005086794151 0.0005526324923)
5(0.0003840823041 0.0004541511036 0.0005330932604 0.0005792385616 0.0006265165094)
5(0.0004457007464 0.0005224417383 0.0006087692999 0.0006576334762 0.0007079233968)
5(0.000516921745 0.0005977181123 0.0006916674279 0.0007439043462 0.000794776186)
5(0.0005904594471 0.0006803395668 0.0007820938147 0.000838455149 0.0008924456151)
5(0.0006775647985 0.0007712388425 0.0008808447608 0.0009416949852 0.000998382068)
5(0.0007724714565 0.0008724531372 0.0009891155898 0.001053393822 0.001113327981)
5(0.0008775286734 0.0009829761533 0.00110815565 0.001174551275 0.001237101252)
5(0.000982069457 0.001102707682 0.001234691022 0.00130579384 0.001372064558)
5(0.001106415938 0.001230641407 0.001371483663 0.001449616116 0.001517281504)
5(0.001232812987 0.001368240442 0.001519612164 0.001602391543 0.001680321939)
5(0.001376997076 0.001518203385 0.001680542685 0.001768241754 0.001847846081)
5(0.001525363011 0.001677788047 0.00185277626 0.001948375381 0.002037927399)
5(0.001686466525 0.001850472428 0.002037572157 0.002145503408 0.002239262663)
5(0.001861451406 0.002034591213 0.002240360688 0.002359566596 0.00246513923)
5(0.002044278519 0.002230782118 0.002455844784 0.002593156913 0.002708584403)
5(0.002233947953 0.002447783899 0.002691205465 0.002847879067 0.002976153003)
5(0.00243958877 0.002677498816 0.002948029001 0.003122276447 0.003265671737)
5(0.002652259827 0.002922395143 0.003227905193 0.00342269882 0.003581648836)
5(0.002869168065 0.00318996874 0.003534951768 0.003754815467 0.003940144089)
5(0.003101753993 0.003474995019 0.003865983545 0.004122336461 0.004327702253)
5(0.003334421883 0.003782439642 0.004228838703 0.004526664142 0.004757409128)
5(0.003565250693 0.004108437924 0.004632594571 0.004980112554 0.005239253136)
5(0.003818598001 0.004456162357 0.005072340277 0.005487487869 0.005760079884)
5(0.004075912809 0.004836008706 0.005558022051 0.00605795204 0.006339540516)
5(0.004347691102 0.005244782961 0.006108480787 0.006697634329 0.006963895641)
5(0.004673086907 0.005688476458 0.006736719895 0.007407191234 0.007632956577)
5(0.005042879936 0.006212857905 0.00745385413 0.008180438546 0.008331902255)
5(0.005486939201 0.006827010358 0.008263062719 0.009018394277 0.009052511537)
5(0.006000882667 0.007569141224 0.009170775511 0.009911767743 0.009778680504)
5(0.006650196721 0.008456440311 0.0101770435 0.01083351319 0.01047278387)
5(0.007428245495 0.009479280943 0.01127245928 0.01175038652 0.01111378571)
5(0.008344506657 0.01065019292 0.01242174426 0.01263162997 0.01164843242)
5(0.009428106666 0.01192667697 0.01361923151 0.01342677329 0.01210853635)
5(0.01066909011 0.01328576887 0.01475384543 0.01412583365 0.01245169938)
5(0.01211030441 0.01471744127 0.01581295494 0.01471191543 0.01271366549)
5(0.01357628982 0.01609930275 0.01675973509 0.01519017197 0.0129443198)
5(0.01504890335 0.01735247904 0.0175126029 0.01561099222 0.01319191192)
5(0.01637080208 0.01829074322 0.01808954029 0.01608684664 0.01362289492)
5(0.01618424628 0.01808228836 0.01846508097 0.01778133874 0.01606612204)
)


60
(
5(6.475964898e-06 9.190198035e-06 1.336957318e-05 1.908368983e-05 2.409761246e-05)
5(7.972076454e-06 1.105554285e-05 1.526218103e-05 2.092602009e-05 2.652436553e-05)
5(9.585120704e-06 1.330989307e-05 1.802605295e-05 2.390272264e-05 3.033573166e-05)
5(1.146139002e-05 1.593389971e-05 2.165901296e-05 2.802419435e-05 3.513282471e-05)
5(1.402529102e-05 1.932402784e-05 2.629251108e-05 3.341959958e-05 4.181182128e-05)
5(1.728107662e-05 2.377588516e-05 3.206055713e-05 4.020793192e-05 4.989858686e-05)
5(2.139696193e-05 2.939279505e-05 3.934406693e-05 4.87063411e-05 5.958843808e-05)
5(2.671108101e-05 3.630958254e-05 4.821001153e-05 5.894647583e-05 7.157817644e-05)
5(3.312846827e-05 4.473979997e-05 5.897732014e-05 7.11074169e-05 8.521413258e-05)
5(4.115647757e-05 5.488699751e-05 7.159786977e-05 8.526383781e-05 0.0001013152269)