/*--------------------------------*- C++ -*----------------------------------*\
| =========                 |                                                 |
| \\      /  F ield         | OpenFOAM: The Open Source CFD Toolbox           |
|  \\    /   O peration     | Version:  2.3.1                                 |
|   \\  /    A nd           | Web:      www.OpenFOAM.org                      |
|    \\/     M anipulation  |                                                 |
\*---------------------------------------------------------------------------*/
FoamFile
{
    version     2.0;
    format      ascii;
    class       dictionary;
    location    "constant";
    object      GRPSI22;
}
// * * * * * * * * * * * * * * * * * * * * * * * * * * * * * * * * * * * * * //

GRPSI22_table
60
(

60
(
5(-9.416891499e-13 -2.600040716e-13 -8.95221302e-13 -3.300969747e-13 -5.90149644e-13)
5(-6.502383874e-13 -1.160734633e-13 -5.805128745e-13 -2.379472205e-13 -4.009849226e-13)
5(-1.793938124e-13 1.246941068e-14 -1.441079404e-13 -9.01090339e-14 -1.007376013e-13)
5(0 -1.093383392e-14 -8.657495223e-15 -9.015007598e-15 2.774105964e-15)
5(1.689130125e-14 -1.56550083e-14 -1.621546049e-14 1.001133295e-14 -2.952766461e-17)
5(1.497892804e-14 -9.759992998e-15 -1.608163011e-14 -4.11033921e-15 9.284114573e-15)
5(-1.348779635e-14 -5.146857477e-15 4.416997564e-15 -6.212651575e-15 -3.957034027e-15)
5(7.96930632e-15 -2.384764702e-15 -2.234548115e-15 -1.585186636e-15 -1.046785419e-14)
5(1.15372775e-14 -3.690232996e-16 -4.319281958e-15 -2.460922022e-15 -2.220148831e-16)
5(-5.835654459e-15 2.28240758e-17 -2.177527907e-15 -1.492125465e-15 -1.063968997e-15)
5(-9.366766004e-15 -3.11738934e-15 -3.719174354e-15 -1.068529684e-15 -6.758132911e-16)
5(-1.659474925e-14 -3.014962154e-15 -2.840291395e-15 -8.69827225e-16 -4.374595891e-16)
5(-5.252475809e-15 -4.744463079e-16 -1.116265606e-15 -2.209813896e-16 -2.549151196e-16)
5(-3.915211387e-16 -2.30277661e-16 -2.526823076e-16 -1.119769345e-16 -7.464760232e-17)
5(-2.136644272e-16 1.220392963e-15 -8.68227005e-17 -5.380298627e-18 -2.247377904e-17)
5(-4.661892484e-17 9.228493202e-16 -1.467270248e-17 -7.888184916e-18 -1.033996111e-17)
5(-6.889034215e-17 -7.578564286e-16 -5.17200336e-17 -3.898160536e-17 -8.619144791e-18)
5(-6.913777548e-17 -7.634821787e-16 -4.339087282e-17 -1.591570367e-17 -2.19179679e-18)
5(-3.239616103e-17 -6.04015945e-16 -6.8105148e-18 -2.577913016e-18 -1.061608158e-18)
5(-6.824378668e-18 -2.232117954e-16 -3.473764072e-18 -1.338894074e-18 -1.439299439e-18)
5(-4.358728327e-18 -2.407957828e-18 -1.96419887e-18 -1.019803305e-18 -9.101810523e-19)
5(-2.232225037e-18 -1.312798022e-18 -9.218256389e-19 -4.849120044e-19 -2.281173591e-19)
5(-1.312963665e-18 -5.80101302e-19 -6.691511298e-19 -1.489229958e-19 -7.432305552e-20)
5(-7.826730292e-19 -2.381736207e-19 -3.331727848e-19 -8.638616155e-20 -4.279506435e-20)
5(-3.28461585e-19 3.05394045e-20 -7.317898115e-20 4.933450199e-21 -4.873915967e-21)
5(-1.81672942e-19 7.510340693e-20 2.863724338e-20 7.706890729e-20 2.294244734e-20)
5(2.860218572e-20 2.325869483e-20 1.755764111e-19 1.746463245e-19 6.35306001e-20)
5(4.075361206e-19 4.003874141e-19 4.041325475e-19 3.233741632e-19 1.33990636e-19)
5(8.758560511e-19 1.120963045e-18 7.516014227e-19 5.287914707e-19 2.350364815e-19)
5(1.706812835e-18 2.159923625e-18 1.587842107e-18 1.107667417e-18 4.377252435e-19)
5(3.189552636e-18 3.727571745e-18 2.643737088e-18 1.652108293e-18 4.524058344e-19)
5(5.656227709e-18 6.7507571e-18 4.726122788e-18 2.637429913e-18 1.156407894e-18)
5(1.035980857e-17 1.218618909e-17 8.909773635e-18 4.059980654e-18 9.948302144e-19)
5(1.827344333e-17 1.872633307e-17 1.297483501e-17 5.413747059e-18 6.205447162e-19)
5(2.961172838e-17 3.073523417e-17 2.263331397e-17 6.996080006e-18 1.211369578e-18)
5(4.490802328e-17 3.539957251e-17 1.716818272e-17 4.015510159e-18 7.425758319e-19)
5(6.22119176e-17 4.513432142e-17 1.110726645e-17 2.443079411e-18 -2.120545842e-18)
5(8.095917605e-17 4.986550465e-17 1.978697317e-17 -7.191216445e-19 -1.11561487e-18)
5(1.027361474e-16 3.699738641e-17 1.651937754e-17 -5.359685581e-18 -8.848600972e-19)
5(9.057325917e-17 4.463917302e-18 -1.588124568e-17 -7.070845504e-18 -2.044114188e-18)
5(3.262452235e-17 -3.138042419e-17 -3.72313277e-17 -7.461757006e-18 -2.173159378e-21)
5(-2.289921897e-17 -5.713715475e-17 -2.97759942e-17 -5.908424053e-18 -2.644479185e-21)
5(-6.615444882e-17 -5.977982972e-17 -1.342314072e-17 -3.177912621e-18 7.774194239e-20)
5(-1.013525314e-16 -4.487331745e-17 -7.657761384e-18 5.162323288e-44 5.466608753e-21)
5(-1.18586497e-16 -3.279532799e-17 -1.208223563e-17 2.824875964e-43 -7.774194239e-20)
5(-9.660150068e-17 -1.477125927e-17 -3.567465812e-18 3.513928538e-20 -5.466608753e-21)
5(-4.740566769e-17 -6.489375649e-18 -2.500649731e-19 5.785236956e-42 3.919820931e-41)
5(-2.073864869e-17 -1.535302455e-18 -6.033071204e-20 -3.513928538e-20 1.645909914e-40)
5(-9.889018964e-18 -4.153174807e-20 -3.348847978e-20 9.18570142e-41 6.391911946e-40)
5(-1.399339483e-18 -6.731517191e-21 -7.656016588e-21 3.529585206e-40 2.376532154e-39)
5(-1.890523722e-19 -1.61836986e-22 1.328914572e-40 1.285683337e-39 8.559707359e-39)
5(-2.509783649e-20 5.244053439e-41 4.79758258e-40 4.48876772e-39 2.92313418e-38)
5(-2.952359579e-21 1.849269303e-40 1.669913205e-39 1.483887426e-38 9.662073362e-38)
5(-1.231752941e-24 6.277842075e-40 5.57995216e-39 4.805006062e-38 3.044251994e-37)
5(2.591867665e-39 2.034678135e-39 1.796961067e-38 1.466927451e-37 9.160092536e-37)
5(1.157523371e-38 6.474881157e-39 5.609447165e-38 4.299736669e-37 2.548086353e-36)
5(1.82139699e-38 6.335092213e-38 1.727973649e-37 1.201266765e-36 6.723958718e-36)
5(1.73991105e-38 1.628336972e-37 8.972966275e-37 1.80020475e-36 1.647036496e-35)
5(1.880631836e-38 3.032560918e-37 -1.925792436e-37 2.480921311e-35 1.050680486e-34)
5(2.119200215e-38 3.976982642e-37 -1.918976306e-36 4.77806009e-35 1.869184384e-34)
)


60
(
5(-2.475666538e-12 -8.832236872e-15 -2.144795976e-12 -6.06992665e-13 -9.722107984e-13)
5(-1.73286512e-12 -6.664118084e-14 -1.405374665e-12 -4.336706345e-13 -6.532959037e-13)
5(-6.704921833e-13 -1.398463391e-13 -4.248538794e-13 -1.876278546e-13 -2.120679198e-13)
5(-1.859677179e-13 -1.48819154e-13 -9.284327445e-14 -8.98615247e-14 -4.699470558e-14)
5(-4.630542579e-14 -1.556259546e-13 -2.854136047e-14 -6.957362115e-14 -1.309045518e-14)
5(-1.270550094e-13 -1.886204479e-13 -1.024536163e-13 -1.162406624e-13 -6.107854644e-14)
5(-2.10759184e-13 -2.135804591e-13 -2.013976361e-13 -1.742640058e-13 -1.247931857e-13)
5(-2.572218003e-13 -2.252443875e-13 -2.566089903e-13 -1.913273189e-13 -1.539492105e-13)
5(-3.065563942e-13 -2.374764738e-13 -2.48803725e-13 -1.79852022e-13 -1.46395848e-13)
5(-3.027740566e-13 -2.176610404e-13 -2.087079039e-13 -1.374640917e-13 -1.089761588e-13)
5(-2.470946756e-13 -1.493457534e-13 -1.401481838e-13 -7.845116589e-14 -5.988853525e-14)
5(-1.728856258e-13 -7.881857004e-14 -7.220100235e-14 -3.451615009e-14 -2.44572599e-14)
5(-9.046667023e-14 -3.754169001e-14 -3.167407217e-14 -1.400540628e-14 -8.940834191e-15)
5(-4.631613882e-14 -1.80978995e-14 -1.41853968e-14 -6.134422466e-15 -3.65754377e-15)
5(-2.409349764e-14 -9.369308738e-15 -6.886176876e-15 -2.914834202e-15 -1.663502324e-15)
5(-1.318298242e-14 -5.149911186e-15 -3.575775981e-15 -1.48080217e-15 -8.059828508e-16)
5(-7.427097942e-15 -2.930377892e-15 -1.936657428e-15 -7.861766131e-16 -4.078638744e-16)
5(-4.490024622e-15 -1.722156436e-15 -1.085659936e-15 -4.309636434e-16 -2.137393831e-16)
5(-2.806568497e-15 -1.045055419e-15 -6.315596496e-16 -2.447476349e-16 -1.170652765e-16)
5(-1.792163361e-15 -6.619082649e-16 -3.792256563e-16 -1.424499697e-16 -6.485921172e-17)
5(-1.180309159e-15 -4.284381264e-16 -2.337213831e-16 -8.477838055e-17 -3.645520431e-17)
5(-7.745663643e-16 -2.795130027e-16 -1.453036942e-16 -5.099380202e-17 -2.080804092e-17)
5(-5.510110649e-16 -1.849327436e-16 -9.145411723e-17 -3.032581118e-17 -1.180522877e-17)
5(-3.985111391e-16 -1.236116426e-16 -5.757003022e-17 -1.772287993e-17 -6.263249772e-18)
5(-2.697288709e-16 -8.164268392e-17 -3.555802322e-17 -9.709265197e-18 -2.715647557e-18)
5(-1.912786826e-16 -5.359815325e-17 -2.099238337e-17 -4.007376096e-18 1.069393589e-19)
5(-1.309320672e-16 -3.307885745e-17 -1.006892015e-17 9.193971092e-19 2.982913631e-18)
5(-8.752313678e-17 -1.715316093e-17 -8.963496501e-19 6.479695426e-18 6.933948627e-18)
5(-5.695538211e-17 -2.437331455e-18 9.025675486e-18 1.440826342e-17 1.338239137e-17)
5(-2.944561316e-17 1.385095246e-17 2.268576128e-17 2.725924221e-17 2.410758011e-17)
5(-1.764295504e-18 3.57999535e-17 4.387281007e-17 4.848000193e-17 4.186387712e-17)
5(3.073459678e-17 6.888047625e-17 7.806569334e-17 8.264433835e-17 7.039916338e-17)
5(7.485505886e-17 1.205335994e-16 1.321571675e-16 1.348829668e-16 1.108593258e-16)
5(1.406294908e-16 1.999841828e-16 2.136220827e-16 2.07838491e-16 1.63794737e-16)
5(2.385423861e-16 3.137773882e-16 3.25835831e-16 2.990432293e-16 2.23496941e-16)
5(3.788790798e-16 4.638410772e-16 4.630187704e-16 3.951754935e-16 2.745781564e-16)
5(5.618569281e-16 6.398785539e-16 6.034604511e-16 4.684533166e-16 2.942847081e-16)
5(7.740706993e-16 8.036206553e-16 7.021092301e-16 4.778492309e-16 2.484631489e-16)
5(9.77062603e-16 9.032506073e-16 6.993466466e-16 3.816349565e-16 1.135049757e-16)
5(1.097494715e-15 8.57514506e-16 5.356629146e-16 1.650154825e-16 -8.666531635e-17)
5(1.038559792e-15 6.143526443e-16 2.092326803e-16 -1.399644537e-16 -2.788481316e-16)
5(7.410137563e-16 1.707140674e-16 -2.216832785e-16 -4.444030642e-16 -3.794943456e-16)
5(2.045067409e-16 -3.988604112e-16 -6.369229825e-16 -6.276618597e-16 -3.603680597e-16)
5(-4.809258109e-16 -8.941509222e-16 -8.901691399e-16 -6.2178802e-16 -2.612540941e-16)
5(-1.095998838e-15 -1.153149601e-15 -9.039878455e-16 -4.653859411e-16 -1.461434334e-16)
5(-1.417078441e-15 -1.11927839e-15 -7.096947427e-16 -2.66097631e-16 -6.233524192e-17)
5(-1.368892478e-15 -8.527469077e-16 -4.309181237e-16 -1.159192338e-16 -1.957184206e-17)
5(-1.03241884e-15 -5.117593224e-16 -1.97296909e-16 -3.807458856e-17 -4.43467989e-18)
5(-6.093796654e-16 -2.369105331e-16 -6.662221349e-17 -9.144287852e-18 -7.165040369e-19)
5(-2.779751188e-16 -8.171866608e-17 -1.605309722e-17 -1.552643684e-18 -8.316600692e-20)
5(-9.179153002e-17 -1.979654701e-17 -2.721118101e-18 -1.790343981e-19 -7.426249133e-21)
5(-2.162179041e-17 -3.207195442e-18 -2.975333377e-19 -1.512874131e-20 -5.20417297e-22)
5(-3.119242482e-18 -3.295877708e-19 -2.193278834e-20 -9.387531314e-22 -2.855696716e-23)
5(-3.172244125e-19 -2.09079338e-20 -1.124851834e-21 -4.356406708e-23 -1.195242958e-24)
5(-1.408234149e-20 -7.158711512e-22 -3.405684788e-23 8.661115483e-24 -4.161832374e-26)
5(-3.026574485e-22 -1.16218217e-21 -1.05266227e-24 2.642580438e-21 -1.256861464e-27)
5(-2.216191164e-24 5.354263051e-20 -2.380616182e-24 5.862537235e-19 -6.366570897e-29)
5(-7.692149846e-27 -1.77431509e-18 -5.005451692e-21 -8.390996367e-19 -4.015256368e-30)
5(-1.736195438e-29 -5.353006309e-20 2.368394674e-24 -5.862638365e-19 -1.435673662e-31)
5(-8.656993958e-32 3.550923949e-18 1.001165045e-20 1.672913974e-18 -1.925620484e-33)
)


60
(
5(-3.684901305e-12 1.317756479e-12 -4.092785724e-12 -1.06142292e-12 -1.60224736e-12)
5(-2.892221743e-12 8.681054005e-13 -2.714336949e-12 -7.531289261e-13 -1.086494761e-12)
5(-1.363965709e-12 1.210796653e-13 -7.808475419e-13 -3.102146488e-13 -3.46760759e-13)
5(-3.515673259e-13 -2.671523832e-13 -7.527252982e-14 -1.464445146e-13 -6.638647685e-14)
5(1.046124451e-14 -4.255518386e-13 -1.207761841e-14 -1.724571493e-13 -3.684340168e-14)
5(-2.629600568e-13 -6.321577456e-13 -3.470332019e-13 -3.537238399e-13 -1.726745086e-13)
5(-9.234804708e-13 -9.232557072e-13 -7.771138641e-13 -5.71542025e-13 -3.594778969e-13)
5(-1.52748996e-12 -1.215883496e-12 -1.076782749e-12 -7.171709389e-13 -4.64001651e-13)
5(-1.918478888e-12 -1.406720781e-12 -1.18898107e-12 -7.459673705e-13 -4.736330964e-13)
5(-1.999891821e-12 -1.343046182e-12 -1.074608525e-12 -6.071312809e-13 -3.725776511e-13)
5(-1.83072881e-12 -9.808654495e-13 -7.571334562e-13 -3.644900056e-13 -2.098112347e-13)
5(-1.316898163e-12 -5.455746975e-13 -3.968678932e-13 -1.639185341e-13 -8.81377983e-14)
5(-7.227503378e-13 -2.638105897e-13 -1.751488011e-13 -6.526334953e-14 -3.131027373e-14)
5(-3.696630582e-13 -1.271274674e-13 -7.789864979e-14 -2.802943359e-14 -1.261274721e-14)
5(-1.975015031e-13 -6.570772639e-14 -3.788346038e-14 -1.340005475e-14 -5.780658466e-15)
5(-1.090601366e-13 -3.621409589e-14 -1.973643103e-14 -6.893553745e-15 -2.809298057e-15)
5(-6.482262037e-14 -2.094111093e-14 -1.086367342e-14 -3.711668051e-15 -1.454501298e-15)
5(-3.895742199e-14 -1.265512758e-14 -6.218517241e-15 -2.066639785e-15 -7.802361062e-16)
5(-2.492200194e-14 -7.837941524e-15 -3.699324596e-15 -1.191000215e-15 -4.382547943e-16)
5(-1.599560225e-14 -4.977413564e-15 -2.242840453e-15 -7.062336754e-16 -2.511917212e-16)
5(-1.094412351e-14 -3.240384858e-15 -1.394395392e-15 -4.289071329e-16 -1.467177965e-16)
5(-7.843610079e-15 -2.147814823e-15 -8.830616049e-16 -2.655267735e-16 -8.630061014e-17)
5(-5.296519985e-15 -1.437139455e-15 -5.673288739e-16 -1.644032535e-16 -5.136871079e-17)
5(-3.829456357e-15 -9.719671138e-16 -3.652846157e-16 -1.009950663e-16 -3.001964496e-17)
5(-2.705424874e-15 -6.592866542e-16 -2.34418216e-16 -6.140687079e-17 -1.608591114e-17)
5(-2.047360032e-15 -4.467220646e-16 -1.486805402e-16 -3.504207116e-17 -6.434274808e-18)
5(-1.404003039e-15 -3.012635501e-16 -9.091919312e-17 -1.580565621e-17 1.866697882e-18)
5(-1.057075502e-15 -1.969861194e-16 -4.895670707e-17 3.894760982e-19 1.112971143e-17)
5(-8.110878697e-16 -1.177020351e-16 -1.569525127e-17 1.789195601e-17 2.433824695e-17)
5(-5.55841318e-16 -5.746963108e-17 1.662502698e-17 4.130820643e-17 4.436453759e-17)
5(-3.9324929e-16 -5.019427321e-19 5.593996574e-17 7.705554595e-17 7.743273685e-17)
5(-2.508251032e-16 6.407319341e-17 1.114727868e-16 1.335324169e-16 1.300057254e-16)
5(-1.197929097e-16 1.454054943e-16 1.950318258e-16 2.196500279e-16 2.098942745e-16)
5(2.481370046e-17 2.604049958e-16 3.199852484e-16 3.454242272e-16 3.197202973e-16)
5(2.049360146e-16 4.250143903e-16 4.972869817e-16 5.157438065e-16 4.586338761e-16)
5(4.193254386e-16 6.476711255e-16 7.29144851e-16 7.188593982e-16 6.091891627e-16)
5(6.743787269e-16 9.258864059e-16 9.952167154e-16 9.198595836e-16 7.245782322e-16)
5(1.006762066e-15 1.231002184e-15 1.240208597e-15 1.054125334e-15 7.409136713e-16)
5(1.353350258e-15 1.488144412e-15 1.380136692e-15 1.035438557e-15 5.928714217e-16)
5(1.625997934e-15 1.589415785e-15 1.305103765e-15 7.858923702e-16 2.479451472e-16)
5(1.73018961e-15 1.424022768e-15 9.221659854e-16 2.854853704e-16 -2.240311813e-16)
5(1.52391912e-15 9.053789214e-16 2.388939592e-16 -3.78818471e-16 -6.608908957e-16)
5(9.138559851e-16 6.825982013e-17 -5.985454816e-16 -1.006922012e-15 -9.170211178e-16)
5(-1.751084218e-17 -8.97651044e-16 -1.355320866e-15 -1.368172009e-15 -9.242509649e-16)
5(-1.067472059e-15 -1.702497778e-15 -1.780096128e-15 -1.351965716e-15 -7.283426496e-16)
5(-1.931774976e-15 -2.072717053e-15 -1.744292491e-15 -1.042000084e-15 -4.514568648e-16)
5(-2.302272589e-15 -1.940644077e-15 -1.335561703e-15 -6.331376146e-16 -2.176304115e-16)
5(-2.110769328e-15 -1.446874129e-15 -7.990901864e-16 -2.992952586e-16 -8.11826065e-17)
5(-1.537160617e-15 -8.498238551e-16 -3.692826214e-16 -1.086675301e-16 -2.211407408e-17)
5(-8.813049246e-16 -3.86269982e-16 -1.278507465e-16 -2.954636794e-17 -4.446005559e-18)
5(-3.892393149e-16 -1.306893365e-16 -3.231215394e-17 -5.640435189e-18 -6.365604016e-19)
5(-1.278109067e-16 -3.112854972e-17 -5.647813654e-18 -7.660059647e-19 -6.131746307e-20)
5(-2.7947335e-17 -4.864360875e-18 -6.32734775e-19 -6.67206986e-20 -4.668515437e-21)
5(-3.773831082e-18 -4.660203398e-19 -4.408585717e-20 -3.889505232e-21 -2.3244447e-22)
5(-2.61462303e-19 -2.565449089e-20 -1.641702074e-21 -7.187099399e-22 -8.183998703e-24)
5(-9.943291689e-21 -2.823558571e-19 7.306102415e-22 -1.365904772e-19 -2.28275886e-25)
5(-1.515312608e-22 -8.175508062e-17 1.763030409e-19 -3.734930871e-17 -4.491287109e-27)
5(-6.331964505e-25 -3.334626284e-14 -2.493625815e-19 -1.240221811e-14 -1.451774415e-28)
5(-5.037349663e-28 8.175629685e-17 -1.763065564e-19 3.734989506e-17 -5.531022952e-30)
5(-2.273216104e-30 6.669308913e-14 4.971923409e-19 2.480470941e-14 -5.89758484e-32)
)


60
(
5(-1.087666322e-12 6.225960551e-12 -5.969625524e-12 -1.355676185e-12 -2.372580869e-12)
5(-1.133668693e-12 4.578407755e-12 -3.876172499e-12 -9.086288861e-13 -1.605493075e-12)
5(-7.641657829e-13 1.696139214e-12 -8.647709285e-13 -2.807165313e-13 -4.933867355e-13)
5(5.817593513e-13 3.597585404e-14 3.347992657e-13 -1.104507534e-13 -3.02739977e-14)
5(1.335066991e-12 -6.65482725e-13 2.387691287e-13 -3.204595423e-13 -1.594919387e-14)
5(-1.287346737e-13 -1.625626686e-12 -8.75379847e-13 -8.445101143e-13 -3.704876384e-13)
5(-2.772837362e-12 -2.809613865e-12 -2.204022917e-12 -1.451124215e-12 -8.122847749e-13)
5(-4.871949993e-12 -3.863946893e-12 -3.19380366e-12 -1.940233035e-12 -1.098943927e-12)
5(-6.759146752e-12 -4.88474391e-12 -3.692955543e-12 -2.130485727e-12 -1.16472493e-12)
5(-8.444982867e-12 -4.997876642e-12 -3.486204715e-12 -1.834092497e-12 -9.553960718e-13)
5(-7.996502475e-12 -3.82441293e-12 -2.567552323e-12 -1.173226229e-12 -5.752424407e-13)
5(-5.701349646e-12 -2.245439855e-12 -1.424179374e-12 -5.529076699e-13 -2.543524739e-13)
5(-3.34650139e-12 -1.089548015e-12 -6.329589593e-13 -2.197680236e-13 -9.122763949e-14)
5(-1.764379163e-12 -5.18549111e-13 -2.743516589e-13 -9.136139645e-14 -3.498319544e-14)
5(-9.358739624e-13 -2.656249685e-13 -1.31186339e-13 -4.293891033e-14 -1.597131062e-14)
5(-5.061968656e-13 -1.463828315e-13 -6.807090155e-14 -2.205714734e-14 -7.853130048e-15)
5(-3.048165351e-13 -8.451220071e-14 -3.733752003e-14 -1.191945571e-14 -4.134185403e-15)
5(-1.902413472e-13 -5.065276865e-14 -2.137193005e-14 -6.67428445e-15 -2.241906738e-15)
5(-1.191907524e-13 -3.12999191e-14 -1.266776243e-14 -3.877738595e-15 -1.285302869e-15)
5(-8.021269967e-14 -1.982331075e-14 -7.732797594e-15 -2.315118065e-15 -7.480644041e-16)
5(-5.471360192e-14 -1.300451124e-14 -4.832014292e-15 -1.417775431e-15 -4.448901646e-16)
5(-3.819820966e-14 -8.657170885e-15 -3.05734724e-15 -8.837460662e-16 -2.702646828e-16)
5(-2.758372044e-14 -5.786504688e-15 -1.976130236e-15 -5.576962137e-16 -1.652378254e-16)
5(-2.048122379e-14 -3.951075178e-15 -1.291012797e-15 -3.510263826e-16 -1.026464927e-16)
5(-1.456830988e-14 -2.74565734e-15 -8.479538537e-16 -2.208813538e-16 -6.13296666e-17)
5(-1.079974471e-14 -1.912045376e-15 -5.533346002e-16 -1.367075281e-16 -3.226918568e-17)
5(-8.142103253e-15 -1.327258053e-15 -3.549636735e-16 -7.876125607e-17 -1.15909243e-17)
5(-6.358147348e-15 -9.281832911e-16 -2.195137453e-16 -3.529854989e-17 7.598739606e-18)
5(-5.252446532e-15 -6.348692282e-16 -1.229853653e-16 1.553203695e-18 2.943946441e-17)
5(-3.951361951e-15 -4.203740815e-16 -4.483503969e-17 4.079619411e-17 5.996759587e-17)
5(-3.046960889e-15 -2.542648913e-16 2.896411095e-17 9.201332435e-17 1.070359893e-16)
5(-2.457078011e-15 -1.098551756e-16 1.114555218e-16 1.664779373e-16 1.802582201e-16)
5(-1.833424231e-15 3.144863174e-17 2.206797513e-16 2.777037465e-16 2.902530474e-16)
5(-1.328160744e-15 1.992865149e-16 3.771501378e-16 4.420526925e-16 4.533870551e-16)
5(-8.936437836e-16 4.114643176e-16 5.978637167e-16 6.722584136e-16 6.630507653e-16)
5(-3.655509392e-16 6.873756384e-16 8.955768215e-16 9.643494793e-16 9.126541124e-16)
5(1.181171873e-16 1.041283414e-15 1.259563406e-15 1.290790411e-15 1.16612534e-15)
5(6.586340962e-16 1.449315078e-15 1.645390591e-15 1.582510113e-15 1.316408254e-15)
5(1.221702224e-15 1.8526399e-15 1.959552219e-15 1.72423481e-15 1.258052227e-15)
5(1.716375117e-15 2.148116285e-15 2.05294584e-15 1.585037291e-15 8.933448439e-16)
5(2.07484673e-15 2.175054301e-15 1.778542622e-15 1.060554153e-15 2.482884536e-16)
5(2.128979669e-15 1.781698576e-15 1.056428687e-15 1.66680394e-16 -5.42070715e-16)
5(1.725488561e-15 9.136618718e-16 -4.856043836e-17 -9.001663375e-16 -1.248042807e-15)
5(8.358828107e-16 -3.202815563e-16 -1.290770886e-15 -1.803991301e-15 -1.636870816e-15)
5(-4.20311016e-16 -1.623019379e-15 -2.297974936e-15 -2.239450376e-15 -1.627794947e-15)
5(-1.744913228e-15 -2.594480897e-15 -2.734623216e-15 -2.112410388e-15 -1.270546253e-15)
5(-2.711738696e-15 -2.940588681e-15 -2.495308042e-15 -1.587252176e-15 -7.855377043e-16)
5(-3.047784962e-15 -2.625826842e-15 -1.805345675e-15 -9.544984467e-16 -3.849089882e-16)
5(-2.711869976e-15 -1.875466266e-15 -1.039424065e-15 -4.49764955e-16 -1.440475974e-16)
5(-1.930181803e-15 -1.060613853e-15 -4.599535177e-16 -1.618496715e-16 -4.11180472e-17)
5(-1.102770522e-15 -4.637608343e-16 -1.504601115e-16 -4.266316987e-17 -8.506795952e-18)
5(-4.927850488e-16 -1.490669747e-16 -3.590076323e-17 -8.176841131e-18 -1.232164031e-18)
5(-1.594658158e-16 -3.257164569e-17 -5.825388801e-18 -1.011335138e-18 -1.149861002e-19)
5(-3.36411374e-17 -4.658678707e-18 -5.831300186e-19 -8.14666739e-20 -7.740336726e-21)
5(-4.419692167e-18 -3.727675531e-19 -3.142365193e-20 2.449440456e-21 -3.165904726e-22)
5(-3.151946635e-19 1.629541091e-18 -1.85273437e-20 1.202577602e-18 -8.111776783e-24)
5(-8.209440355e-21 4.5884584e-16 -4.392639159e-18 3.062672724e-16 -1.612856236e-25)
5(-3.564528998e-23 2.169467713e-13 -1.581977834e-15 1.245635367e-13 -2.1219618e-27)
5(-2.055459352e-25 2.153851933e-11 4.589362479e-18 1.590547572e-13 -5.634995771e-29)
5(-3.417177457e-28 4.264405953e-11 3.164384407e-15 6.959258266e-14 -1.018403669e-30)
)


60
(
5(1.265704925e-11 1.782269184e-11 -6.812731069e-12 -1.06618671e-12 -3.142361096e-12)
5(9.529550084e-12 1.371904308e-11 -3.96747784e-12 -5.540179872e-13 -2.088331667e-12)
5(5.396539588e-12 6.470639829e-12 1.346744849e-13 1.379232341e-13 -5.349304855e-13)
5(5.787881518e-12 1.957165914e-12 1.560339994e-12 1.79001004e-13 1.08439537e-13)
5(6.658819178e-12 -5.664497779e-13 7.780717216e-13 -4.444335603e-13 3.693955058e-14)
5(2.9650285e-12 -3.17102062e-12 -1.795356043e-12 -1.63487047e-12 -6.708962527e-13)
5(-4.73265971e-12 -6.258609307e-12 -4.81389289e-12 -3.045680915e-12 -1.582699682e-12)
5(-1.284233672e-11 -9.534245519e-12 -7.229945929e-12 -4.230194597e-12 -2.223139765e-12)
5(-1.933984348e-11 -1.228678617e-11 -8.717940145e-12 -4.805673577e-12 -2.410570351e-12)
5(-2.487871638e-11 -1.344762338e-11 -8.67870192e-12 -4.380035379e-12 -2.098804335e-12)
5(-2.594766262e-11 -1.13194155e-11 -6.732770881e-12 -2.999049372e-12 -1.366883094e-12)
5(-1.990625795e-11 -6.965448543e-12 -3.891580816e-12 -1.506969888e-12 -6.288320875e-13)
5(-1.170573775e-11 -3.495990817e-12 -1.763984509e-12 -6.067306723e-13 -2.332784499e-13)
5(-6.25485595e-12 -1.637868015e-12 -7.53929232e-13 -2.44683492e-13 -8.698162194e-14)
5(-3.461673129e-12 -8.197485116e-13 -3.519288931e-13 -1.124140934e-13 -3.86338157e-14)
5(-1.885974954e-12 -4.453013822e-13 -1.814880153e-13 -5.720100238e-14 -1.944187195e-14)
5(-1.112389067e-12 -2.558944294e-13 -1.000156657e-13 -3.079097563e-14 -1.031356843e-14)
5(-7.026015615e-13 -1.541976611e-13 -5.697867739e-14 -1.736360114e-14 -5.620143714e-15)
5(-4.516671261e-13 -9.538371037e-14 -3.371208717e-14 -1.016737029e-14 -3.243890626e-15)
5(-3.031617887e-13 -6.072288151e-14 -2.066136564e-14 -6.088208089e-15 -1.916610973e-15)
5(-2.118422782e-13 -3.998963059e-14 -1.29261118e-14 -3.749266962e-15 -1.166710302e-15)
5(-1.488431895e-13 -2.6826593e-14 -8.235938631e-15 -2.347795512e-15 -7.12542114e-16)
5(-1.045978833e-13 -1.827051615e-14 -5.35817174e-15 -1.499438083e-15 -4.552976355e-16)
5(-8.112166686e-14 -1.277358579e-14 -3.558708376e-15 -9.693252719e-16 -2.895173154e-16)
5(-6.18712516e-14 -8.93932619e-15 -2.373306151e-15 -6.269698008e-16 -1.778461676e-16)
5(-4.725026142e-14 -6.531658954e-15 -1.578130681e-15 -4.015975144e-16 -1.075002366e-16)
5(-3.847832565e-14 -4.851537178e-15 -1.053036548e-15 -2.501738135e-16 -5.776080873e-17)
5(-2.918049819e-14 -3.434264603e-15 -7.039554714e-16 -1.444554904e-16 -1.659774309e-17)
5(-2.294688684e-14 -2.566728942e-15 -4.564729723e-16 -6.42144821e-17 2.156184669e-17)
5(-1.873120827e-14 -1.99878246e-15 -2.669250537e-16 6.454593904e-18 6.583786383e-17)
5(-1.698801251e-14 -1.485662316e-15 -1.173491588e-16 8.161222466e-17 1.281148532e-16)
5(-1.409106955e-14 -1.064339133e-15 1.622122716e-17 1.762498873e-16 2.158430951e-16)
5(-1.115280785e-14 -7.226779508e-16 1.649076591e-16 3.07657904e-16 3.485092446e-16)
5(-8.715892306e-15 -3.972684378e-16 3.552131968e-16 4.966016187e-16 5.454145331e-16)
5(-6.853868344e-15 -8.077694385e-17 6.103242371e-16 7.620913681e-16 8.119241515e-16)
5(-5.609424329e-15 3.213410726e-16 9.518916253e-16 1.114160819e-15 1.152451535e-15)
5(-4.155079805e-15 7.891448074e-16 1.384014445e-15 1.540561458e-15 1.534414434e-15)
5(-2.605234447e-15 1.299270733e-15 1.878398828e-15 1.981134439e-15 1.853919282e-15)
5(-1.182464454e-15 1.863183493e-15 2.35104064e-15 2.318603184e-15 1.968678617e-15)
5(1.696413857e-16 2.379536061e-15 2.66251966e-15 2.39172082e-15 1.734636175e-15)
5(1.220225157e-15 2.674607781e-15 2.627379549e-15 2.018482372e-15 1.084219585e-15)
5(1.907739497e-15 2.578508056e-15 2.065517465e-15 1.105870899e-15 5.366428688e-17)
5(2.106487794e-15 1.935877283e-15 9.381084207e-16 -2.327311062e-16 -1.108059621e-15)
5(1.650067686e-15 7.243503152e-16 -6.226438855e-16 -1.672631721e-15 -2.049649759e-15)
5(5.805182772e-16 -8.458744837e-16 -2.200567295e-15 -2.764659718e-15 -2.506166676e-15)
5(-8.519726407e-16 -2.391488023e-15 -3.317783897e-15 -3.162561427e-15 -2.378399362e-15)
5(-2.298084168e-15 -3.452211629e-15 -3.654375341e-15 -2.845509598e-15 -1.814983176e-15)
5(-3.363630996e-15 -3.731152075e-15 -3.15184854e-15 -2.067954673e-15 -1.107481514e-15)
5(-3.70366848e-15 -3.239097536e-15 -2.171068893e-15 -1.199228773e-15 -5.341346264e-16)
5(-3.29857011e-15 -2.27433987e-15 -1.189499524e-15 -5.463493224e-16 -1.974939203e-16)
5(-2.410155986e-15 -1.277718341e-15 -5.054732677e-16 -1.912142262e-16 -5.353258002e-17)
5(-1.420463759e-15 -5.507450902e-16 -1.596480054e-16 -4.873096007e-17 -1.06972974e-17)
5(-6.66931416e-16 -1.72509866e-16 -3.533106062e-17 -8.676465205e-18 -1.641637654e-18)
5(-2.402595083e-16 -3.894503074e-17 -5.135628847e-18 -9.621128431e-19 -1.220095542e-19)
5(-5.8297352e-17 -5.650820826e-18 -4.305506403e-19 -5.546254179e-20 -8.174988616e-21)
5(-7.941491367e-18 1.474850717e-18 -2.629089266e-20 1.146871116e-18 -2.472589986e-22)
5(-8.174070363e-19 4.617481985e-16 -1.271461938e-18 2.214777792e-16 -2.36770592e-24)
5(-2.974391352e-20 1.682100801e-13 9.439756491e-19 5.999245057e-14 -3.373383144e-26)
5(-2.770605001e-22 -4.617740182e-16 1.271185983e-18 -2.214855153e-16 -4.689803134e-28)
5(-3.89181821e-25 -3.364239631e-13 -1.872859384e-18 -1.199871991e-13 -7.566309559e-30)
)


60
(
5(5.339363805e-11 4.120113131e-11 -5.211326248e-12 2.07199712e-13 -3.704070381e-12)
5(4.258350151e-11 3.288205714e-11 -1.768737566e-12 7.191757088e-13 -2.360460063e-12)
5(2.635438818e-11 1.715589825e-11 3.025477385e-12 1.284987851e-12 -3.552996705e-13)
5(2.423574804e-11 6.734171446e-12 4.233353229e-12 9.119574121e-13 4.541988366e-13)
5(2.707926265e-11 1.868831307e-12 2.030305912e-12 -4.781942662e-13 1.850234286e-13)
5(1.472232682e-11 -3.869528592e-12 -2.924831851e-12 -2.779465071e-12 -1.120720311e-12)
5(-5.718719383e-12 -1.166847696e-11 -8.718845655e-12 -5.45414622e-12 -2.736923237e-12)
5(-2.55942703e-11 -1.945919588e-11 -1.380721931e-11 -7.853947742e-12 -3.946632693e-12)
5(-4.577698953e-11 -2.688418768e-11 -1.741960867e-11 -9.290932344e-12 -4.530215229e-12)
5(-6.463638004e-11 -3.059261705e-11 -1.821489571e-11 -8.936905694e-12 -4.128218958e-12)
5(-7.072761654e-11 -2.706909897e-11 -1.482940072e-11 -6.549032798e-12 -2.816985883e-12)
5(-5.793947982e-11 -1.814481705e-11 -9.035677785e-12 -3.509928348e-12 -1.417188928e-12)
5(-3.75193357e-11 -9.452783631e-12 -4.25376804e-12 -1.472070008e-12 -5.54290614e-13)
5(-2.000550967e-11 -4.439439761e-12 -1.804059621e-12 -5.800071742e-13 -2.003255709e-13)
5(-1.077457247e-11 -2.19816858e-12 -8.23138232e-13 -2.582508285e-13 -8.648346663e-14)
5(-5.951240518e-12 -1.189892345e-12 -4.19256842e-13 -1.299072331e-13 -4.277790132e-14)
5(-3.506947326e-12 -6.854556794e-13 -2.294996413e-13 -7.009283671e-14 -2.291851565e-14)
5(-2.238977353e-12 -4.114156041e-13 -1.317940301e-13 -3.958226792e-14 -1.268023726e-14)
5(-1.537116224e-12 -2.580680141e-13 -7.859103399e-14 -2.312020955e-14 -7.351520233e-15)
5(-1.01516489e-12 -1.664352967e-13 -4.818972143e-14 -1.395072297e-14 -4.36711675e-15)
5(-7.099992104e-13 -1.111032794e-13 -3.04954537e-14 -8.637212781e-15 -2.751607823e-15)
5(-4.99115388e-13 -7.56809908e-14 -1.964770652e-14 -5.478000589e-15 -1.718582291e-15)
5(-3.612592286e-13 -5.238505886e-14 -1.292358193e-14 -3.549767751e-15 -1.082924694e-15)
5(-2.902754296e-13 -3.753576473e-14 -8.725203266e-15 -2.314347126e-15 -6.967310981e-16)
5(-2.183771136e-13 -2.778793581e-14 -5.930482035e-15 -1.523752744e-15 -4.507293131e-16)
5(-1.610924353e-13 -2.068434423e-14 -4.083576186e-15 -1.011784128e-15 -2.873281543e-16)
5(-1.323156469e-13 -1.550654168e-14 -2.891719929e-15 -6.601186978e-16 -1.716807047e-16)
5(-1.199176683e-13 -1.213260893e-14 -2.066901945e-15 -4.180132076e-16 -8.860466059e-17)
5(-9.72461314e-14 -9.907200918e-15 -1.447504331e-15 -2.490033645e-16 -2.073187802e-17)
5(-7.592972301e-14 -7.826254421e-15 -9.918121909e-16 -1.124555619e-16 5.013769733e-17)
5(-6.531534686e-14 -6.022839048e-15 -6.843680569e-16 1.027486526e-17 1.306339931e-16)
5(-5.621033395e-14 -5.159292894e-15 -4.314322025e-16 1.373532388e-16 2.361854492e-16)
5(-5.057765341e-14 -4.377526116e-15 -1.762212737e-16 2.946407373e-16 3.939492606e-16)
5(-4.154812574e-14 -3.390226949e-15 9.385301714e-17 5.051480655e-16 6.140278785e-16)
5(-3.400633623e-14 -2.547091299e-15 4.079655231e-16 7.95845082e-16 9.164229841e-16)
5(-2.814217307e-14 -1.726189039e-15 7.940022641e-16 1.187799308e-15 1.320335921e-15)
5(-2.218131566e-14 -9.675767558e-16 1.287281007e-15 1.677649313e-15 1.801631298e-15)
5(-1.775696334e-14 -1.395128871e-16 1.873409872e-15 2.229707356e-15 2.286008297e-15)
5(-1.265615406e-14 8.096127689e-16 2.488875133e-15 2.747881484e-15 2.616230929e-15)