/*--------------------------------*- C++ -*----------------------------------*\
| =========                 |                                                 |
| \\      /  F ield         | OpenFOAM: The Open Source CFD Toolbox           |
|  \\    /   O peration     | Version:  2.3.1                                 |
|   \\  /    A nd           | Web:      www.OpenFOAM.org                      |
|    \\/     M anipulation  |                                                 |
\*---------------------------------------------------------------------------*/
FoamFile
{
    version     2.0;
    format      ascii;
    class       dictionary;
    location    "constant";
    object      GRPSI30;
}
// * * * * * * * * * * * * * * * * * * * * * * * * * * * * * * * * * * * * * //

GRPSI30_table
60
(

60
(
5(0.05514206634 0.09742826323 0.06099308341 0.08436792995 0.06621914628)
5(0.09917467591 0.211153797 0.1121206201 0.1333935084 0.1178945075)
5(0.2564346373 0.1644725681 0.1444491189 0.1797067235 0.3088910918)
5(0.3675081762 0.1527210311 0.1259904396 0.2279630986 0.09688986846)
5(0.2937034219 0.1684222127 0.1439043397 0.1868713567 0.1691213069)
5(0.1845378221 0.1855528667 0.2290820492 0.1958018048 0.2251138425)
5(0.1600239124 0.1969398882 0.2229019355 0.2264607585 0.1814580997)
5(0.205209033 0.198999609 0.1920415767 0.2151423205 0.2563846421)
5(0.1794680249 0.1959152775 0.2020543749 0.2108416395 0.2232679544)
5(0.1870989357 0.1927953545 0.1853957784 0.2178291325 0.2165370292)
5(0.1850075295 0.1952679462 0.1892780249 0.2180444626 0.2181697644)
5(0.1877177008 0.1972545738 0.2037710646 0.2197257627 0.2295005697)
5(0.1976258149 0.1977160362 0.2090711562 0.2152005579 0.2262807654)
5(0.1885818065 0.1976064443 0.2085577505 0.2251734257 0.2323217982)
5(0.1986202831 0.2025535071 0.2136719678 0.2216375076 0.2338828284)
5(0.1970208623 0.2025869685 0.2122428494 0.22188321 0.2337009124)
5(0.1982882304 0.2047242475 0.2136863141 0.2227039593 0.2308009239)
5(0.2000986146 0.2064552113 0.2149556132 0.2208023924 0.2301324544)
5(0.2027103345 0.2072070295 0.2159640381 0.2225952942 0.2305409098)
5(0.2009352778 0.2043039839 0.2140357877 0.2179743887 0.2319181206)
5(0.2034367356 0.2085113505 0.2184138308 0.2200203338 0.2323397133)
5(0.2043268193 0.2100828033 0.2175817421 0.2308067364 0.2388102382)
5(0.2023367931 0.2095004826 0.2189487394 0.2243016612 0.2324934531)
5(0.2051686351 0.2067114077 0.2189584253 0.2239021704 0.2329096158)
5(0.2044654575 0.2068498769 0.2172756932 0.220461975 0.229578116)
5(0.2051153612 0.207690937 0.213484071 0.2158340308 0.22878745)
5(0.2047505261 0.2090004887 0.2165649471 0.213491373 0.2269269557)
5(0.2060717001 0.208676853 0.2133908253 0.2115844004 0.225544012)
5(0.2028121134 0.2065095649 0.2144373382 0.2117427572 0.2231878672)
5(0.2020416013 0.2031461783 0.2139783495 0.2140382721 0.22285598)
5(0.1991458969 0.1999979778 0.2094930482 0.2088341106 0.2199128318)
5(0.1976765087 0.1992481557 0.2102633314 0.2122414738 0.2289938981)
5(0.1965924688 0.1961026022 0.2065236234 0.2097184479 0.2159201782)
5(0.1936269338 0.1918064279 0.2007409187 0.2087271113 0.2255486767)
5(0.1901179514 0.189654446 0.1992543151 0.2061766442 0.2224600155)
5(0.1870452271 0.1826656676 0.1883178039 0.2021186867 0.2196630912)
5(0.183176116 0.1843778149 0.1972747055 0.2047773826 0.2162414322)
5(0.1794620614 0.1770391828 0.1935438121 0.1987023869 0.2414022841)
5(0.1738387665 0.173366306 0.1862382218 0.1986993247 0.2128270384)
5(0.1652452119 0.1675977263 0.1763677672 0.1923908693 0.3003579829)
5(0.1601477069 0.1659058596 0.1792211832 0.1931371312 0.2865187682)
5(0.156180452 0.1615782239 0.1777508243 0.2201770425 0.2745159096)
5(0.1502698116 0.1605582694 0.1789859197 0.2843669802 0.2587710739)
5(0.1428365233 0.1508490168 0.1530408832 0.271325019 0.2397325178)
5(0.1351862672 0.147848091 0.1577608431 0.2561501127 0.2284297351)
5(0.1316704925 0.1403177797 0.1664502936 0.2399390687 0.2144235101)
5(0.1267765198 0.143056495 0.2399332072 0.2239178482 0.1995702608)
5(0.1255551576 0.1628592969 0.2554766439 0.2091890221 0.1847004019)
5(0.1175274391 0.1512962694 0.2425302239 0.1942420591 0.1704311125)
5(0.1130909503 0.2391177508 0.2262860112 0.1796603453 0.1573075793)
5(0.1174411962 0.2246981822 0.2097606955 0.1645187118 0.1447749875)
5(0.1851843082 0.2066816708 0.1930242185 0.149993557 0.1332062992)
5(0.1990533116 0.1880668279 0.1762338531 0.1355290565 0.1219961747)
5(0.1830556255 0.169195604 0.1584114277 0.1216290456 0.1110459701)
5(0.1609821008 0.1496770995 0.1399375307 0.1068088283 0.1005247661)
5(0.1267192173 0.1278149881 0.1200277078 0.09299121782 0.09032403321)
5(0.07741888685 0.1019716406 0.09790769946 0.07729156231 0.08125306309)
5(0.02620777512 0.06201989622 0.06995174555 0.05917956703 0.07337834843)
5(-0.02980466895 0.004996117389 0.0195437693 0.09250179667 0.05796335951)
5(-0.1869987105 -0.1665603694 -0.2206325708 -0.2139932638 -0.1177887766)
)


60
(
5(0.04615177511 0.07348160729 0.05147873445 0.06796557437 0.05635529973)
5(0.0743178251 0.1334706164 0.08387186048 0.09723759845 0.08996195478)
5(0.1566889072 0.1115454279 0.1044316552 0.1231007146 0.1907940826)
5(0.2134392354 0.1062427472 0.09634631368 0.1481149884 0.08615086137)
5(0.1767064577 0.1143027588 0.1048141869 0.1274271102 0.12132327)
5(0.1214611029 0.1230165526 0.1465973276 0.131840779 0.1481139632)
5(0.109048299 0.1286838596 0.1436599759 0.147042949 0.126066555)
5(0.1319566017 0.1299324449 0.1284406822 0.1414541744 0.1638660569)
5(0.1195796129 0.1287695201 0.1339039044 0.1396780255 0.1476981716)
5(0.1234128797 0.1273159885 0.1257217452 0.1432177994 0.1447473835)
5(0.1226254357 0.1285679955 0.1278238294 0.1433579477 0.1454535107)
5(0.1238643144 0.1296211493 0.134961396 0.144206549 0.1508545113)
5(0.1289302574 0.1299162972 0.137611692 0.1419798695 0.1492295948)
5(0.1244873615 0.1299411161 0.1373894763 0.1468137299 0.1521498437)
5(0.1296062496 0.1325105361 0.1400432839 0.1450072985 0.1528231402)
5(0.1287160155 0.1324778284 0.1392134096 0.1450628827 0.152592457)
5(0.1294789584 0.1334670359 0.1398210834 0.1453168115 0.1509837643)
5(0.1303715024 0.1342285256 0.1402869751 0.144242929 0.1503794461)
5(0.1316058806 0.134565045 0.1406871186 0.1449030768 0.1503505656)
5(0.1306523704 0.1329664233 0.1395279601 0.142342585 0.1506595989)
5(0.1317128332 0.134921512 0.1414755354 0.1431187417 0.1506553981)
5(0.1321109051 0.1354955413 0.140787287 0.1480859877 0.1534843342)
5(0.1309321022 0.1349807707 0.141207844 0.1445350729 0.1498755609)
5(0.1320451825 0.1332654571 0.1408237484 0.1440338749 0.149680211)
5(0.1314062036 0.1329994847 0.1396454644 0.141836092 0.1475229074)
5(0.131372946 0.1329982643 0.1371216356 0.1389802522 0.1465518065)
5(0.1307698983 0.1332153199 0.1380965745 0.1371901399 0.1450962659)
5(0.1309111999 0.1325170377 0.135997343 0.1356938539 0.143838373)
5(0.128833933 0.1307582259 0.1358109535 0.1351137911 0.1419435102)
5(0.1277776807 0.12842625 0.1349041618 0.1355803781 0.1411191464)
5(0.1256913204 0.1262125921 0.1319179943 0.1322250415 0.1389176499)
5(0.1242177689 0.1250378537 0.131523416 0.133097478 0.1426974282)
5(0.1228701936 0.1225644487 0.1287778159 0.1310244635 0.1353898933)
5(0.1204904552 0.1195817196 0.1249848778 0.1296728444 0.1393997333)
5(0.1177965002 0.1175142716 0.1231955226 0.1274940555 0.1370240682)
5(0.1150004348 0.1129950227 0.1167659738 0.124475556 0.1348299467)
5(0.112032989 0.1127708117 0.1201729083 0.1249011934 0.1322169211)
5(0.108995963 0.1079282712 0.1171924991 0.1208667362 0.14389247)
5(0.1048943322 0.1049860466 0.1123940042 0.1197593226 0.1287162208)
5(0.09931114364 0.1007581656 0.1062526827 0.1155552464 0.1716811238)
5(0.09536740008 0.09878535908 0.1066764454 0.1148658627 0.1642777662)
5(0.09211043272 0.09520693018 0.1046546624 0.1274434081 0.1579014364)
5(0.08768598019 0.0933854618 0.104031773 0.1587006469 0.1497811795)
5(0.08253517842 0.08739181049 0.08977911287 0.1514823854 0.1398777851)
5(0.07729419847 0.08441151981 0.09091893471 0.1434193605 0.1339465567)
5(0.07415295706 0.07928168256 0.09419443186 0.1348641671 0.1266694815)
5(0.07026152931 0.07934327583 0.1300918982 0.1264185412 0.1190063059)
5(0.06818071392 0.08802495183 0.137226121 0.1186392477 0.1113341143)
5(0.06257471698 0.08100956001 0.1302353664 0.110769537 0.1037923524)
5(0.05892190064 0.1240330867 0.1217417991 0.1030466466 0.09670274869)
5(0.05962745133 0.1162223843 0.1131978471 0.09503727362 0.08980336576)
5(0.09228454647 0.1068033877 0.1046583892 0.08714992214 0.08298393022)
5(0.0981965904 0.09715468157 0.09597045923 0.07916451815 0.07628940097)
5(0.08960404972 0.08764609231 0.08672208732 0.07132477949 0.06914382352)
5(0.07838897642 0.07755535887 0.07698216678 0.06271227677 0.06220058996)
5(0.06113612372 0.06627523069 0.06633426079 0.05434180428 0.05507355839)
5(0.03620422764 0.05281086452 0.05407435716 0.04484832551 0.0483509551)
5(0.009521688202 0.03147607122 0.03844711328 0.03379433134 0.04192746969)
5(-0.02288888235 -0.0008040644616 0.009855414623 0.04762457321 0.03129284427)
5(-0.1188643576 -0.1058300412 -0.1299466374 -0.1322180685 -0.0766164698)
)


60
(
5(0.03296962095 0.04260811603 0.03732184302 0.04513451395 0.04159819088)
5(0.04248419849 0.04732462933 0.04780372573 0.05228082868 0.05352659755)
5(0.04791038438 0.04949710668 0.05425369876 0.05625817637 0.06127711902)
5(0.04981214088 0.0503769073 0.05600874453 0.05756799301 0.06341008182)
5(0.04991009323 0.05069263475 0.05522867932 0.05738048879 0.06195831752)
5(0.04906183468 0.05088985929 0.05414273607 0.0572960536 0.06027017233)
5(0.04890737978 0.05101982556 0.0543324161 0.05713067906 0.05994463331)
5(0.04940594121 0.05133587943 0.05471541806 0.05729200698 0.06045210423)
5(0.04998325378 0.05176924664 0.05533263067 0.05776695745 0.06104725628)
5(0.05009363316 0.05196654684 0.05560113353 0.05786942112 0.06140849722)
5(0.05046781859 0.05199692766 0.05571249935 0.05784035108 0.06121273974)
5(0.05036140817 0.05211711683 0.05555980576 0.05778654635 0.06086559081)
5(0.05039645033 0.05212525366 0.05548737977 0.05776350931 0.06074391279)
5(0.05051310625 0.05216183137 0.05548316921 0.05754609259 0.06048047261)
5(0.05061969403 0.05220106089 0.0554961815 0.05741141515 0.06029427182)
5(0.05055965479 0.05210158582 0.05534508434 0.05720248272 0.05999525536)
5(0.0505393468 0.05197597889 0.05508337164 0.05689481985 0.05964170941)
5(0.0504993549 0.05174693343 0.05476882497 0.05652544288 0.05921417062)
5(0.05028900137 0.05158953795 0.05446037322 0.05611953738 0.05870077735)
5(0.0501202345 0.05128114726 0.05405282131 0.05558998583 0.05806808653)
5(0.0498462142 0.05089522373 0.05360885197 0.055134092 0.05751610254)
5(0.04950318611 0.05049216746 0.05311464689 0.05442783193 0.05679934094)
5(0.04911997684 0.05000308839 0.05252207904 0.0538085493 0.05601896658)
5(0.04863797083 0.04937314461 0.05173678226 0.05319980663 0.05523437313)
5(0.04810206173 0.04870130305 0.0510794943 0.05234422691 0.05441683431)
5(0.04738685874 0.04797115569 0.05008630881 0.0513724009 0.05343699065)
5(0.04661399639 0.04719231959 0.04913901647 0.05033768964 0.05239856853)
5(0.04576360367 0.04617927726 0.04811762364 0.04927222012 0.05141408882)
5(0.04481006678 0.04507653449 0.04693469611 0.0481282907 0.05009698377)
5(0.0436884445 0.04393555749 0.04570204323 0.04689749876 0.04900655423)
5(0.04248286182 0.04268683903 0.04435784693 0.0455759489 0.04759977236)
5(0.04115561131 0.04131938748 0.04292517344 0.04414995732 0.04628141375)
5(0.03971102681 0.03983460287 0.04142953401 0.04266837483 0.04487194124)
5(0.03811506205 0.03825349389 0.03981878306 0.04113035441 0.04346139889)
5(0.0364539343 0.03654777597 0.03808003162 0.03951290184 0.04186164167)
5(0.03457280968 0.03475855603 0.03628387871 0.03779259935 0.0403858933)
5(0.03271570122 0.03289499147 0.03434721682 0.03611970999 0.03872518706)
5(0.03061820941 0.03088694125 0.03242339753 0.03426909431 0.0369257982)
5(0.02846570889 0.02892555888 0.0304053019 0.03226084501 0.03525810242)
5(0.02628949317 0.02675063008 0.02832714064 0.03031279466 0.03364388676)
5(0.0240393759 0.02469789211 0.02635042566 0.02834563529 0.03242678307)
5(0.02180077426 0.02231246642 0.02407937348 0.0264233837 0.03135288731)
5(0.01937921481 0.02004914476 0.02179713928 0.02466903492 0.03037608858)
5(0.01697852655 0.01792072903 0.01947951488 0.02308797947 0.02929601803)
5(0.01452904597 0.0154790955 0.0172644666 0.02172043991 0.0282352129)
5(0.01206636066 0.01301178235 0.01506998741 0.02040518326 0.02725348261)
5(0.009389614645 0.01051623816 0.01320591554 0.01911622814 0.02633684778)
5(0.00662381374 0.008089366069 0.0115763968 0.01786589076 0.02541679763)
5(0.003436604254 0.00565704994 0.01015642609 0.01673683491 0.02445637022)
5(0.0004010819191 0.00345312307 0.008911062182 0.01565090872 0.0233253498)
5(-0.002924518901 0.001585389063 0.007859127523 0.01459651619 0.02208799538)
5(-0.006158307169 -6.294758605e-05 0.007030224633 0.01348494593 0.02053020083)
5(-0.009225751798 -0.001473345426 0.006218724048 0.01226557088 0.01885052878)
5(-0.01178140524 -0.002585602386 0.005446746459 0.0109204113 0.0165410164)
5(-0.01379628986 -0.003807660744 0.004564585013 0.009209117202 0.01406081602)
5(-0.01554928874 -0.004963842611 0.003459226182 0.00718041927 0.01119955067)
5(-0.01731466934 -0.006545199541 0.001750653011 0.004851417728 0.007930566672)
5(-0.0202989614 -0.009582092142 -0.001085247586 0.001586634796 0.004111851949)
5(-0.02744990932 -0.01637706308 -0.007520215917 -0.003738028707 -0.001009278201)
5(-0.04996339099 -0.0680057431 -0.0392185951 -0.0314474198 -0.04528877643)
)


60
(
5(0.02622358003 0.03199666663 0.02986918572 0.03508091968 0.03368032541)
5(0.03175503525 0.03466740819 0.03587784261 0.03895365954 0.04052362235)
5(0.03450820373 0.03593148835 0.03916885038 0.04102278334 0.04439955147)
5(0.03556468459 0.03639850958 0.0401263208 0.04169784636 0.04557331908)
5(0.03551045495 0.0365777537 0.03973123663 0.04163120272 0.0448651439)
5(0.03524821715 0.03670953753 0.03929446064 0.0415380334 0.04409396485)
5(0.03523215348 0.03689732275 0.03933082718 0.04150603851 0.04390317231)
5(0.03548912476 0.03705027877 0.03958239684 0.04167343302 0.04415153531)
5(0.03569479446 0.03717961036 0.0398244569 0.04177433331 0.04442930593)
5(0.03583582983 0.03723072318 0.03997382449 0.04181312977 0.0443359334)
5(0.03595973939 0.03728907952 0.03990915687 0.04171001666 0.04419028281)
5(0.03596129015 0.03729772809 0.03981464569 0.04162399397 0.0439908354)
5(0.03589705992 0.03720146506 0.03969976733 0.04144967387 0.04375525523)
5(0.03582120886 0.03713597654 0.03956989126 0.04128291858 0.04354010252)
5(0.03580832624 0.03702927804 0.03939257031 0.0410853004 0.04326270978)
5(0.03580946231 0.03690713802 0.03918732415 0.04083095087 0.04295712206)
5(0.03560410283 0.03673755155 0.03893657873 0.04049212501 0.04259065031)
5(0.0354421387 0.03650942521 0.03868960439 0.0400696532 0.04223643257)
5(0.03523589571 0.03624186958 0.03827922598 0.03974154895 0.04177567442)
5(0.03496714413 0.03591761243 0.03791419462 0.03926617786 0.04126799355)
5(0.03473038165 0.03552540438 0.03748151533 0.03877854548 0.04070182897)
5(0.0343253949 0.03509716244 0.03702136905 0.03830850368 0.0401344979)
5(0.03392886329 0.03460444866 0.03642705332 0.03767127537 0.03952626202)
5(0.0334382644 0.03406631297 0.03581783373 0.03705406405 0.0388334513)
5(0.03295227768 0.03348286863 0.03515796217 0.03638719821 0.03814010392)
5(0.03232308559 0.03277689912 0.03444584968 0.03563846875 0.03740981883)
5(0.03167931108 0.03218523067 0.03370303171 0.03485061735 0.03658614346)
5(0.03100734023 0.03134595727 0.0328235977 0.03394338464 0.03575791297)
5(0.03012183474 0.0305243682 0.03195745549 0.03309164686 0.03479764931)
5(0.02926467023 0.0296293557 0.03097141265 0.03208489497 0.03386344687)
5(0.02827344854 0.02860290146 0.02990034971 0.03106698028 0.03277770279)
5(0.02723968556 0.02759425352 0.02883141585 0.02998412418 0.03162750672)
5(0.02612870589 0.02654552947 0.02762773931 0.0288189065 0.03056558505)
5(0.02493674411 0.02526550032 0.026387801 0.0275883932 0.02937241083)
5(0.02366317128 0.02402004895 0.02515233615 0.02631605479 0.02810461526)
5(0.02246992152 0.02269678315 0.02374766347 0.02499248794 0.02676154666)
5(0.02107040911 0.02134193833 0.02230034897 0.02358223995 0.02534982191)
5(0.01957285832 0.01992283453 0.0208053923 0.02206715045 0.02377876541)
5(0.01811044724 0.01846796922 0.01926355672 0.0204769344 0.02223452505)
5(0.01661088459 0.01702601159 0.01771952605 0.01886760052 0.0207399863)
5(0.01513148651 0.01546649542 0.01603874052 0.01717914199 0.01918950958)
5(0.01353078369 0.01384376979 0.01433499413 0.01541436498 0.01770801811)
5(0.01189272936 0.01221749157 0.01253154944 0.01368648142 0.01619714848)
5(0.01020592192 0.0105096919 0.0106944677 0.01196104736 0.01465476257)
5(0.008369789931 0.008781443342 0.008803868937 0.01018561462 0.0130232853)
5(0.006428749653 0.006845658617 0.006841981293 0.008402319972 0.01141516687)
5(0.004252612461 0.004678084327 0.004854438964 0.006599445729 0.009820870732)
5(0.001816603962 0.002369138998 0.002826104285 0.004755149978 0.00831117329)
5(-0.001027565338 -0.0001202802555 0.0007927523488 0.003045572692 0.00690645177)
5(-0.004259389551 -0.002931849485 -0.001232887985 0.001447674276 0.00555528665)
5(-0.007909437796 -0.005867592397 -0.003216452544 -3.615180798e-05 0.004282887347)
5(-0.011937549 -0.008982881129 -0.005106353467 -0.001348268422 0.003139779872)
5(-0.01637969228 -0.01207114494 -0.006761575462 -0.002513234055 0.002017134356)
5(-0.02108621255 -0.01516338416 -0.008214055349 -0.003493102165 0.001008712754)
5(-0.02592519003 -0.0180625922 -0.009536626497 -0.004483069513 -0.0002334340535)
5(-0.03052182461 -0.02088753235 -0.01087794191 -0.005544439252 -0.001554982819)
5(-0.03507967897 -0.02388526314 -0.01245995815 -0.006966157377 -0.003230504109)
5(-0.03984878442 -0.02763314508 -0.01539891031 -0.009199904146 -0.005354354596)
5(-0.04527854015 -0.03377180067 -0.02178189864 -0.01402108656 -0.009313042461)
5(-0.05440453871 -0.06465414099 -0.04748039299 -0.03117506572 -0.05689781416)
)


60
(
5(0.02196159892 0.02600076849 0.02513522961 0.02904369189 0.02857208782)
5(0.02565393416 0.02785690268 0.02915009478 0.03159131619 0.03315795817)
5(0.02747983456 0.02870441225 0.03123172195 0.03293050542 0.03562580072)
5(0.02809768778 0.02902182381 0.03183286764 0.03336343433 0.03626571716)
5(0.02810703291 0.02915515792 0.03166288396 0.03333228428 0.03592504278)
5(0.02796254342 0.02925092065 0.0314075253 0.03321589761 0.03545301024)
5(0.02797617666 0.02931221121 0.03137292206 0.03322267345 0.03530356576)
5(0.02808656733 0.02941351024 0.0315189631 0.03330125952 0.03540024193)
5(0.02826101449 0.0294837857 0.03161675215 0.03331504929 0.0354911023)
5(0.02833399171 0.02948865193 0.03166846325 0.03325678642 0.03542183306)
5(0.02831592691 0.02946028881 0.0315844947 0.03316510973 0.03526629888)
5(0.02830782449 0.02940210156 0.03149194686 0.03305047885 0.03505591863)
5(0.02825912543 0.02932033306 0.03135207694 0.03286197418 0.03480595573)
5(0.02818425377 0.02921513893 0.03120195819 0.03265272623 0.03464849296)
5(0.02804321279 0.02909889847 0.03100222394 0.03244715753 0.03432309946)
5(0.02792582029 0.02891566564 0.03075576402 0.03221294373 0.03406228699)
5(0.02780899935 0.02872350466 0.03050031914 0.03187254076 0.03369769752)
5(0.02755648432 0.02848162575 0.03022394571 0.03160416638 0.03333620781)
5(0.02739165586 0.02819457937 0.02989048415 0.03120431625 0.03296066974)
5(0.02708574357 0.02789215577 0.02955374401 0.03083557132 0.03250883948)
5(0.02678269249 0.02756066186 0.0291166212 0.03036917278 0.03205718456)
5(0.02651353714 0.02713287488 0.02870123667 0.02992815179 0.03160021929)
5(0.02611467641 0.02672006606 0.02820320549 0.02939587881 0.03107012427)
5(0.02561167192 0.02626660465 0.02774441802 0.02884383494 0.03052113593)
5(0.0251611623 0.02578966747 0.02714790898 0.02828150717 0.02984515702)
5(0.02463846568 0.0252081263 0.02652145903 0.02768645933 0.02925836133)
5(0.02404470976 0.02460285654 0.02587268319 0.02703616214 0.02861821367)
5(0.02343718624 0.02395434942 0.0251953455 0.02632600971 0.02785349862)
5(0.02278485061 0.02327616441 0.02447527548 0.02562484008 0.02717428669)
5(0.02205462298 0.02256607346 0.02368438067 0.0248331445 0.0263435895)
5(0.02126518396 0.02177838325 0.02285773509 0.02400948358 0.02553916671)
5(0.0204392596 0.02095370994 0.02207867265 0.02314925184 0.02461614758)
5(0.01958139226 0.02011072632 0.02110614897 0.02225046201 0.02370561427)
5(0.01870744105 0.01922712878 0.02015368559 0.02128490823 0.02267267076)
5(0.01775989029 0.01830114456 0.01916319507 0.02028252589 0.02168884015)
5(0.01677140211 0.01731571126 0.01813602008 0.01919379874 0.02050939138)
5(0.01576566732 0.01632218112 0.01712542111 0.0180543041 0.01932988353)
5(0.01473833994 0.01530547612 0.01597845421 0.016896013 0.01810178251)
5(0.01369329576 0.01427368331 0.01482453868 0.01567887348 0.01670016464)
5(0.01262195432 0.01322274945 0.01364271513 0.01435540813 0.01536651947)
5(0.01153125902 0.01214306119 0.01241888079 0.01297385346 0.01394524247)
5(0.01038873589 0.01103508313 0.01116703597 0.01158943536 0.01243584566)
5(0.009181198579 0.009879344078 0.009884313385 0.01011895018 0.01089630163)
5(0.00791088326 0.008635046779 0.008491783671 0.008580868599 0.009206733587)
5(0.006549992822 0.007305077698 0.006973999151 0.006953624306 0.007481585359)
5(0.005008604644 0.005819466044 0.005394316973 0.005217962369 0.005668568464)
5(0.003331016533 0.004065232749 0.00360899295 0.003356210881 0.003773090992)
5(0.00124949392 0.001978427068 0.001564232048 0.001388805736 0.001961083245)
5(-0.0009765918584 -0.0004869243015 -0.0006410352603 -0.000680949239 9.27732468e-05)
5(-0.003737507178 -0.003386908228 -0.003180983637 -0.002788961883 -0.001633282301)
5(-0.006963197743 -0.006774849096 -0.005990006016 -0.004872663888 -0.003303824992)
5(-0.01067859379 -0.01057656145 -0.008992474383 -0.006894132816 -0.004716954675)
5(-0.0151003467 -0.0150534987 -0.01208460475 -0.008756903463 -0.005965705686)
5(-0.0202678695 -0.01985973123 -0.01522428055 -0.01043103304 -0.007030625876)
5(-0.02605258258 -0.02479886826 -0.01829155005 -0.01196686886 -0.008037581068)
5(-0.03233587816 -0.03007114455 -0.02135248838 -0.01347749677 -0.009112302263)
5(-0.0389413872 -0.03536433049 -0.02472989802 -0.01547117194 -0.01029888063)
5(-0.04552586263 -0.04082667542 -0.02916175916 -0.01835832856 -0.01229568385)
5(-0.051527582 -0.04689189339 -0.03686209272 -0.02484265179 -0.01671875746)
5(-0.05756873786 -0.04982420229 -0.04730477507 -0.04794074341 -0.04321019435)
)


60
(
5(0.01899543929 0.02207680364 0.02179614451 0.02492198907 0.02490005448)
5(0.02169144578 0.02344667903 0.02470765213 0.02677696327 0.02824932633)
5(0.02299536349 0.0240502837 0.02617890585 0.02771268805 0.02999365903)
5(0.0234057971 0.02430622579 0.02660470065 0.02803017039 0.0304541555)
5(0.02340794675 0.02440547601 0.02648590913 0.02799513183 0.03018863131)
5(0.02330301072 0.024430193 0.02630463984 0.02791437124 0.02983893912)
5(0.02332574647 0.02447888481 0.02625219656 0.02788533333 0.02974942679)
5(0.0233823295 0.02452330753 0.02633686585 0.02789370611 0.0297343017)
5(0.02347951436 0.02452830294 0.02636480035 0.02787635444 0.02977154345)
5(0.02348218816 0.02454293377 0.026369708 0.02781005204 0.02967164997)
5(0.02345239886 0.02445143603 0.02625083913 0.0276844682 0.02951403808)
5(0.02338771109 0.02439820973 0.02614481289 0.02752115597 0.02930301514)
5(0.02330852582 0.02429451539 0.02596120749 0.02735604278 0.02909525179)
5(0.02326442649 0.02416533923 0.02582771938 0.02715371147 0.0288587666)
5(0.02309818186 0.02400055581 0.0256122126 0.02693742624 0.02862906303)
5(0.02293638594 0.02381738311 0.02543609395 0.02669336718 0.02837189724)
5(0.02276815751 0.02361096957 0.02514558104 0.02641136166 0.02805011148)
5(0.0225841579 0.02337755343 0.02484283694 0.02617479317 0.02771630177)
5(0.02232419346 0.0231054424 0.0245584478 0.02577490487 0.02736433915)
5(0.02208479671 0.02281452563 0.0242140484 0.02544461958 0.02698382412)
5(0.02177883359 0.02251065166 0.02385417867 0.02506146414 0.02658985385)
5(0.02143421888 0.02212221952 0.02345520784 0.02463412354 0.02618197364)
5(0.02111726439 0.02175414403 0.02305104824 0.02422518265 0.02572584441)
5(0.02070348312 0.02134623721 0.02259468095 0.02376879836 0.02526762216)
5(0.0202679911 0.02089735844 0.02209414144 0.02328720151 0.0247469198)
5(0.01983194977 0.02048465767 0.02161048056 0.0227536202 0.02425399945)
5(0.01928119297 0.01991567478 0.02107409259 0.02221723233 0.02365452264)
5(0.0187592261 0.01937100173 0.02049385983 0.02167848698 0.02306349135)
5(0.01822066351 0.0188245877 0.01989575111 0.02107462647 0.02248378988)
5(0.01760561107 0.01824358281 0.01927243674 0.02043814035 0.0218233947)
5(0.016947655 0.01758447911 0.01862187749 0.01979497475 0.02112898889)
5(0.01628618393 0.01692044195 0.01795691066 0.0191403338 0.02048982986)
5(0.01559766886 0.01623976532 0.01726757836 0.01840964238 0.01965949193)
5(0.01484507265 0.01556427839 0.01651108789 0.01766205794 0.01886608137)
5(0.01409966012 0.01484869916 0.01574426746 0.01688180491 0.01802415336)
5(0.01333861135 0.01411795331 0.01496121618 0.01604131127 0.01713678796)
5(0.01254924584 0.01338559328 0.01420018285 0.01517282217 0.01615314705)
5(0.01174249516 0.01263460494 0.01338224513 0.01430087214 0.0151585202)
5(0.01091713396 0.01186730933 0.01255662057 0.01338774771 0.014096579)
5(0.01008008822 0.01109415218 0.01170727919 0.01238096178 0.01292472766)
5(0.009208005752 0.01030550541 0.01084604448 0.0113685352 0.01178665453)
5(0.008314622618 0.009497540142 0.009956088355 0.01032043293 0.01055026939)
5(0.00738832883 0.008653767907 0.009031366401 0.009209144608 0.00914168962)
5(0.006341963707 0.007742607337 0.008042574203 0.008006060805 0.007663644821)
5(0.005249131191 0.006714661223 0.006985875766 0.006686120683 0.006006253776)
5(0.004017261741 0.00553063905 0.00569718791 0.005214818362 0.004266064871)
5(0.002658584395 0.004107621021 0.004189062196 0.003536931441 0.002376689194)
5(0.001124252161 0.002332019226 0.002375212324 0.001687939575 0.0003863501529)
5(-0.000627864174 0.0002057925887 0.0001824786829 -0.0004462147569 -0.001678204197)
5(-0.00263777229 -0.002405925876 -0.002538361652 -0.002863443057 -0.003815393516)
5(-0.005062674225 -0.00548962974 -0.005763632932 -0.005517342013 -0.005956412765)
5(-0.008043860613 -0.00914967611 -0.009538500769 -0.008347924264 -0.008027703821)
5(-0.01139999188 -0.01362058248 -0.01387675468 -0.01144364546 -0.009892005996)
5(-0.01545724308 -0.01868977792 -0.01882714824 -0.01447494148 -0.0117076421)
5(-0.02026868839 -0.02454863879 -0.02393044539 -0.01769960061 -0.01331227197)
5(-0.02612653679 -0.03110305157 -0.02942893401 -0.02103502717 -0.01497495341)
5(-0.03253114934 -0.03819658211 -0.03544684331 -0.02484037978 -0.01692182333)
5(-0.03937372761 -0.0455042772 -0.04187519342 -0.02985628579 -0.02002381907)
5(-0.04599677858 -0.05245571528 -0.05031154379 -0.03804062048 -0.02634902623)
5(-0.05004213322 -0.05243874634 -0.05222905898 -0.06136904576 -0.05792478069)
)


60
(
5(0.01676893875 0.01922843734 0.01926806353 0.02191036698 0.02208548262)
5(0.01883085882 0.02032575353 0.02152033803 0.02331679294 0.02470400717)
5(0.01978228787 0.02079773883 0.02261153129 0.02401429793 0.02599597733)
5(0.02011108133 0.02096195429 0.02293176564 0.02424093812 0.02634877499)
5(0.02012596785 0.02099563817 0.02282824074 0.02421476954 0.02613741241)
5(0.02003073776 0.02104043875 0.02264345476 0.02411778988 0.02585091093)
5(0.01999670065 0.02105267271 0.02263481484 0.02408972373 0.02575389719)
5(0.02004901701 0.02104928373 0.02262452622 0.02405213247 0.02572162773)
5(0.02006691363 0.02104703118 0.02266533117 0.02402553115 0.02570809778)
5(0.02006864364 0.02098382641 0.02257441428 0.02392094971 0.02560362239)
5(0.02000488976 0.02092998221 0.02250881761 0.02381553953 0.0254427067)
5(0.01992997762 0.02081982193 0.02233422349 0.02363272054 0.02525451756)
5(0.01982850491 0.02071014209 0.02220301505 0.0234715823 0.02504407584)
5(0.0197146146 0.02056983301 0.02200659374 0.0232617029 0.02482725457)
5(0.01957314832 0.02041059327 0.0218329484 0.02306189451 0.02459456545)
5(0.01943975874 0.02022141378 0.02159748128 0.02280633655 0.0243377303)
5(0.01922572938 0.02000584645 0.02136300519 0.02256823191 0.02406905542)
5(0.01906098253 0.0197798393 0.02108916333 0.02226591878 0.02377074055)
5(0.01877667693 0.01953276973 0.02080245832 0.02198932477 0.02344894189)
5(0.0185461993 0.01923477062 0.02048016201 0.02165471868 0.02313810148)
5(0.01825161387 0.01895785377 0.02015932257 0.02132831965 0.0227619218)
5(0.01791415191 0.01859662403 0.01977150256 0.02096504117 0.02243257714)
5(0.01761362302 0.01824809474 0.01941524136 0.02060456848 0.02200444749)
5(0.01722616759 0.01788112724 0.01902234433 0.02020319824 0.02163409398)
5(0.01683980732 0.01746349021 0.01857613306 0.01979520064 0.02121333193)
5(0.01639854988 0.01705217018 0.0181657364 0.0193661634 0.02076316853)
5(0.01596126327 0.01658335213 0.01769288654 0.0188971555 0.02032828241)
5(0.01550915068 0.01612156787 0.01720042925 0.01845471324 0.01985793249)
5(0.01494025374 0.01563488036 0.01671134387 0.01795898842 0.01935951339)
5(0.01440947838 0.01508473352 0.01618470347 0.0174319465 0.01882502479)
5(0.01390696197 0.01458285279 0.01566331105 0.01694520999 0.01828411361)
5(0.01332151459 0.0140616897 0.01511422687 0.01641049074 0.01774612589)
5(0.012693751 0.01347118383 0.01452476244 0.01584950551 0.01715083004)
5(0.01204419028 0.01288290513 0.01395988458 0.01528301686 0.01653462619)
5(0.01140991549 0.01231075637 0.01340984437 0.01466133887 0.01590456046)
5(0.01077029425 0.01175433682 0.01279290397 0.01405445541 0.01521710824)
5(0.01010536669 0.01117477677 0.01217296277 0.01345517435 0.01446453635)
5(0.009408915949 0.01057481107 0.01157182532 0.01279880481 0.01368091969)
5(0.008706902882 0.009973797735 0.01097923857 0.01211050726 0.01290627038)
5(0.007955693165 0.009372037348 0.01039223804 0.01144098528 0.01208584887)
5(0.007194694261 0.008773209453 0.009801490001 0.01076336746 0.01117532841)
5(0.006393989206 0.008145640699 0.009187587467 0.0100281941 0.01025453731)
5(0.005563094962 0.007459869139 0.008521784598 0.009255064202 0.009159690408)