/*--------------------------------*- C++ -*----------------------------------*\
| =========                 |                                                 |
| \\      /  F ield         | OpenFOAM: The Open Source CFD Toolbox           |
|  \\    /   O peration     | Version:  2.3.1                                 |
|   \\  /    A nd           | Web:      www.OpenFOAM.org                      |
|    \\/     M anipulation  |                                                 |
\*---------------------------------------------------------------------------*/
FoamFile
{
    version     2.0;
    format      ascii;
    class       dictionary;
    location    "constant";
    object      GRPSI63;
}
// * * * * * * * * * * * * * * * * * * * * * * * * * * * * * * * * * * * * * //

GRPSI63_table
60
(

60
(
5(-5.817788602e-11 6.871383024e-11 6.180971559e-11 3.059505071e-10 6.838871295e-10)
5(-3.458901911e-11 1.516009538e-11 2.508034308e-11 1.804062009e-11 5.082976388e-11)
5(-3.401647072e-09 -1.698476262e-09 -3.146810904e-14 -9.21420365e-12 -1.367092418e-11)
5(-1.035394782e-08 -5.177440652e-09 -8.938961703e-12 -4.540445695e-12 7.863548137e-12)
5(-1.265348139e-08 -6.322857577e-09 -1.734441005e-12 -1.037711306e-11 -9.519105855e-12)
5(-9.971419627e-09 -4.989685428e-09 3.087881064e-12 2.59319685e-12 -8.940597605e-12)
5(-7.348374722e-12 -2.632989324e-12 -1.680010735e-13 2.044240334e-11 4.33032049e-11)
5(9.010690062e-12 1.338010877e-11 3.137720111e-12 -1.352121147e-11 -1.556833568e-11)
5(-1.203759579e-08 -6.010824389e-09 3.070436298e-12 -7.679082699e-12 -5.552028667e-12)
5(-1.997309639e-08 -9.988686091e-09 -1.967226428e-11 -1.550456467e-11 4.059603884e-12)
5(-2.198417649e-08 -1.100992308e-08 -3.163645773e-11 -1.101663058e-11 5.569971665e-12)
5(-7.42462299e-09 -3.703151798e-09 3.827789137e-12 1.491764379e-12 1.364734328e-11)
5(3.195355306e-11 2.190078817e-11 1.407453117e-11 1.60621274e-11 1.582321575e-11)
5(2.915006665e-11 2.327423802e-11 2.127889798e-12 9.83986071e-12 3.282235121e-11)
5(4.544397082e-11 3.277385748e-11 1.915702622e-11 1.333717791e-11 8.464047518e-12)
5(-5.109717769e-10 -2.864112622e-10 -3.806274236e-11 -1.261446666e-11 -1.095419611e-11)
5(-4.720228508e-10 -2.307126137e-10 -2.690885696e-11 -1.618489238e-11 3.20455526e-11)
5(-7.188577137e-11 -5.101653234e-11 6.115281946e-12 4.08281367e-11 3.927841621e-11)
5(1.855930377e-10 1.123807179e-10 4.11822214e-11 6.128601453e-11 7.937598445e-11)
5(2.0762127e-10 1.561578061e-10 1.021951261e-10 2.26664014e-11 -5.436310724e-11)
5(2.45959727e-10 1.790671968e-10 1.239362275e-10 9.352624997e-12 -1.169925385e-10)
5(3.07584105e-10 2.727666337e-10 1.844110117e-11 -1.497214825e-10 -9.837600493e-11)
5(4.059212036e-10 3.090264212e-10 1.021801505e-10 -1.041734981e-10 -2.005756585e-10)
5(7.52017825e-10 4.33538102e-10 3.968026925e-11 -2.175038162e-10 -3.99309792e-10)
5(1.271460346e-09 5.885826425e-10 -3.197516322e-11 -3.383607487e-10 -7.070662323e-10)
5(2.340777996e-09 1.022073848e-09 -1.28284872e-10 -7.353310593e-10 -1.510722674e-09)
5(2.634004969e-09 1.243544632e-09 2.727321198e-10 -8.675820269e-10 -2.427543999e-09)
5(2.756078987e-09 2.06765259e-09 9.998647548e-10 -1.598802717e-09 -3.818108751e-09)
5(3.864143855e-09 2.435922141e-09 8.795885388e-10 -2.123593811e-09 -4.998664273e-09)
5(6.359040578e-09 3.275159427e-09 -1.567973177e-10 -3.468303005e-09 -6.431733098e-09)
5(9.227885194e-09 4.916228984e-09 -3.294900738e-10 -6.031193219e-09 -1.079883352e-08)
5(1.185776582e-08 5.319381093e-09 -3.134691664e-09 -1.118670712e-08 -1.732303455e-08)
5(1.743938596e-08 7.501190578e-09 -6.515569883e-09 -1.409997377e-08 -1.760581257e-08)
5(2.387734824e-08 1.024195967e-08 -1.416451767e-08 -2.963592183e-08 -3.433623722e-08)
5(2.513959305e-08 7.925307677e-09 -2.260314502e-08 -4.082722364e-08 -4.573713492e-08)
5(3.695678343e-08 1.455232807e-08 -4.021057847e-08 -6.639063577e-08 -6.021224189e-08)
5(1.470987365e-08 -1.397948196e-08 -5.692819768e-08 -6.457671073e-08 -5.796586368e-08)
5(1.746658858e-08 -3.182990108e-08 -8.405986081e-08 -9.317980632e-08 -9.936628176e-08)
5(-1.693409985e-08 -5.362661764e-08 -1.125762976e-07 -1.025447039e-07 -7.025594799e-08)
5(-7.334966204e-08 -8.893298455e-08 -1.385032869e-07 -1.379289103e-07 -1.033675539e-07)
5(-1.495069793e-07 -1.504572145e-07 -1.472576304e-07 -1.102134511e-07 -7.731909117e-08)
5(-1.913944361e-07 -1.841874295e-07 -1.536440293e-07 -8.924797771e-08 -4.81883197e-08)
5(-2.699627507e-07 -2.176142089e-07 -1.415466736e-07 -5.891358827e-08 5.033739488e-13)
5(-2.846677557e-07 -1.912413018e-07 -1.211980066e-07 -7.163293531e-08 1.315294604e-09)
5(-3.00066513e-07 -1.920203062e-07 -7.978403822e-08 -3.773819444e-08 1.175882289e-10)
5(-2.201470169e-07 -1.531769039e-07 -5.318853907e-08 -1.008346636e-08 3.354528762e-12)
5(-1.588451301e-07 -1.01731504e-07 -2.485252102e-08 -2.676017494e-09 -2.648708995e-10)
5(-1.338929055e-07 -6.994486812e-08 -3.581340168e-09 -5.77460647e-10 1.092825805e-11)
5(-5.224537835e-08 -2.763017011e-08 -1.56685812e-09 -4.973084737e-11 1.929266715e-11)
5(-2.071404573e-08 -1.038420566e-08 -1.766275254e-11 2.609951509e-11 3.315894459e-11)
5(-7.453597463e-09 -3.719930459e-09 2.310267966e-11 4.415288403e-11 5.583695467e-11)
5(-1.431452428e-09 -7.041098271e-10 3.857304522e-11 7.314348813e-11 9.237365916e-11)
5(6.754339799e-13 1.960921308e-11 6.331083057e-11 1.190112595e-10 1.4994385e-10)
5(3.083768636e-11 4.721551623e-11 1.021492049e-10 1.914979399e-10 2.422908162e-10)
5(4.955612167e-11 7.621079586e-11 1.627879481e-10 3.021692521e-10 3.816280781e-10)
5(5.950152472e-11 1.117798156e-10 2.537536856e-10 4.683182993e-10 5.931873338e-10)
5(4.779704918e-11 1.52772749e-10 3.892800879e-10 7.038673964e-10 8.86923066e-10)
5(1.381935806e-10 2.411027389e-10 5.553249667e-10 1.027869981e-09 1.289101925e-09)
5(3.042215067e-10 4.613297302e-10 6.156665203e-10 1.410628061e-09 2.208361036e-09)
5(5.63570092e-10 8.761141917e-10 1.894389146e-09 2.943610087e-09 3.287100175e-09)
)


60
(
5(-5.191786762e-11 2.337380711e-10 3.486143909e-10 1.714600213e-09 3.251365654e-09)
5(3.460063766e-11 1.141542258e-10 2.094991178e-10 5.995813105e-10 9.738721994e-10)
5(8.781509557e-11 9.03236065e-11 1.902201757e-10 3.749687906e-10 4.623293472e-10)
5(1.307779042e-10 1.145354207e-10 2.547165918e-10 4.684220102e-10 5.257037738e-10)
5(1.710051694e-10 1.852931183e-10 4.044565788e-10 8.367021969e-10 1.064072304e-09)
5(2.262439404e-10 2.966043829e-10 6.429480215e-10 1.500922387e-09 2.082913555e-09)
5(3.062897638e-10 4.285750442e-10 9.253375453e-10 2.231443473e-09 3.163072179e-09)
5(4.249626781e-10 5.855401731e-10 1.264703249e-09 2.96555449e-09 4.147820151e-09)
5(5.870271893e-10 7.794617068e-10 1.687846218e-09 3.814167242e-09 5.224538273e-09)
5(8.069928348e-10 1.046652333e-09 2.226004303e-09 4.998222194e-09 6.830747614e-09)
5(1.058326082e-09 1.394534136e-09 2.905460497e-09 6.377299234e-09 8.674419665e-09)
5(1.403847931e-09 1.853728868e-09 3.730038247e-09 7.967296461e-09 1.077812623e-08)
5(1.821362603e-09 2.408004256e-09 4.69338649e-09 9.820376641e-09 1.324862621e-08)
5(2.328330045e-09 3.061855741e-09 5.761299471e-09 1.16498553e-08 1.557249309e-08)
5(2.947672502e-09 3.822042951e-09 6.928190654e-09 1.352134588e-08 1.788272385e-08)
5(3.701520057e-09 4.707455682e-09 8.177239898e-09 1.538212498e-08 2.012316147e-08)
5(4.528700892e-09 5.690333081e-09 9.487848214e-09 1.712701995e-08 2.213030875e-08)
5(5.550466754e-09 6.820236545e-09 1.082809108e-08 1.859588015e-08 2.362558446e-08)
5(6.75986414e-09 8.087976668e-09 1.217872141e-08 1.97980259e-08 2.465469817e-08)
5(8.179012398e-09 9.496991638e-09 1.35298003e-08 2.059274327e-08 2.494085683e-08)
5(9.858247593e-09 1.108995019e-08 1.488045917e-08 2.125258296e-08 2.506590038e-08)
5(1.185642771e-08 1.292247101e-08 1.626063128e-08 2.154044931e-08 2.454815039e-08)
5(1.449834591e-08 1.516436741e-08 1.776700136e-08 2.163177138e-08 2.355992894e-08)
5(1.806204496e-08 1.806054326e-08 1.960365262e-08 2.171549185e-08 2.228272003e-08)
5(2.243217837e-08 2.164556673e-08 2.203133384e-08 2.198728613e-08 2.077085966e-08)
5(2.89062514e-08 2.675349318e-08 2.542558595e-08 2.259614417e-08 1.89418514e-08)
5(3.769526169e-08 3.380813975e-08 3.028912364e-08 2.364765691e-08 1.663808435e-08)
5(5.039855428e-08 4.382618606e-08 3.698662047e-08 2.504262465e-08 1.33658262e-08)
5(6.80774366e-08 5.786880123e-08 4.613164357e-08 2.659477574e-08 8.58643021e-09)
5(9.3466559e-08 7.774692993e-08 5.821551826e-08 2.809107208e-08 1.778408521e-09)
5(1.274595442e-07 1.044861401e-07 7.332893412e-08 2.706883365e-08 -1.100746488e-08)
5(1.735194882e-07 1.39134386e-07 9.018630303e-08 2.191700755e-08 -3.178930719e-08)
5(2.317738151e-07 1.826805052e-07 1.071398816e-07 8.437741003e-09 -6.381708592e-08)
5(3.035160438e-07 2.333333874e-07 1.190763079e-07 -2.278568222e-08 -1.205732492e-07)
5(3.848777174e-07 2.867700542e-07 1.162945618e-07 -7.994675912e-08 -2.038202508e-07)
5(4.65846057e-07 3.335901044e-07 8.933795314e-08 -1.733262127e-07 -3.239941798e-07)
5(5.293079026e-07 3.573353636e-07 2.161611226e-08 -3.121865394e-07 -4.822424788e-07)
5(5.614524009e-07 3.402034421e-07 -1.024714696e-07 -5.026122347e-07 -6.813270469e-07)
5(5.159005104e-07 2.529314944e-07 -2.921877968e-07 -7.516208091e-07 -9.289035461e-07)
5(3.816407416e-07 7.314460465e-08 -5.63677579e-07 -1.057110905e-06 -1.222218184e-06)
5(1.064547055e-07 -2.196777189e-07 -8.931619677e-07 -1.382006428e-06 -1.523499063e-06)
5(-2.736161429e-07 -5.98792785e-07 -1.269276076e-06 -1.678936678e-06 -1.743290631e-06)
5(-7.870993054e-07 -1.046368774e-06 -1.623823051e-06 -1.860275742e-06 -1.778543623e-06)
5(-1.365047642e-06 -1.485642411e-06 -1.874531204e-06 -1.87183865e-06 -1.600852073e-06)
5(-1.844377929e-06 -1.829651648e-06 -1.963730197e-06 -1.690094047e-06 -1.267653064e-06)
5(-2.14346301e-06 -1.99795064e-06 -1.836544832e-06 -1.35116976e-06 -8.816881262e-07)
5(-2.186212858e-06 -1.94427847e-06 -1.519379734e-06 -9.359977345e-07 -5.355800811e-07)
5(-1.947622446e-06 -1.651637539e-06 -1.093511867e-06 -5.547585576e-07 -2.781460122e-07)
5(-1.524294149e-06 -1.218035599e-06 -6.723332574e-07 -2.77031081e-07 -1.211726961e-07)
5(-1.006235993e-06 -7.511724689e-07 -3.428285529e-07 -1.165579403e-07 -4.356771958e-08)
5(-5.546592359e-07 -3.85927787e-07 -1.420972084e-07 -4.04927526e-08 -1.398742646e-08)
5(-2.331554779e-07 -1.539945757e-07 -4.777890133e-08 -1.252406568e-08 -4.324002302e-09)
5(-7.97911699e-08 -5.042875503e-08 -1.380887241e-08 -3.943180318e-09 -1.334955977e-09)
5(-1.981980625e-08 -1.256693115e-08 -3.888304963e-09 -1.365197301e-09 -2.678407219e-10)
5(-4.592791051e-09 -3.125135869e-09 -1.356739716e-09 -3.194124514e-10 4.171738421e-10)
5(-1.191288633e-09 -8.204616644e-10 -2.963669063e-10 4.744484622e-10 1.091996041e-09)
5(4.871881474e-11 1.830231023e-10 5.180212446e-10 1.312452301e-09 1.906189503e-09)
5(9.054801067e-10 9.567598973e-10 1.338430915e-09 2.284169378e-09 2.899516614e-09)
5(1.438879413e-09 1.559798546e-09 2.256156982e-09 3.553387435e-09 4.275178585e-09)
5(2.057650635e-09 2.338569744e-09 3.653284552e-09 5.377794507e-09 6.068508763e-09)
)


60
(
5(-2.298062649e-11 5.939096877e-10 1.172309025e-09 5.125317906e-09 9.116817765e-09)
5(1.448192633e-10 3.884547151e-10 9.262855092e-10 2.849766769e-09 4.479052687e-09)
5(2.973590645e-10 3.837629713e-10 9.958877082e-10 2.466326309e-09 3.41104408e-09)
5(4.461305659e-10 5.237351556e-10 1.351050059e-09 3.200277929e-09 4.299795486e-09)
5(6.242264867e-10 8.166582286e-10 2.007661971e-09 4.80146041e-09 6.596686847e-09)
5(8.552664584e-10 1.248238029e-09 2.937287287e-09 7.294807905e-09 1.035625084e-08)
5(1.174588261e-09 1.775247466e-09 4.050539371e-09 9.965942414e-09 1.420671276e-08)
5(1.614439408e-09 2.395675186e-09 5.366671199e-09 1.279621016e-08 1.803598888e-08)
5(2.212778589e-09 3.165022079e-09 6.945917112e-09 1.604681243e-08 2.231905621e-08)
5(2.946804052e-09 4.139833498e-09 8.882341464e-09 1.984476184e-08 2.725770369e-08)
5(3.857062091e-09 5.3767987e-09 1.120097691e-08 2.440762587e-08 3.330983323e-08)
5(4.935836575e-09 6.87613807e-09 1.389179822e-08 2.952166989e-08 4.007618291e-08)
5(6.286950299e-09 8.676801843e-09 1.688064284e-08 3.479907118e-08 4.690351008e-08)
5(7.874701431e-09 1.072407875e-08 2.010737261e-08 3.999427245e-08 5.334725575e-08)
5(9.718821725e-09 1.303023702e-08 2.347871537e-08 4.507002198e-08 5.952426554e-08)
5(1.175107452e-08 1.553600743e-08 2.692430918e-08 4.966903984e-08 6.481040164e-08)
5(1.426047824e-08 1.838449227e-08 3.032623181e-08 5.353051859e-08 6.891707986e-08)
5(1.703332516e-08 2.13922722e-08 3.357647128e-08 5.672470345e-08 7.204768358e-08)
5(2.00210608e-08 2.455116661e-08 3.663163349e-08 5.885437089e-08 7.352674721e-08)
5(2.335777431e-08 2.787212501e-08 3.940389343e-08 5.98863522e-08 7.335139326e-08)
5(2.679372052e-08 3.125424556e-08 4.190459192e-08 5.983820961e-08 7.158200599e-08)
5(3.097780782e-08 3.500095824e-08 4.416801864e-08 5.945221564e-08 6.959250265e-08)
5(3.577337706e-08 3.904197621e-08 4.632573179e-08 5.836109513e-08 6.638130203e-08)
5(4.120391488e-08 4.359408182e-08 4.87631596e-08 5.715785838e-08 6.277364632e-08)
5(4.802839896e-08 4.928200531e-08 5.201936024e-08 5.62283701e-08 5.895363138e-08)
5(5.742627084e-08 5.703398474e-08 5.697381148e-08 5.640250004e-08 5.549907576e-08)
5(6.995851014e-08 6.757632147e-08 6.405562466e-08 5.768003649e-08 5.244295646e-08)
5(8.650361536e-08 8.181949615e-08 7.497305901e-08 6.118692554e-08 4.956311e-08)
5(1.125246121e-07 1.036216572e-07 9.065120349e-08 6.72816648e-08 4.797962489e-08)
5(1.469621793e-07 1.338545897e-07 1.132644654e-07 7.674161308e-08 4.770129546e-08)
5(1.97990932e-07 1.770742735e-07 1.436487557e-07 8.574546228e-08 4.035102813e-08)
5(2.678330839e-07 2.353555525e-07 1.823934045e-07 9.605748457e-08 3.020618134e-08)
5(3.591136401e-07 3.118051623e-07 2.293605744e-07 9.832219673e-08 2.419929194e-09)
5(4.757098184e-07 4.07250953e-07 2.772657949e-07 8.823156206e-08 -3.927637819e-08)
5(6.187292224e-07 5.19135639e-07 3.193828235e-07 4.730624306e-08 -1.246111052e-07)
5(7.760164134e-07 6.359916503e-07 3.413091813e-07 -3.60311996e-08 -2.587138746e-07)
5(9.247369218e-07 7.385073639e-07 3.2241245e-07 -1.795965114e-07 -4.517401168e-07)
5(1.079827055e-06 8.162827799e-07 2.3326341e-07 -4.089533165e-07 -7.316949476e-07)
5(1.152260859e-06 8.037037364e-07 4.206761857e-08 -7.429461131e-07 -1.11488085e-06)
5(1.12041482e-06 6.829902494e-07 -2.71144032e-07 -1.197137475e-06 -1.606421206e-06)
5(9.286190278e-07 4.090708053e-07 -7.211312199e-07 -1.761440774e-06 -2.191096526e-06)
5(5.272730848e-07 -5.593370879e-08 -1.303715383e-06 -2.357738903e-06 -2.747187542e-06)
5(-9.035741515e-08 -6.833178293e-07 -1.960561386e-06 -2.881367608e-06 -3.117890688e-06)
5(-8.761924573e-07 -1.408663371e-06 -2.592968893e-06 -3.218043214e-06 -3.191282926e-06)
5(-1.762164138e-06 -2.15199185e-06 -3.056702912e-06 -3.258574625e-06 -2.945562987e-06)
5(-2.548789797e-06 -2.758869956e-06 -3.229960445e-06 -2.971820522e-06 -2.452670269e-06)
5(-3.050855688e-06 -3.084554685e-06 -3.055314909e-06 -2.402616472e-06 -1.812856807e-06)
5(-3.199688538e-06 -3.028976628e-06 -2.546074635e-06 -1.70847387e-06 -1.183063189e-06)
5(-2.93852941e-06 -2.599182726e-06 -1.844402912e-06 -1.048367563e-06 -6.677653445e-07)
5(-2.318711388e-06 -1.910662738e-06 -1.143013346e-06 -5.492085451e-07 -3.150044865e-07)
5(-1.552010656e-06 -1.186292268e-06 -5.876659401e-07 -2.411440058e-07 -1.275300129e-07)
5(-8.293715808e-07 -5.943123744e-07 -2.457111224e-07 -8.742949713e-08 -4.268991754e-08)
5(-3.408707893e-07 -2.324031061e-07 -8.318914012e-08 -2.812170733e-08 -1.380055736e-08)
5(-1.025913631e-07 -6.864780148e-08 -2.426536385e-08 -9.322302872e-09 -4.818117903e-09)
5(-2.500528575e-08 -1.727988903e-08 -7.825064869e-09 -4.004721901e-09 -1.913806373e-09)
5(-6.286466307e-09 -4.94145605e-09 -3.33795783e-09 -1.560190559e-09 -4.091125086e-11)
5(-1.977733711e-09 -1.636706013e-09 -1.072097802e-09 4.375959075e-10 1.723709104e-09)
5(1.910274644e-10 3.275399608e-10 9.278069158e-10 2.526713655e-09 3.661865936e-09)
5(1.59809232e-09 2.007706056e-09 2.99105783e-09 4.862088169e-09 6.159380471e-09)
5(3.663045919e-09 4.226808661e-09 6.023451998e-09 7.940901407e-09 8.62547022e-09)
)


60
(
5(7.501716795e-11 1.259741252e-09 2.877505098e-09 1.132631865e-08 1.934209244e-08)
5(3.952001781e-10 9.741033214e-10 2.541731966e-09 7.815712586e-09 1.21009677e-08)
5(7.337644101e-10 1.058895765e-09 2.865468229e-09 7.547118538e-09 1.074732774e-08)
5(1.103373218e-09 1.470142032e-09 3.819443441e-09 9.448082605e-09 1.309418917e-08)
5(1.544850715e-09 2.204160494e-09 5.400690026e-09 1.327715763e-08 1.861640548e-08)
5(2.112611611e-09 3.22436547e-09 7.543487162e-09 1.868923586e-08 2.662761673e-08)
5(2.882699362e-09 4.470783237e-09 1.011106581e-08 2.449630582e-08 3.482934712e-08)
5(3.927258393e-09 5.948312061e-09 1.308352582e-08 3.05349422e-08 4.287219848e-08)
5(5.261297715e-09 7.719919749e-09 1.65704953e-08 3.738906842e-08 5.181568802e-08)
5(6.891582662e-09 9.912742629e-09 2.071850291e-08 4.532301603e-08 6.214292885e-08)
5(8.885739876e-09 1.261556464e-08 2.555800849e-08 5.44154195e-08 7.406021143e-08)
5(1.125642919e-08 1.585018937e-08 3.101431679e-08 6.402581984e-08 8.646695566e-08)
5(1.404463552e-08 1.959008614e-08 3.694582217e-08 7.382280812e-08 9.888950867e-08)
5(1.742686233e-08 2.383520534e-08 4.319275e-08 8.342626456e-08 1.107105775e-07)
5(2.125639884e-08 2.850108334e-08 4.959371196e-08 9.198109805e-08 1.2052054e-07)
5(2.550238613e-08 3.356092845e-08 5.599768605e-08 9.964829991e-08 1.289206985e-07)
5(3.011742807e-08 3.89165898e-08 6.213336338e-08 1.057449615e-07 1.349389478e-07)
5(3.562098349e-08 4.474969867e-08 6.778160494e-08 1.09932727e-07 1.38180658e-07)
5(4.082271315e-08 5.036534775e-08 7.289642101e-08 1.124873718e-07 1.390898839e-07)
5(4.726729536e-08 5.645598533e-08 7.710472738e-08 1.126485466e-07 1.367323138e-07)
5(5.370952296e-08 6.222732949e-08 8.032225074e-08 1.11056429e-07 1.322134925e-07)
5(5.894126853e-08 6.728335585e-08 8.283930818e-08 1.087294284e-07 1.274056836e-07)
5(6.534850433e-08 7.284859526e-08 8.459123484e-08 1.044447727e-07 1.200557619e-07)
5(7.496246118e-08 8.000036477e-08 8.60508683e-08 9.995327679e-08 1.128430853e-07)
5(8.319411813e-08 8.64068903e-08 8.810885232e-08 9.503890869e-08 1.034797752e-07)
5(9.338314421e-08 9.472968485e-08 9.191038352e-08 9.23085928e-08 9.687264403e-08)
5(1.062099791e-07 1.060602897e-07 9.883848087e-08 9.191396697e-08 9.206157251e-08)
5(1.247547553e-07 1.223752001e-07 1.102861192e-07 9.424286167e-08 8.790912972e-08)
5(1.509527411e-07 1.460594123e-07 1.286429523e-07 1.024515868e-07 8.878335264e-08)
5(1.89493498e-07 1.815002249e-07 1.567345847e-07 1.152472467e-07 9.053227574e-08)
5(2.454829371e-07 2.333937921e-07 1.979392507e-07 1.365391188e-07 9.850438321e-08)
5(3.247579577e-07 3.061785896e-07 2.543785859e-07 1.622874078e-07 1.034168653e-07)
5(4.333814395e-07 4.056105662e-07 3.287582256e-07 1.913742809e-07 1.030718035e-07)
5(5.811945442e-07 5.363666078e-07 4.152921061e-07 2.117070956e-07 8.436865027e-08)
5(7.680354881e-07 6.983274565e-07 5.108640543e-07 2.191665202e-07 4.522435676e-08)
5(9.971189829e-07 8.874692799e-07 6.022166861e-07 1.797280461e-07 -6.7157703e-08)
5(1.248330959e-06 1.089760371e-06 6.667596103e-07 8.259806435e-08 -2.371333083e-07)
5(1.500611088e-06 1.270797325e-06 6.685716297e-07 -1.043356184e-07 -5.048309331e-07)
5(1.723264813e-06 1.401212032e-06 5.695732843e-07 -4.335599723e-07 -9.271072626e-07)
5(1.857610518e-06 1.422756945e-06 3.221262909e-07 -9.324518962e-07 -1.521253003e-06)
5(1.830425717e-06 1.258110591e-06 -1.190610342e-07 -1.617966004e-06 -2.312014474e-06)
5(1.59358602e-06 8.757040728e-07 -7.718228765e-07 -2.425450496e-06 -3.149433113e-06)
5(1.037974991e-06 2.218740927e-07 -1.615086392e-06 -3.270413021e-06 -3.904880064e-06)
5(1.825315013e-07 -6.691287632e-07 -2.566334687e-06 -3.987011387e-06 -4.362142427e-06)
5(-9.425638193e-07 -1.742009407e-06 -3.464008757e-06 -4.416683173e-06 -4.446803827e-06)
5(-2.174232066e-06 -2.832559145e-06 -4.113834923e-06 -4.444450819e-06 -4.152118016e-06)
5(-3.301790475e-06 -3.736440727e-06 -4.343743415e-06 -4.009262492e-06 -3.502129134e-06)
5(-4.125086738e-06 -4.241337685e-06 -4.092708877e-06 -3.235715886e-06 -2.64360265e-06)
5(-4.439254191e-06 -4.19762461e-06 -3.396021709e-06 -2.287136016e-06 -1.738223642e-06)
5(-4.163452629e-06 -3.629760965e-06 -2.449310157e-06 -1.389533272e-06 -9.765155297e-07)
5(-3.381634026e-06 -2.700008343e-06 -1.494053841e-06 -7.202678702e-07 -4.708107175e-07)
5(-2.304902598e-06 -1.682972275e-06 -7.496292537e-07 -3.121504864e-07 -1.860844168e-07)
5(-1.22294396e-06 -8.374077961e-07 -3.054992634e-07 -1.111922795e-07 -6.325766395e-08)
5(-4.979375731e-07 -3.23778786e-07 -9.949251069e-08 -3.515598242e-08 -2.094694235e-08)
5(-1.538868518e-07 -9.696262744e-08 -2.881706486e-08 -1.296757598e-08 -8.339425323e-09)
5(-3.307746384e-08 -2.248623067e-08 -1.04316559e-08 -6.321341856e-09 -3.674369412e-09)
5(-7.5464657e-09 -6.619143281e-09 -5.124785526e-09 -2.448588202e-09 -3.39426214e-10)
5(-2.853130884e-09 -2.62972647e-09 -1.533303028e-09 1.186302434e-09 3.032888869e-09)
5(2.370372472e-09 4.946874893e-10 1.726551018e-09 5.028299962e-09 5.222500394e-09)
5(4.725155283e-09 3.602869445e-09 8.207103202e-09 1.295085149e-08 1.196808018e-08)
)


60
(
5(2.912881681e-10 2.343172036e-09 5.793678419e-09 2.087568797e-08 3.455907501e-08)
5(8.553247962e-10 2.012943801e-09 5.433431361e-09 1.63662106e-08 2.503612128e-08)
5(1.495431178e-09 2.290846804e-09 6.200709718e-09 1.651499249e-08 2.371482797e-08)
5(2.214995246e-09 3.153709282e-09 8.082767854e-09 2.015939398e-08 2.824567557e-08)
5(3.084511137e-09 4.588835752e-09 1.102377462e-08 2.697433683e-08 3.79942848e-08)
5(4.201029237e-09 6.505265192e-09 1.487747603e-08 3.613412483e-08 5.132279875e-08)
5(5.657927764e-09 8.821512794e-09 1.942897959e-08 4.600394957e-08 6.51350378e-08)
5(7.585552829e-09 1.155163378e-08 2.468362333e-08 5.618924341e-08 7.852895489e-08)
5(1.001178916e-08 1.478463303e-08 3.075340216e-08 6.759983331e-08 9.32503392e-08)
5(1.295004762e-08 1.871935336e-08 3.782280348e-08 8.04066285e-08 1.096563091e-07)
5(1.650627395e-08 2.348473113e-08 4.588805509e-08 9.485795077e-08 1.284029797e-07)
5(2.062406727e-08 2.905535266e-08 5.485785164e-08 1.097364669e-07 1.472438686e-07)
5(2.560216998e-08 3.546960616e-08 6.446119055e-08 1.247030389e-07 1.658207391e-07)
5(3.10841284e-08 4.248688897e-08 7.448040977e-08 1.385897605e-07 1.821083511e-07)
5(3.775923055e-08 5.038134169e-08 8.462236229e-08 1.514174885e-07 1.965937053e-07)
5(4.512613702e-08 5.888191865e-08 9.465400224e-08 1.622748322e-07 2.078793601e-07)
5(5.284790213e-08 6.765658332e-08 1.041269306e-07 1.706240675e-07 2.154595384e-07)
5(6.165538527e-08 7.690093678e-08 1.126316258e-07 1.759046333e-07 2.186925034e-07)
5(7.084387637e-08 8.62037598e-08 1.199686079e-07 1.781128382e-07 2.178521039e-07)
5(8.050275617e-08 9.538557292e-08 1.257269755e-07 1.771932849e-07 2.132010086e-07)
5(9.024602486e-08 1.042241282e-07 1.299490104e-07 1.730484084e-07 2.044010275e-07)
5(1.003784211e-07 1.128058896e-07 1.323800375e-07 1.670247281e-07 1.945227394e-07)
5(1.104243413e-07 1.206884551e-07 1.332324378e-07 1.580314436e-07 1.805505805e-07)
5(1.200589685e-07 1.277629e-07 1.327841579e-07 1.48902572e-07 1.677036597e-07)
5(1.298545272e-07 1.347648487e-07 1.320260501e-07 1.381596159e-07 1.519423018e-07)
5(1.423358728e-07 1.437380491e-07 1.322005191e-07 1.295295524e-07 1.39798292e-07)
5(1.537963049e-07 1.543314874e-07 1.36124158e-07 1.22802135e-07 1.28222624e-07)
5(1.683460868e-07 1.678231847e-07 1.441625588e-07 1.206464875e-07 1.2026814e-07)
5(1.896527611e-07 1.884692528e-07 1.602304511e-07 1.266095848e-07 1.200440119e-07)
5(2.247695192e-07 2.224652214e-07 1.879704331e-07 1.413442492e-07 1.269085556e-07)
5(2.762965179e-07 2.739074517e-07 2.319918768e-07 1.673891633e-07 1.423129586e-07)
5(3.519854645e-07 3.496325081e-07 2.994864616e-07 2.117179019e-07 1.717424322e-07)
5(4.651908806e-07 4.600556281e-07 3.919590537e-07 2.584079262e-07 1.878181205e-07)
5(6.246350699e-07 6.124072901e-07 5.104890361e-07 3.156370416e-07 2.104755214e-07)
5(8.31443199e-07 8.069203099e-07 6.542597454e-07 3.69901588e-07 2.136811058e-07)
5(1.092073902e-06 1.047077725e-06 8.124836022e-07 3.99611252e-07 1.763368486e-07)
5(1.404622208e-06 1.328718111e-06 9.680849853e-07 3.825610666e-07 8.176617672e-08)
5(1.765025023e-06 1.630984103e-06 1.089901219e-06 2.828654756e-07 -1.171283043e-07)
5(2.130700765e-06 1.907909471e-06 1.123774869e-06 4.410782133e-08 -4.742159179e-07)
5(2.447162539e-06 2.101316549e-06 1.017910849e-06 -3.932248246e-07 -1.066800788e-06)
5(2.646708135e-06 2.141764253e-06 7.061051705e-07 -1.070858283e-06 -1.917106536e-06)
5(2.629087301e-06 1.944662227e-06 1.261522046e-07 -1.970587758e-06 -2.933242772e-06)
5(2.30087186e-06 1.425171922e-06 -7.570675192e-07 -3.035287047e-06 -4.006967072e-06)
5(1.602886599e-06 5.624546296e-07 -1.899213405e-06 -4.108519601e-06 -4.896589732e-06)
5(4.832551876e-07 -6.649113996e-07 -3.170837682e-06 -4.990539917e-06 -5.452482458e-06)
5(-9.512371549e-07 -2.111539628e-06 -4.36500422e-06 -5.510032249e-06 -5.56189816e-06)
5(-2.606648759e-06 -3.636827758e-06 -5.227777539e-06 -5.496765475e-06 -5.204982629e-06)
5(-4.205308376e-06 -4.942516121e-06 -5.566700868e-06 -4.930464257e-06 -4.407250646e-06)
5(-5.447087655e-06 -5.698548122e-06 -5.266524142e-06 -3.949187051e-06 -3.315334406e-06)
5(-6.082710993e-06 -5.740069371e-06 -4.384281579e-06 -2.785868432e-06 -2.200601456e-06)
5(-5.919344559e-06 -5.061434043e-06 -3.171100534e-06 -1.686490006e-06 -1.23430247e-06)
5(-5.003960382e-06 -3.872665083e-06 -1.934161886e-06 -8.517113592e-07 -5.764687314e-07)
5(-3.50460432e-06 -2.503428683e-06 -9.968681058e-07 -3.570593892e-07 -2.226356137e-07)
5(-1.981954742e-06 -1.319519016e-06 -4.137908781e-07 -1.213360569e-07 -7.217364682e-08)
5(-8.456731263e-07 -5.271278649e-07 -1.315033088e-07 -3.952667013e-08 -2.46293262e-08)
5(-2.992971004e-07 -1.769413494e-07 -3.798761749e-08 -1.636159559e-08 -1.133355475e-08)
5(-6.5596962e-08 -4.138161143e-08 -1.451391448e-08 -8.569101704e-09 -5.276635316e-09)
5(-1.128796696e-08 -1.019834777e-08 -7.511158428e-09 -3.001105544e-09 -8.862281244e-11)
5(-9.432019237e-10 -3.268025931e-09 -2.402704599e-09 2.701626821e-09 4.6158129e-09)
5(5.090246652e-09 6.067304877e-09 6.059390287e-09 9.971561525e-09 1.486870558e-08)
)


60
(
5(6.838401416e-10 3.957363284e-09 1.024203147e-08 3.41215019e-08 5.498982727e-08)
5(1.602945201e-09 3.648871412e-09 9.937946011e-09 2.901897389e-08 4.385685337e-08)
5(2.702966429e-09 4.267853135e-09 1.132289656e-08 2.981695642e-08 4.282085957e-08)
5(3.916511191e-09 5.791940659e-09 1.443769761e-08 3.598060727e-08 5.075318944e-08)
5(5.359002699e-09 8.168831516e-09 1.914558668e-08 4.636308079e-08 6.541364854e-08)
5(7.220316171e-09 1.128293502e-08 2.51885817e-08 5.977973337e-08 8.452785721e-08)
5(9.601432592e-09 1.500513605e-08 3.223524191e-08 7.441499651e-08 1.047683487e-07)
5(1.272993023e-08 1.937924475e-08 4.027042898e-08 8.925388237e-08 1.23995466e-07)
5(1.658695424e-08 2.450096813e-08 4.947120855e-08 1.057743508e-07 1.450212665e-07)
5(2.127290498e-08 3.069535257e-08 6.004024475e-08 1.241524608e-07 1.683422323e-07)
5(2.671498501e-08 3.80002325e-08 7.198216476e-08 1.44297654e-07 1.939164584e-07)
5(3.334717924e-08 4.663184124e-08 8.508229144e-08 1.648352167e-07 2.194223537e-07)
5(4.078952767e-08 5.625863456e-08 9.902536351e-08 1.852357413e-07 2.44148497e-07)
5(4.959940405e-08 6.704413025e-08 1.134708672e-07 2.040083121e-07 2.655637463e-07)
5(5.927075124e-08 7.864098785e-08 1.27979624e-07 2.212079267e-07 2.844678298e-07)
5(7.033577743e-08 9.124854759e-08 1.421290332e-07 2.35037642e-07 2.979785354e-07)
5(8.250522079e-08 1.045594387e-07 1.554374877e-07 2.460489918e-07 3.078366649e-07)
5(9.537913879e-08 1.181268486e-07 1.674268875e-07 2.522263544e-07 3.104734923e-07)
5(1.096074296e-07 1.321522828e-07 1.77700009e-07 2.545423925e-07 3.083819029e-07)
5(1.233293484e-07 1.454489878e-07 1.857189276e-07 2.517885443e-07 2.997078607e-07)
5(1.374064887e-07 1.58094711e-07 1.910444357e-07 2.446847852e-07 2.860636322e-07)
5(1.530924993e-07 1.706869612e-07 1.93689256e-07 2.346000152e-07 2.701029417e-07)
5(1.656482608e-07 1.809185494e-07 1.934414548e-07 2.202012959e-07 2.497085202e-07)
5(1.776845509e-07 1.898426432e-07 1.90960299e-07 2.038704602e-07 2.278210578e-07)
5(1.901477192e-07 1.984132398e-07 1.873003016e-07 1.870363468e-07 2.061508508e-07)
5(2.004979619e-07 2.060535915e-07 1.832207206e-07 1.689480127e-07 1.830638052e-07)
5(2.096407174e-07 2.13088663e-07 1.803963476e-07 1.538862769e-07 1.635164672e-07)
5(2.219322412e-07 2.232623908e-07 1.814851044e-07 1.444088034e-07 1.504399382e-07)
5(2.402161083e-07 2.403061749e-07 1.90576511e-07 1.425145233e-07 1.44272266e-07)
5(2.649248643e-07 2.673275888e-07 2.121533533e-07 1.509316865e-07 1.472869798e-07)
5(3.027285974e-07 3.098555785e-07 2.520940196e-07 1.784549016e-07 1.697043237e-07)
5(3.678105219e-07 3.797403562e-07 3.165304478e-07 2.238921135e-07 2.06393522e-07)
5(4.697532164e-07 4.870520043e-07 4.143074707e-07 2.892838525e-07 2.54303556e-07)
5(6.216201265e-07 6.428677526e-07 5.516755294e-07 3.807883098e-07 3.223409396e-07)
5(8.251074471e-07 8.516960179e-07 7.296534614e-07 4.82652278e-07 3.84282222e-07)
5(1.099328048e-06 1.123598952e-06 9.447399073e-07 5.834490715e-07 4.252881851e-07)
5(1.457371137e-06 1.464659371e-06 1.185536214e-06 6.582046075e-07 4.172843914e-07)
5(1.881998451e-06 1.853114095e-06 1.41912362e-06 6.743397981e-07 3.346620952e-07)
5(2.355889479e-06 2.264347421e-06 1.609704094e-06 5.764807155e-07 1.06358607e-07)
5(2.824670861e-06 2.641341339e-06 1.690753999e-06 2.748559321e-07 -3.73784316e-07)
5(3.25204928e-06 2.909394197e-06 1.576290585e-06 -3.19375766e-07 -1.224593588e-06)
5(3.513994853e-06 2.971733678e-06 1.172769426e-06 -1.168428353e-06 -2.252923054e-06)
5(3.507065431e-06 2.722283012e-06 4.100093275e-07 -2.320837008e-06 -3.524192078e-06)
5(3.11909735e-06 2.070132424e-06 -7.377355314e-07 -3.632943167e-06 -4.769247773e-06)
5(2.237785191e-06 9.187774634e-07 -2.219429176e-06 -4.93665989e-06 -5.834691692e-06)
5(8.861115596e-07 -6.683291933e-07 -3.870857703e-06 -6.018494327e-06 -6.518043195e-06)