/*--------------------------------*- C++ -*----------------------------------*\
| =========                 |                                                 |
| \\      /  F ield         | OpenFOAM: The Open Source CFD Toolbox           |
|  \\    /   O peration     | Version:  2.3.1                                 |
|   \\  /    A nd           | Web:      www.OpenFOAM.org                      |
|    \\/     M anipulation  |                                                 |
\*---------------------------------------------------------------------------*/
FoamFile
{
    version     2.0;
    format      ascii;
    class       dictionary;
    location    "constant";
    object      GRPSI37;
}
// * * * * * * * * * * * * * * * * * * * * * * * * * * * * * * * * * * * * * //

GRPSI37_table
60
(

60
(
5(5.147597881e-08 3.975149351e-08 4.260792854e-08 3.276307381e-08 2.883123274e-08)
5(5.658720652e-08 6.721987741e-08 4.312416937e-08 3.78991081e-08 2.957832314e-08)
5(-6.360934806e-07 6.481311037e-08 4.996009608e-08 4.702280394e-08 4.387304282e-08)
5(-1.892687985e-06 7.036703387e-08 5.220616684e-08 5.947445688e-08 3.420313545e-08)
5(-2.461091633e-06 8.465881445e-08 6.380888998e-08 6.162399645e-08 4.717696141e-08)
5(-2.264957878e-06 1.030812252e-07 9.360400521e-08 7.411419154e-08 6.244769933e-08)
5(1.257862546e-07 1.234249731e-07 1.079311546e-07 9.278160761e-08 6.887976766e-08)
5(1.645852898e-07 1.448459469e-07 1.172225536e-07 1.067049512e-07 9.333914671e-08)
5(-2.797611698e-06 1.687009702e-07 1.372616497e-07 1.253952688e-07 1.056015768e-07)
5(-4.55603906e-06 1.835025788e-07 1.543510118e-07 1.50131441e-07 1.253697934e-07)
5(-5.040422235e-06 2.097916872e-07 1.864459084e-07 1.778280157e-07 1.509595066e-07)
5(-1.586611686e-06 2.741834521e-07 2.314119976e-07 2.136924647e-07 1.833099004e-07)
5(3.552463429e-07 3.225932071e-07 2.79018925e-07 2.519030686e-07 2.195306522e-07)
5(4.086911421e-07 3.788291301e-07 3.298077684e-07 3.03823189e-07 2.640060575e-07)
5(4.899871055e-07 4.499524997e-07 3.934798758e-07 3.572877604e-07 3.151682953e-07)
5(3.81076955e-07 4.843905004e-07 4.503673609e-07 4.17817592e-07 3.743529294e-07)
5(4.898067277e-07 5.81384132e-07 5.266830202e-07 4.979360946e-07 4.460800069e-07)
5(7.123269989e-07 6.977006524e-07 6.409596239e-07 5.909402175e-07 5.320150023e-07)
5(9.18844188e-07 8.377535393e-07 7.586919962e-07 7.051444232e-07 6.333612547e-07)
5(1.065517999e-06 9.875919499e-07 8.925879576e-07 8.348200308e-07 7.669541935e-07)
5(1.248964134e-06 1.169818973e-06 1.070389121e-06 1.010086413e-06 9.44094734e-07)
5(1.461890304e-06 1.38732557e-06 1.271567183e-06 1.256001733e-06 1.177156538e-06)
5(1.700889227e-06 1.647962728e-06 1.54615723e-06 1.530880749e-06 1.463638373e-06)
5(2.009142534e-06 1.966019547e-06 1.906148098e-06 1.93155408e-06 1.879043681e-06)
5(2.367532047e-06 2.325014659e-06 2.376105588e-06 2.468270098e-06 2.457645417e-06)
5(2.848848015e-06 2.763157897e-06 2.999914925e-06 3.224932063e-06 3.31949612e-06)
5(3.497383803e-06 3.632428562e-06 3.982219192e-06 4.34828934e-06 4.584931126e-06)
5(4.384883447e-06 4.995206147e-06 5.325959166e-06 6.011397048e-06 6.454481151e-06)
5(5.534101273e-06 6.630265685e-06 7.394638828e-06 8.529349043e-06 9.22831174e-06)
5(7.224649676e-06 8.950305432e-06 1.040388824e-05 1.233889115e-05 1.337895362e-05)
5(9.583215532e-06 1.229161834e-05 1.461183795e-05 1.752131585e-05 1.923527794e-05)
5(1.302528903e-05 1.729799517e-05 2.104000551e-05 2.553888731e-05 2.826377056e-05)
5(1.795643739e-05 2.406001885e-05 2.964931315e-05 3.616578708e-05 3.895657821e-05)
5(2.465556517e-05 3.328781514e-05 4.109629075e-05 5.077303363e-05 5.53778011e-05)
5(3.382840541e-05 4.637262342e-05 5.727366375e-05 6.947261718e-05 7.486931914e-05)
5(4.631831233e-05 6.202579413e-05 7.529672876e-05 9.232059766e-05 9.742333556e-05)
5(6.264981969e-05 8.550624525e-05 0.0001051207495 0.0001216467231 0.0001222708075)
5(8.348125833e-05 0.0001101583498 0.0001353851311 0.0001507277274 0.000152920704)
5(0.0001080436835 0.0001409256675 0.0001664196702 0.0001820929181 0.0001692096243)
5(0.0001344036302 0.0001731104927 0.0001955064181 0.0002064097558 0.0001887048495)
5(0.0001657142352 0.0002084484777 0.0002288246903 0.0002230132793 0.0001842211126)
5(0.0001982198884 0.0002370971616 0.000248705871 0.0002251527916 0.0001652570327)
5(0.0002250837894 0.0002584445526 0.0002546970557 0.0002136002164 0.0001347923164)
5(0.0002415774544 0.0002566613298 0.0002279764847 0.0001759599849 9.878827868e-05)
5(0.0002433406768 0.0002415314567 0.0001988509293 0.0001302635383 6.444357832e-05)
5(0.0002316563992 0.0002056201458 0.0001568095159 8.552302103e-05 3.641818055e-05)
5(0.000200963248 0.0001604096795 0.0001065341243 4.910409578e-05 1.751417767e-05)
5(0.0001521854304 0.0001121707735 6.236175286e-05 2.427114097e-05 7.114381345e-06)
5(0.0001078273409 6.596782902e-05 3.088499056e-05 1.010428232e-05 2.461234661e-06)
5(6.377372202e-05 3.29230374e-05 1.28451196e-05 3.471854709e-06 7.486046799e-07)
5(3.150341463e-05 1.336000907e-05 4.287069307e-06 1.025547155e-06 2.002863222e-07)
5(1.230940311e-05 4.322879464e-06 1.178692546e-06 2.613117212e-07 4.831923168e-08)
5(3.906077736e-06 1.099829551e-06 2.716396541e-07 5.794722803e-08 1.026939178e-08)
5(8.313159773e-07 2.046942162e-07 4.859413668e-08 1.090783414e-08 1.950176939e-09)
5(1.231908621e-07 3.09436422e-08 7.059060228e-09 1.662405561e-09 2.954527093e-10)
5(1.090211641e-08 2.848295213e-09 7.830436597e-10 1.861845474e-10 3.552887263e-11)
5(6.446837586e-10 2.129643793e-10 4.539965848e-11 1.369928302e-11 2.436505802e-12)
5(1.889396742e-11 6.533915913e-12 1.482823702e-12 9.689258783e-13 7.755455265e-14)
5(8.294351724e-14 -7.58973117e-13 1.306768149e-12 -7.649390305e-13 5.442364492e-16)
5(1.84673831e-18 4.750304912e-18 3.678221367e-09 1.29099289e-17 3.7692576e-17)
)


60
(
5(6.230091527e-08 4.534192127e-08 5.217604836e-08 3.946835236e-08 3.356897872e-08)
5(6.922267275e-08 6.61348168e-08 5.117844459e-08 4.253879718e-08 3.28062437e-08)
5(-2.729165112e-07 7.150839417e-08 5.654869352e-08 4.944088091e-08 4.101347945e-08)
5(-8.943141867e-07 8.131533819e-08 6.277865621e-08 5.993431645e-08 3.945669943e-08)
5(-1.168476286e-06 9.735789823e-08 7.64860426e-08 6.742830918e-08 5.117070722e-08)
5(-1.05624854e-06 1.180209674e-07 1.019036413e-07 8.201399619e-08 6.626836201e-08)
5(1.554232977e-07 1.421790184e-07 1.211467999e-07 1.012969643e-07 7.811685468e-08)
5(1.933567278e-07 1.694259508e-07 1.395448534e-07 1.201629829e-07 1.004066533e-07)
5(-1.266609773e-06 2.010705215e-07 1.659507192e-07 1.437290831e-07 1.186561454e-07)
5(-2.11858069e-06 2.325088904e-07 1.948050777e-07 1.736477055e-07 1.428282088e-07)
5(-2.32877275e-06 2.749265828e-07 2.353805445e-07 2.085453735e-07 1.735219779e-07)
5(-5.615727757e-07 3.414754605e-07 2.873684437e-07 2.515202045e-07 2.112016402e-07)
5(4.541346619e-07 4.05151222e-07 3.455805301e-07 2.993596477e-07 2.538629825e-07)
5(5.335815112e-07 4.792554214e-07 4.106284933e-07 3.589355359e-07 3.04455647e-07)
5(6.358884792e-07 5.680158208e-07 4.883270048e-07 4.241109978e-07 3.635680845e-07)
5(6.559545558e-07 6.474366922e-07 5.701178806e-07 4.989062867e-07 4.31510277e-07)
5(7.885750629e-07 7.66633143e-07 6.68922319e-07 5.89451106e-07 5.114783363e-07)
5(9.915712097e-07 9.046896414e-07 7.947415194e-07 6.935337329e-07 6.07007057e-07)
5(1.199638804e-06 1.063150245e-06 9.307886606e-07 8.169862007e-07 7.182268242e-07)
5(1.389617058e-06 1.237741554e-06 1.085817627e-06 9.573773786e-07 8.549561753e-07)
5(1.614141809e-06 1.437887293e-06 1.273106232e-06 1.130970783e-06 1.022762216e-06)
5(1.859901396e-06 1.667050517e-06 1.483592282e-06 1.35248625e-06 1.238392044e-06)
5(2.135236898e-06 1.928946903e-06 1.741267543e-06 1.599945857e-06 1.493062819e-06)
5(2.461899329e-06 2.230272966e-06 2.054697326e-06 1.925637897e-06 1.835295677e-06)
5(2.821511491e-06 2.563170936e-06 2.440359056e-06 2.341660907e-06 2.287889163e-06)
5(3.251351467e-06 2.946048606e-06 2.92529566e-06 2.897578997e-06 2.924262287e-06)
5(3.774082813e-06 3.555544929e-06 3.611729711e-06 3.668216033e-06 3.823171335e-06)
5(4.42900115e-06 4.416143115e-06 4.501612256e-06 4.765006896e-06 5.118573306e-06)
5(5.195693706e-06 5.427500973e-06 5.803927282e-06 6.368880313e-06 7.00253221e-06)
5(6.255344032e-06 6.795192189e-06 7.648332641e-06 8.746858365e-06 9.79956979e-06)
5(7.617920601e-06 8.704165513e-06 1.018576323e-05 1.199825196e-05 1.369971398e-05)
5(9.534810256e-06 1.151176553e-05 1.401412775e-05 1.69644221e-05 1.965754331e-05)
5(1.222715536e-05 1.532230934e-05 1.920447209e-05 2.367174376e-05 2.697741014e-05)
5(1.587428222e-05 2.055099032e-05 2.621055239e-05 3.291175783e-05 3.807711256e-05)
5(2.08394167e-05 2.801215621e-05 3.612198125e-05 4.506334421e-05 5.16447092e-05)
5(2.76977273e-05 3.729849947e-05 4.775296992e-05 6.03947712e-05 6.816835052e-05)
5(3.693458383e-05 5.120358024e-05 6.634519905e-05 8.033403355e-05 8.722351765e-05)
5(4.879345753e-05 6.670534191e-05 8.64536813e-05 0.0001016733124 0.000110551312)
5(6.35839435e-05 8.670788602e-05 0.0001084331868 0.0001256765652 0.000127795694)
5(8.025670804e-05 0.0001087380111 0.0001310138423 0.000147384828 0.0001472441987)
5(0.0001007274261 0.0001340721751 0.0001570952873 0.0001656169215 0.0001538859912)
5(0.0001236034347 0.0001570940437 0.0001765567692 0.0001757754818 0.0001507061997)
5(0.0001446674777 0.0001769419881 0.0001880951841 0.0001764864782 0.0001372471266)
5(0.0001609019832 0.0001845422786 0.0001805777739 0.0001594823527 0.0001149709562)
5(0.0001696767647 0.0001824630741 0.0001674118828 0.0001326554365 8.807223908e-05)
5(0.0001696187453 0.0001657009663 0.0001423306287 0.0001004524287 6.040644624e-05)
5(0.0001560067228 0.0001392666892 0.0001077619117 6.815817856e-05 3.666253405e-05)
5(0.0001288621234 0.000106133879 7.251954443e-05 4.092202863e-05 1.927691581e-05)
5(9.885166997e-05 7.066270413e-05 4.25857454e-05 2.141663841e-05 8.671095795e-06)
5(6.583632942e-05 4.111887956e-05 2.147291718e-05 9.402659751e-06 3.287674587e-06)
5(3.765444073e-05 2.013363967e-05 9.033041541e-06 3.489593014e-06 1.037545104e-06)
5(1.782792599e-05 8.008340394e-06 3.041099284e-06 1.038038219e-06 2.86025504e-07)
5(6.640654463e-06 2.494516124e-06 8.079501308e-07 2.532851437e-07 6.638074178e-08)
5(1.779276637e-06 5.748820478e-07 1.573525723e-07 4.761105804e-08 1.272973817e-08)
5(3.384156202e-07 9.324059315e-08 2.350373908e-08 7.52490299e-09 2.117057175e-09)
5(3.695194752e-08 1.011324916e-08 2.347300045e-09 8.731464843e-10 2.452277554e-10)
5(2.384695899e-09 5.360678019e-10 1.611798816e-10 5.957067421e-11 1.752809458e-11)
5(4.630493039e-11 -5.720011584e-12 5.028681543e-12 -1.081452757e-11 6.936511242e-13)
5(2.92488164e-13 -4.196802737e-09 1.445093887e-12 -2.402604098e-09 3.479374343e-15)
5(6.559183087e-17 1.072133554e-17 4.048768257e-09 3.209043249e-17 6.954773705e-17)
)


60
(
5(8.536831835e-08 6.145615385e-08 7.286069285e-08 5.532159704e-08 4.391428871e-08)
5(9.916927746e-08 8.061902518e-08 7.283767806e-08 5.771859363e-08 4.243585567e-08)
5(1.127404326e-07 9.827700594e-08 7.947836951e-08 6.443838654e-08 4.584970495e-08)
5(1.305999502e-07 1.166833823e-07 9.344859456e-08 7.583931238e-08 5.422104182e-08)
5(1.570135215e-07 1.398223802e-07 1.143619479e-07 9.244056219e-08 6.79335265e-08)
5(1.92932679e-07 1.695313222e-07 1.41294977e-07 1.140440296e-07 8.716664651e-08)
5(2.343820122e-07 2.054324631e-07 1.728267763e-07 1.406443785e-07 1.099038786e-07)
5(2.816229629e-07 2.486715126e-07 2.095836234e-07 1.722933254e-07 1.361071426e-07)
5(3.381454752e-07 3.0072847e-07 2.532613911e-07 2.101704955e-07 1.677993413e-07)
5(4.084778599e-07 3.637772615e-07 3.069299059e-07 2.564150343e-07 2.061971127e-07)
5(4.918211599e-07 4.393374068e-07 3.718139828e-07 3.12224438e-07 2.53379348e-07)
5(5.930375687e-07 5.283483279e-07 4.498645476e-07 3.781279916e-07 3.087654504e-07)
5(7.11906015e-07 6.326597331e-07 5.41328306e-07 4.541797365e-07 3.734038442e-07)
5(8.470222845e-07 7.537101891e-07 6.461240299e-07 5.421511832e-07 4.488342091e-07)
5(1.004790425e-06 8.928320765e-07 7.662919172e-07 6.434090042e-07 5.340165664e-07)
5(1.1877201e-06 1.050880388e-06 9.039620795e-07 7.597123878e-07 6.338708601e-07)
5(1.398152526e-06 1.232411971e-06 1.062355732e-06 8.925146023e-07 7.48848428e-07)
5(1.630472655e-06 1.43867742e-06 1.243270294e-06 1.045149525e-06 8.820277702e-07)
5(1.902982041e-06 1.667283097e-06 1.445203985e-06 1.219160789e-06 1.038024964e-06)
5(2.194120897e-06 1.924164428e-06 1.673538571e-06 1.41508415e-06 1.214265401e-06)
5(2.52381909e-06 2.210498402e-06 1.925330873e-06 1.633150431e-06 1.41542385e-06)
5(2.901052696e-06 2.519416055e-06 2.204041047e-06 1.879188904e-06 1.656871593e-06)
5(3.302968124e-06 2.857996032e-06 2.51491059e-06 2.149667523e-06 1.919742798e-06)
5(3.71086294e-06 3.224027998e-06 2.855695167e-06 2.448079235e-06 2.228565721e-06)
5(4.167585987e-06 3.612125107e-06 3.216020251e-06 2.783178707e-06 2.572810526e-06)
5(4.643842451e-06 4.008443118e-06 3.605618688e-06 3.154853697e-06 2.988006836e-06)
5(5.130046609e-06 4.409604367e-06 4.023858539e-06 3.573486408e-06 3.494532725e-06)
5(5.611755124e-06 4.808181693e-06 4.46731337e-06 4.052900401e-06 4.125096654e-06)
5(6.071092843e-06 5.193520463e-06 4.945680844e-06 4.625608359e-06 4.934597402e-06)
5(6.491057247e-06 5.553549528e-06 5.483104798e-06 5.336920353e-06 6.018656943e-06)
5(6.831257475e-06 5.885873391e-06 6.114889088e-06 6.279568457e-06 7.559478052e-06)
5(7.102587196e-06 6.211226412e-06 6.927907217e-06 7.599871722e-06 9.723461084e-06)
5(7.28157251e-06 6.591317058e-06 8.029594443e-06 9.511699869e-06 1.279337666e-05)
5(7.396185163e-06 7.133809352e-06 9.623842045e-06 1.225440559e-05 1.716073483e-05)
5(7.51135378e-06 8.004005994e-06 1.197667098e-05 1.632412576e-05 2.336232929e-05)
5(7.716580129e-06 9.525303271e-06 1.549921666e-05 2.219223974e-05 3.169167393e-05)
5(8.323579086e-06 1.203952244e-05 2.073816661e-05 3.039922688e-05 4.283442272e-05)
5(9.799176571e-06 1.618296429e-05 2.82176327e-05 4.145822628e-05 5.681549984e-05)
5(1.250275426e-05 2.262766111e-05 3.8566934e-05 5.563829715e-05 7.358838764e-05)
5(1.706187145e-05 3.177975819e-05 5.205612264e-05 7.273562654e-05 9.220849437e-05)
5(2.429878784e-05 4.439360978e-05 6.855155302e-05 9.173217761e-05 0.000110802159)
5(3.469763362e-05 5.975668316e-05 8.664017883e-05 0.0001105564509 0.000126555108)
5(4.819807804e-05 7.727400186e-05 0.0001044351838 0.0001262384398 0.000134941113)
5(6.404182329e-05 9.494609048e-05 0.0001188567149 0.000134902419 0.0001334227336)
5(8.101482606e-05 0.0001092095565 0.0001265616056 0.0001335245323 0.0001207960147)
5(9.590575014e-05 0.0001169882348 0.0001245753983 0.0001207452266 9.855895582e-05)
5(0.0001051713925 0.0001158157458 0.0001121033377 9.845208002e-05 7.16214359e-05)
5(0.0001065140795 0.0001043914225 9.095063541e-05 7.098571109e-05 4.53927407e-05)
5(9.777826895e-05 8.434587148e-05 6.481447391e-05 4.458293055e-05 2.489185085e-05)
5(8.061871684e-05 6.011689104e-05 3.929451646e-05 2.374980523e-05 1.148838199e-05)
5(5.820621738e-05 3.659745828e-05 2.024239336e-05 1.0699349e-05 4.409544248e-06)
5(3.587238253e-05 1.811773985e-05 8.47352608e-06 3.831403297e-06 1.368255589e-06)
5(1.757274689e-05 7.170729864e-06 2.74785901e-06 1.101427457e-06 3.544178504e-07)
5(6.622599171e-06 2.121554365e-06 6.470604984e-07 2.428422559e-07 7.333735001e-08)
5(1.85578524e-06 4.305762537e-07 1.039021922e-07 3.860375857e-08 1.181092278e-08)
5(2.981770676e-07 5.322184312e-08 1.148066e-08 4.302670307e-09 1.517854915e-09)
5(2.004379458e-08 4.437311328e-09 6.632741437e-10 3.149811443e-10 1.039075628e-10)
5(1.331736609e-09 2.429475106e-10 2.152592601e-11 9.749789183e-11 3.808879659e-12)
5(1.539235714e-11 2.208563526e-08 -2.106418579e-10 1.94065996e-08 3.388445217e-14)
5(3.658873714e-13 4.463325098e-11 -1.839110687e-09 1.040694989e-12 1.182790622e-16)
)


60
(
5(1.106887688e-07 8.390736176e-08 9.560543651e-08 7.418463146e-08 5.550507502e-08)
5(1.35678802e-07 1.134102498e-07 1.012199795e-07 7.984625339e-08 5.612153161e-08)
5(1.596556597e-07 1.402726288e-07 1.139996499e-07 9.105696228e-08 6.255763305e-08)
5(1.868039617e-07 1.676643293e-07 1.357890444e-07 1.086591103e-07 7.526282122e-08)
5(2.250680961e-07 2.015867891e-07 1.670252103e-07 1.333831811e-07 9.609509232e-08)
5(2.758326495e-07 2.454625213e-07 2.064366284e-07 1.65732412e-07 1.246321185e-07)
5(3.356109532e-07 2.983122527e-07 2.537828295e-07 2.058176393e-07 1.593943059e-07)
5(4.051277472e-07 3.628291863e-07 3.09997072e-07 2.542663505e-07 1.994931898e-07)
5(4.890672893e-07 4.401419351e-07 3.765878108e-07 3.127017622e-07 2.481553843e-07)
5(5.907794449e-07 5.333518921e-07 4.578616243e-07 3.831729368e-07 3.069412694e-07)
5(7.130457626e-07 6.449004427e-07 5.56300389e-07 4.676457906e-07 3.792740327e-07)
5(8.597707563e-07 7.765165255e-07 6.735509549e-07 5.668187677e-07 4.629338235e-07)
5(1.030508892e-06 9.314221144e-07 8.097783145e-07 6.826011734e-07 5.615546343e-07)
5(1.233442987e-06 1.109252484e-06 9.674743679e-07 8.156482523e-07 6.733844377e-07)
5(1.457795783e-06 1.31324205e-06 1.147533323e-06 9.687600072e-07 8.041733049e-07)
5(1.714163565e-06 1.544124571e-06 1.353935684e-06 1.14454553e-06 9.551844729e-07)
5(2.019219112e-06 1.808199272e-06 1.588051216e-06 1.346345111e-06 1.130115675e-06)
5(2.356623497e-06 2.106856822e-06 1.853225895e-06 1.576219542e-06 1.328156995e-06)
5(2.736406965e-06 2.441613563e-06 2.153713872e-06 1.833786315e-06 1.557840414e-06)
5(3.162179355e-06 2.817533251e-06 2.490159735e-06 2.125199521e-06 1.821596747e-06)
5(3.630751683e-06 3.233008968e-06 2.864075791e-06 2.451565485e-06 2.119351011e-06)
5(4.147622346e-06 3.688532153e-06 3.277969157e-06 2.810253119e-06 2.456853855e-06)
5(4.713987417e-06 4.184922365e-06 3.730454822e-06 3.205220739e-06 2.820740551e-06)
5(5.327762844e-06 4.720262806e-06 4.215348028e-06 3.628717225e-06 3.23792444e-06)
5(5.979045556e-06 5.284745536e-06 4.727485538e-06 4.076718956e-06 3.665116783e-06)
5(6.647868808e-06 5.862450714e-06 5.259400448e-06 4.537450273e-06 4.141218058e-06)
5(7.328721432e-06 6.408962471e-06 5.789144704e-06 5.009888724e-06 4.638822144e-06)
5(8.003722499e-06 6.940346645e-06 6.297779816e-06 5.467557593e-06 5.166802479e-06)
5(8.646131145e-06 7.401988364e-06 6.752187498e-06 5.907027246e-06 5.739623905e-06)
5(9.158367404e-06 7.7524118e-06 7.134879628e-06 6.309215157e-06 6.359888267e-06)
5(9.542777461e-06 7.941835108e-06 7.430958306e-06 6.6855667e-06 7.172916252e-06)
5(9.696981994e-06 7.89280465e-06 7.60095261e-06 7.102682436e-06 8.226191952e-06)
5(9.546917607e-06 7.623339474e-06 7.685839557e-06 7.620321262e-06 9.645853086e-06)
5(9.037689471e-06 7.139220451e-06 7.778326174e-06 8.478095625e-06 1.176025303e-05)
5(8.202065876e-06 6.444670236e-06 7.988803084e-06 9.903566774e-06 1.503167398e-05)
5(7.044785177e-06 5.73612942e-06 8.681764733e-06 1.233747376e-05 1.98089882e-05)
5(5.533696002e-06 5.337599954e-06 1.032109591e-05 1.639018656e-05 2.693879072e-05)
5(4.239474412e-06 5.72497773e-06 1.352377397e-05 2.283339389e-05 3.70006787e-05)
5(3.363698317e-06 7.61980292e-06 1.911956766e-05 3.233632403e-05 5.041115296e-05)
5(3.88234815e-06 1.191272244e-05 2.770509149e-05 4.540626855e-05 6.71070704e-05)
5(6.634478132e-06 1.945775834e-05 3.994458351e-05 6.204821654e-05 8.628764972e-05)
5(1.23237779e-05 3.078453785e-05 5.581985617e-05 8.121255899e-05 0.0001061338472)
5(2.208316677e-05 4.618446796e-05 7.423929408e-05 0.0001008656696 0.0001228349667)
5(3.635488089e-05 6.453936456e-05 9.307771985e-05 0.0001177969808 0.0001331742263)
5(5.411327418e-05 8.388876531e-05 0.0001088837596 0.000127932213 0.0001333712431)
5(7.385507802e-05 0.0001010262286 0.0001185138805 0.0001280570186 0.0001225266629)
5(9.303495252e-05 0.0001118864219 0.0001184843677 0.0001173246884 0.0001016058501)
5(0.0001072604922 0.000113952186 0.000107268552 9.63313101e-05 7.497580719e-05)
5(0.0001125778758 0.000105079428 8.70150094e-05 6.981206176e-05 4.824041288e-05)
5(0.0001071974215 8.672201159e-05 6.187413582e-05 4.42783085e-05 2.652020651e-05)
5(9.125988857e-05 6.259311078e-05 3.763010927e-05 2.361932703e-05 1.228486275e-05)
5(6.851120099e-05 3.802528814e-05 1.895902418e-05 1.044866275e-05 4.728527988e-06)
5(4.393841564e-05 1.942731211e-05 7.6303797e-06 3.588250697e-06 1.36303899e-06)
5(2.296639292e-05 7.847715851e-06 2.300704753e-06 9.406096611e-07 3.38459808e-07)
5(9.003791766e-06 2.23492064e-06 4.91795014e-07 1.702785712e-07 5.81292166e-08)
5(2.896233366e-06 4.352625853e-07 6.577123041e-08 2.119197104e-08 6.032804952e-09)
5(5.409818329e-07 4.841035392e-08 4.364805132e-09 1.696670255e-09 5.332794243e-10)
5(4.977783583e-08 3.1850258e-09 1.862740387e-10 1.224691091e-10 1.89439791e-11)
5(3.226630662e-09 1.812526468e-08 -7.984633739e-12 1.052341073e-08 1.542102198e-13)
5(3.876970277e-09 1.329292538e-11 1.525321593e-08 1.154107842e-16 1.541454587e-16)
)


60
(
5(1.371062045e-07 1.083872735e-07 1.190797038e-07 9.398992958e-08 6.771425297e-08)
5(1.74862889e-07 1.486709786e-07 1.312755327e-07 1.033165996e-07 7.098509248e-08)
5(2.085623457e-07 1.849964552e-07 1.513033698e-07 1.194193179e-07 8.095464302e-08)
5(2.464704329e-07 2.218880005e-07 1.816551964e-07 1.437969087e-07 1.00238824e-07)
5(2.974456452e-07 2.669190523e-07 2.230091573e-07 1.777386011e-07 1.292813552e-07)
5(3.632922821e-07 3.248584132e-07 2.75856693e-07 2.224645051e-07 1.682298202e-07)
5(4.423824866e-07 3.957538575e-07 3.401634354e-07 2.773787135e-07 2.172509102e-07)
5(5.351066409e-07 4.823022058e-07 4.168034306e-07 3.4433774e-07 2.73292974e-07)
5(6.471791951e-07 5.868688165e-07 5.086808011e-07 4.255903208e-07 3.417203428e-07)
5(7.811780292e-07 7.120406799e-07 6.20451179e-07 5.233198486e-07 4.246437659e-07)
5(9.458119803e-07 8.615254967e-07 7.551804002e-07 6.39914667e-07 5.250454173e-07)
5(1.134621571e-06 1.037255379e-06 9.13796581e-07 7.767369578e-07 6.424154491e-07)
5(1.361169466e-06 1.242055044e-06 1.098226896e-06 9.363108134e-07 7.795712651e-07)
5(1.620012561e-06 1.476848681e-06 1.310649309e-06 1.120191392e-06 9.348217062e-07)
5(1.92371426e-06 1.747383655e-06 1.554933407e-06 1.331068207e-06 1.120071333e-06)
5(2.264530526e-06 2.057153476e-06 1.833909314e-06 1.571620712e-06 1.328136685e-06)
5(2.648623834e-06 2.406709387e-06 2.150020245e-06 1.84768477e-06 1.575352222e-06)
5(3.094699873e-06 2.802078317e-06 2.507727219e-06 2.161329425e-06 1.852473059e-06)
5(3.576152302e-06 3.246852063e-06 2.913609491e-06 2.518522672e-06 2.177412586e-06)
5(4.14202922e-06 3.742580501e-06 3.369010417e-06 2.92148843e-06 2.542120984e-06)
5(4.758737386e-06 4.293183898e-06 3.878283083e-06 3.373701939e-06 2.955840178e-06)
5(5.403761e-06 4.902731444e-06 4.439285193e-06 3.872916842e-06 3.418799185e-06)
5(6.149020883e-06 5.566871945e-06 5.05462611e-06 4.419833468e-06 3.929773229e-06)
5(6.978247385e-06 6.28073098e-06 5.713335734e-06 5.010487548e-06 4.482966402e-06)
5(7.818231976e-06 7.031135563e-06 6.417523558e-06 5.631683701e-06 5.091642246e-06)
5(8.719280769e-06 7.812904556e-06 7.149108917e-06 6.264725669e-06 5.68995176e-06)
5(9.655529449e-06 8.607122854e-06 7.87074462e-06 6.888060936e-06 6.292689813e-06)
5(1.057505958e-05 9.366368115e-06 8.553149292e-06 7.469233257e-06 6.89304525e-06)
5(1.142277873e-05 1.002797678e-05 9.148048452e-06 7.961449432e-06 7.434160272e-06)
5(1.218774581e-05 1.054139203e-05 9.60737108e-06 8.326534971e-06 7.909893354e-06)
5(1.278946468e-05 1.084681957e-05 9.853421674e-06 8.516149156e-06 8.339030697e-06)
5(1.308958914e-05 1.083388991e-05 9.825992462e-06 8.481246994e-06 8.694327417e-06)
5(1.300894664e-05 1.04244067e-05 9.482846768e-06 8.244128067e-06 9.063287355e-06)
5(1.240054406e-05 9.504305874e-06 8.776982985e-06 7.916097107e-06 9.901176595e-06)
5(1.129554375e-05 8.06318149e-06 7.783828537e-06 7.615106195e-06 1.087931344e-05)
5(9.550537964e-06 6.20398309e-06 6.725448444e-06 7.704881367e-06 1.308899085e-05)
5(7.133504783e-06 4.153235396e-06 5.945793242e-06 8.800037708e-06 1.685705372e-05)
5(4.242611014e-06 2.199502514e-06 6.059020818e-06 1.152697213e-05 2.313976299e-05)
5(1.324850035e-06 9.936719076e-07 7.770214024e-06 1.688617088e-05 3.274774136e-05)
5(-8.86964877e-07 1.435835988e-06 1.216475686e-05 2.577144695e-05 4.638011406e-05)
5(-1.793009766e-06 4.63084539e-06 2.027805686e-05 3.884309326e-05 6.348987614e-05)
5(5.521124584e-08 1.173439582e-05 3.288098415e-05 5.617662662e-05 8.412215779e-05)
5(5.602238185e-06 2.359110524e-05 4.995172201e-05 7.675480332e-05 0.0001051129662)
5(1.617079366e-05 4.037476528e-05 7.027800491e-05 9.818945793e-05 0.0001232154465)
5(3.220627057e-05 6.137228225e-05 9.135341321e-05 0.0001166229427 0.000134163068)
5(5.290944089e-05 8.423077192e-05 0.0001099621782 0.0001277881736 0.0001352791665)
5(7.554940494e-05 0.0001050143516 0.0001216494805 0.0001282482168 0.0001241815391)
5(9.918220587e-05 0.0001197328948 0.0001222593807 0.0001174313608 0.0001029335186)
5(0.0001172960725 0.0001246102894 0.0001116866401 9.624029829e-05 7.544651277e-05)
5(0.0001256198612 0.0001175128442 9.105772777e-05 6.93302871e-05 4.806186873e-05)
5(0.0001229900794 9.878369716e-05 6.455058715e-05 4.303587691e-05 2.606920405e-05)
5(0.0001078993071 7.41363955e-05 3.896227814e-05 2.250955357e-05 1.18578133e-05)
5(8.357135491e-05 4.622977226e-05 1.973753498e-05 9.351517436e-06 4.222715083e-06)
5(5.731237143e-05 2.425555577e-05 7.693666188e-06 3.105152753e-06 1.191372891e-06)
5(3.149463485e-05 1.01286811e-05 2.184546379e-06 7.221527714e-07 2.30060048e-07)
5(1.539583896e-05 3.119615407e-06 3.753518394e-07 1.084105231e-07 3.090591323e-08)
5(5.42556379e-06 7.521125251e-07 5.375591147e-08 9.595433519e-09 2.15115032e-09)
5(1.500360743e-06 7.952035171e-08 3.258450764e-09 3.797307798e-10 1.034462795e-10)
5(3.2627028e-07 -1.506272123e-08 3.012320206e-10 -1.940031984e-08 6.568616571e-13)
5(4.405159673e-07 1.0084055e-08 5.739562203e-08 -1.000208826e-12 6.549811573e-13)
)


60
(
5(1.642169926e-07 1.338148968e-07 1.429342432e-07 1.142277109e-07 8.060713439e-08)
5(2.150104525e-07 1.848132465e-07 1.614516794e-07 1.273920449e-07 8.660171314e-08)
5(2.59781559e-07 2.312319265e-07 1.891787591e-07 1.486504585e-07 1.009851759e-07)
5(3.084930706e-07 2.777872646e-07 2.286784533e-07 1.802131945e-07 1.259420886e-07)
5(3.731470069e-07 3.345777187e-07 2.81624876e-07 2.24002931e-07 1.646645454e-07)
5(4.547962697e-07 4.075977142e-07 3.480097481e-07 2.811794213e-07 2.157405624e-07)
5(5.539715813e-07 4.970131656e-07 4.296927622e-07 3.523902862e-07 2.786968971e-07)
5(6.721227163e-07 6.062292478e-07 5.282251185e-07 4.396841372e-07 3.537459484e-07)
5(8.11453676e-07 7.397367451e-07 6.470477831e-07 5.452669811e-07 4.436142762e-07)
5(9.843358645e-07 8.984810695e-07 7.907331614e-07 6.726343893e-07 5.557146801e-07)
5(1.185796384e-06 1.086882645e-06 9.631278379e-07 8.234863261e-07 6.85669196e-07)
5(1.425110102e-06 1.306605989e-06 1.165447792e-06 1.001125189e-06 8.407299574e-07)
5(1.708078439e-06 1.562290081e-06 1.401232744e-06 1.206927874e-06 1.018581017e-06)
5(2.030248329e-06 1.858961998e-06 1.670597924e-06 1.444034562e-06 1.226494407e-06)
5(2.407347619e-06 2.199839523e-06 1.980298081e-06 1.715964222e-06 1.465563716e-06)
5(2.832736445e-06 2.586631925e-06 2.332689508e-06 2.025787307e-06 1.743132328e-06)
5(3.31198577e-06 3.023954852e-06 2.736979889e-06 2.380338714e-06 2.063201896e-06)
5(3.847735439e-06 3.518266373e-06 3.194212783e-06 2.785602751e-06 2.43583661e-06)
5(4.475497208e-06 4.07689286e-06 3.710887737e-06 3.250410153e-06 2.85296516e-06)
5(5.142925598e-06 4.696701044e-06 4.288413705e-06 3.7732822e-06 3.344622733e-06)
5(5.904170934e-06 5.386161516e-06 4.935220147e-06 4.360493355e-06 3.878280501e-06)
5(6.757610742e-06 6.156438566e-06 5.655995046e-06 5.01244977e-06 4.494852222e-06)
5(7.646526326e-06 6.997737072e-06 6.448220861e-06 5.727749851e-06 5.171686154e-06)
5(8.675001481e-06 7.904251693e-06 7.308535521e-06 6.505082752e-06 5.901683627e-06)
5(9.741457164e-06 8.875754185e-06 8.228876234e-06 7.330528516e-06 6.699075982e-06)
5(1.086288713e-05 9.883851059e-06 9.178465368e-06 8.185607048e-06 7.482842793e-06)
5(1.209344224e-05 1.094736364e-05 1.014360197e-05 9.03393542e-06 8.313013637e-06)
5(1.328567029e-05 1.198510151e-05 1.108929173e-05 9.830660617e-06 9.074378468e-06)
5(1.438652712e-05 1.293592732e-05 1.193272547e-05 1.051787771e-05 9.71894536e-06)
5(1.550338158e-05 1.374961199e-05 1.261382456e-05 1.103582739e-05 1.025159166e-05)
5(1.641863036e-05 1.435084822e-05 1.303822044e-05 1.127222881e-05 1.059189219e-05)
5(1.700506102e-05 1.461844161e-05 1.311172248e-05 1.11460188e-05 1.063960233e-05)
5(1.719811034e-05 1.440092085e-05 1.271066079e-05 1.0626246e-05 1.039527131e-05)
5(1.688904028e-05 1.356732672e-05 1.175836405e-05 9.684236119e-06 1.011368513e-05)
5(1.590188959e-05 1.207711344e-05 1.030139082e-05 8.40932764e-06 9.868334918e-06)
5(1.410084161e-05 9.878784228e-06 8.302799201e-06 7.021476469e-06 9.937034494e-06)
5(1.153362717e-05 7.067710835e-06 6.008246437e-06 5.965176448e-06 1.113792532e-05)
5(8.223441132e-06 3.848760855e-06 3.935163969e-06 5.772571389e-06 1.392906696e-05)
5(4.3320376e-06 6.947323344e-07 2.770211559e-06 7.472480164e-06 1.961441482e-05)
5(3.491545509e-07 -1.578963168e-06 3.617757441e-06 1.219402376e-05 2.929585944e-05)
5(-2.919472034e-06 -1.944210599e-06 7.548049099e-06 2.108847502e-05 4.358519991e-05)
5(-4.386549311e-06 8.935180496e-07 1.585452394e-05 3.498276277e-05 6.209789153e-05)
5(-2.860577388e-06 8.203636489e-06 2.945432772e-05 5.401046848e-05 8.449716834e-05)
5(3.166091536e-06 2.116968025e-05 4.829543278e-05 7.660076858e-05 0.0001069001397)
5(1.479897437e-05 3.990992805e-05 7.160683972e-05 0.0001002226226 0.000126560817)
5(3.233624543e-05 6.348509566e-05 9.581767189e-05 0.000120371979 0.0001378614798)
5(5.45457053e-05 8.934260537e-05 0.0001172674123 0.0001323712726 0.0001383546184)
5(7.939399881e-05 0.0001132819162 0.0001311665284 0.0001335215008 0.0001262978459)
5(0.0001046306797 0.0001309631172 0.0001336432316 0.0001216844089 0.0001040732057)
5(0.0001243244942 0.0001378987039 0.000123054658 9.921813313e-05 7.547296528e-05)
5(0.0001357512458 0.0001318303435 0.0001012505302 7.129215516e-05 4.729574582e-05)
5(0.0001355133877 0.0001141788278 7.299459863e-05 4.417910404e-05 2.464117875e-05)
5(0.0001236248014 8.694992383e-05 4.542171428e-05 2.256232824e-05 1.093490204e-05)