/*--------------------------------*- C++ -*----------------------------------*\
| =========                 |                                                 |
| \\      /  F ield         | OpenFOAM: The Open Source CFD Toolbox           |
|  \\    /   O peration     | Version:  2.3.1                                 |
|   \\  /    A nd           | Web:      www.OpenFOAM.org                      |
|    \\/     M anipulation  |                                                 |
\*---------------------------------------------------------------------------*/
FoamFile
{
    version     2.0;
    format      ascii;
    class       dictionary;
    location    "constant";
    object      GRPSI11;
}
// * * * * * * * * * * * * * * * * * * * * * * * * * * * * * * * * * * * * * //

GRPSI11_table
60
(

60
(
5(-9.531124241e-05 -8.018929959e-05 -0.000202494469 -0.0001571154176 -0.0003662036501)
5(-9.508807348e-05 -2.918694196e-05 -0.0001463180117 -0.0001221010288 -0.0003165814456)
5(-4.743245228e-05 1.64310853e-05 -4.222067615e-05 -6.860132604e-05 -7.10480925e-05)
5(0 4.949916137e-06 9.898047869e-06 4.291638739e-06 4.764909344e-05)
5(1.780872574e-05 -1.381666344e-06 -1.511110566e-05 3.727938442e-05 -1.786407664e-05)
5(3.260380415e-05 -8.381218313e-07 -1.257157302e-05 -1.424557862e-06 4.197207651e-05)
5(2.104733335e-06 2.737172072e-06 2.845145262e-05 2.279232563e-06 -6.843995321e-06)
5(-9.991952037e-06 7.908268267e-06 1.700163722e-05 1.896552892e-05 -2.573158757e-05)
5(1.614440425e-06 1.074791285e-05 1.437396964e-05 8.948734542e-06 3.880076599e-05)
5(3.974220566e-07 9.15918578e-06 2.11779083e-05 9.844225304e-06 2.207444134e-05)
5(6.628516606e-06 9.650339664e-06 2.542366995e-06 1.548233386e-05 9.55355353e-06)
5(1.680062988e-05 1.173660615e-05 1.356608013e-06 1.986047505e-05 1.369391502e-05)
5(2.127758047e-05 1.150196008e-05 1.133256829e-05 1.060504735e-05 1.491048385e-05)
5(8.363516161e-06 7.660116791e-06 9.666924401e-06 7.945102642e-06 5.939899836e-06)
5(1.077157472e-06 1.678753772e-06 6.310073518e-06 1.240815188e-05 8.721706643e-06)
5(5.349317651e-06 3.105763015e-06 6.611340874e-06 7.252092882e-06 1.15818357e-05)
5(7.785266748e-06 6.817129074e-06 9.525169848e-06 1.038709912e-05 9.298929582e-06)
5(8.036543616e-06 7.776962786e-06 8.988975468e-06 4.767972467e-06 -1.675825803e-06)
5(7.139227229e-06 9.700898674e-06 4.296851555e-06 2.134939451e-06 -7.043703395e-06)
5(4.093904679e-06 2.864935502e-06 -1.697941073e-06 -1.626134736e-06 -6.839505766e-06)
5(5.799682457e-07 -4.057899917e-06 -5.900897986e-06 -1.658337949e-05 -1.364561862e-05)
5(1.712224527e-06 -2.566059509e-06 -5.842246093e-06 -1.247702215e-05 -1.264336503e-05)
5(-1.02230267e-06 -1.859150832e-06 -8.004889447e-06 -6.290356733e-06 -9.934518788e-06)
5(-3.591492922e-06 -4.27925292e-06 -7.905130046e-06 -1.02284959e-05 -1.340116886e-05)
5(-3.60872418e-06 -8.096774721e-06 -7.241646139e-06 -8.70554845e-06 -1.315078859e-05)
5(-4.605523819e-06 -9.080360616e-06 -1.060777753e-05 -9.999548334e-06 -1.40581411e-05)
5(-5.765679425e-06 -8.272755903e-06 -1.168764071e-05 -1.162739923e-05 -1.32988538e-05)
5(-5.198926899e-06 -6.973046042e-06 -1.044232451e-05 -1.242911407e-05 -1.235065271e-05)
5(-4.521767808e-06 -6.157561698e-06 -1.132257124e-05 -1.328045993e-05 -1.185820534e-05)
5(-4.980309031e-06 -5.869528557e-06 -8.756329555e-06 -1.054617624e-05 -1.086145672e-05)
5(-4.75180698e-06 -6.666317553e-06 -8.665344559e-06 -9.868224207e-06 -1.23069129e-05)
5(-5.344619045e-06 -6.371289031e-06 -8.407053159e-06 -9.967978657e-06 -8.82786477e-06)
5(-4.613390788e-06 -4.867423818e-06 -5.808821339e-06 -7.82170465e-06 -7.59684384e-06)
5(-3.596986087e-06 -4.87577532e-06 -6.025149361e-06 -7.163606554e-06 -8.806151215e-06)
5(-3.359878433e-06 -3.89659587e-06 -4.434420392e-06 -5.865648527e-06 -5.303863586e-06)
5(-3.139041083e-06 -4.707607082e-06 -6.485408029e-06 -6.416758887e-06 -5.667160586e-06)
5(-2.894997648e-06 -4.547249344e-06 -7.875852742e-06 -5.600459364e-06 -9.202897013e-06)
5(-2.394601162e-06 -3.107350559e-06 -3.848902215e-06 -4.509156895e-06 -4.484139963e-06)
5(-1.285918293e-06 -3.595502085e-06 -2.616409634e-06 -4.220471247e-06 -1.340013718e-05)
5(-1.801696797e-06 -4.120480986e-06 -4.560624498e-06 -3.811109547e-06 -1.471260303e-05)
5(-3.506245117e-06 -4.4794338e-06 -5.703085895e-06 -7.394260332e-06 6.823025997e-07)
5(-3.668503353e-06 -4.511246566e-06 -4.6973374e-06 -1.459951181e-05 6.52711907e-07)
5(-3.107050604e-06 -3.602267679e-06 -9.058768424e-07 -8.834003099e-06 2.236105561e-06)
5(-3.007143968e-06 -2.913759628e-06 -8.595392613e-07 1.363512917e-06 1.504681124e-06)
5(-4.037484237e-06 -2.830149239e-06 -5.051096554e-06 1.550511514e-06 4.728591648e-07)
5(-4.457044471e-06 -2.729665312e-06 -8.656166776e-06 1.841690261e-06 1.55022859e-06)
5(-3.143879603e-06 -5.075876069e-06 -7.457806409e-06 1.951312683e-06 1.913957308e-06)
5(-2.900573993e-06 -2.955964089e-06 -6.329159022e-07 2.083719271e-06 2.137662228e-06)
5(-2.776920432e-06 -4.493044511e-06 2.018489288e-06 2.39213201e-06 2.3590438e-06)
5(-2.05396713e-06 -3.611597249e-06 2.564988108e-06 2.651920597e-06 2.603279665e-06)
5(-5.113026209e-06 2.582973138e-06 2.848115317e-06 2.925370268e-06 2.86989386e-06)
5(-4.649191372e-06 2.960477827e-06 3.126017927e-06 3.196102916e-06 3.136507235e-06)
5(8.187590959e-07 3.231220225e-06 3.433840581e-06 3.484638554e-06 3.450871691e-06)
5(3.044832087e-06 3.511658053e-06 3.753359328e-06 3.810064186e-06 3.784085556e-06)
5(3.798227132e-06 3.828591372e-06 4.080733126e-06 4.131144817e-06 4.110704268e-06)
5(4.688466952e-06 4.186011427e-06 4.432577105e-06 4.463946331e-06 4.514187483e-06)
5(5.130544828e-06 4.786252334e-06 4.83727251e-06 4.894423259e-06 4.796186411e-06)
5(5.016103267e-06 5.464017757e-06 5.523257411e-06 4.709312942e-06 5.328952934e-06)
5(5.054827841e-06 6.225521994e-06 6.759417367e-06 7.098629411e-06 6.835701635e-06)
5(5.167421756e-06 6.719238279e-06 7.535465071e-06 9.910061331e-06 7.86048692e-06)
)


60
(
5(-5.520690036e-05 1.474678433e-05 -0.0001459725906 -9.335218114e-05 -0.0002652745917)
5(-3.684947964e-05 1.843994209e-05 -9.773981245e-05 -5.751878886e-05 -0.0001876163841)
5(-3.87087228e-06 2.607787985e-05 -1.452557896e-05 3.715854261e-06 -4.919622378e-05)
5(2.201850217e-05 3.41373319e-05 4.158886241e-05 4.304573938e-05 4.566930391e-05)
5(3.820525779e-05 4.020133986e-05 6.482381215e-05 5.802013531e-05 8.163825546e-05)
5(4.067289046e-05 4.161854427e-05 5.831230733e-05 5.351515884e-05 6.505828802e-05)
5(3.50246717e-05 3.993880817e-05 4.426430691e-05 4.186901517e-05 3.295897426e-05)
5(3.10433817e-05 3.753058793e-05 3.532637699e-05 3.089600194e-05 1.323606486e-05)
5(3.149679863e-05 3.562588269e-05 3.149149632e-05 2.384180988e-05 4.609439956e-06)
5(3.253673856e-05 3.337515665e-05 2.943038605e-05 1.764706836e-05 -3.976816784e-07)
5(3.198369323e-05 2.891602349e-05 2.472823697e-05 8.582970145e-06 -7.661036735e-06)
5(2.945402378e-05 2.294644249e-05 1.671106231e-05 -1.867988826e-06 -1.886877132e-05)
5(2.456291104e-05 1.610267165e-05 6.470700017e-06 -1.139218236e-05 -2.914752459e-05)
5(1.901157664e-05 8.468217531e-06 -3.310699599e-06 -2.01836535e-05 -3.623230934e-05)
5(1.345947359e-05 1.294691613e-06 -1.145277711e-05 -2.801319503e-05 -4.161799619e-05)
5(7.306493529e-06 -5.543762652e-06 -1.844573119e-05 -3.355313606e-05 -4.505627421e-05)
5(1.008669513e-06 -1.222512704e-05 -2.500605795e-05 -3.795205611e-05 -4.669158387e-05)
5(-4.797690567e-06 -1.830618993e-05 -3.052392309e-05 -4.095839364e-05 -4.711247963e-05)
5(-1.048994599e-05 -2.328708121e-05 -3.454678347e-05 -4.238146387e-05 -4.641123955e-05)
5(-1.562245436e-05 -2.702560712e-05 -3.712354823e-05 -4.288687052e-05 -4.501019708e-05)
5(-1.996161514e-05 -2.979537643e-05 -3.858145896e-05 -4.226061938e-05 -4.304322824e-05)
5(-2.318161337e-05 -3.151952559e-05 -3.885980551e-05 -4.083104226e-05 -4.037414277e-05)
5(-2.521032674e-05 -3.229830456e-05 -3.805016304e-05 -3.915003712e-05 -3.768871026e-05)
5(-2.671245168e-05 -3.216022586e-05 -3.678216584e-05 -3.679855683e-05 -3.493048091e-05)
5(-2.724131796e-05 -3.132675627e-05 -3.482731708e-05 -3.407020669e-05 -3.209704414e-05)
5(-2.686199931e-05 -3.006121486e-05 -3.260953133e-05 -3.146384402e-05 -2.938921616e-05)
5(-2.617981604e-05 -2.829610534e-05 -3.047779124e-05 -2.894597322e-05 -2.686420581e-05)
5(-2.493756085e-05 -2.619963988e-05 -2.801877366e-05 -2.65201347e-05 -2.434992769e-05)
5(-2.325923345e-05 -2.422702735e-05 -2.557496647e-05 -2.411437468e-05 -2.207339254e-05)
5(-2.143793035e-05 -2.219895611e-05 -2.325981558e-05 -2.183077518e-05 -2.002347394e-05)
5(-1.959414626e-05 -2.01012991e-05 -2.107689968e-05 -1.974324218e-05 -1.808357364e-05)
5(-1.766576331e-05 -1.806468456e-05 -1.894408122e-05 -1.781754108e-05 -1.64261021e-05)
5(-1.575027728e-05 -1.615082763e-05 -1.694869609e-05 -1.608406128e-05 -1.492537814e-05)
5(-1.396152893e-05 -1.438211064e-05 -1.520867975e-05 -1.453431766e-05 -1.357684909e-05)
5(-1.220832203e-05 -1.279408946e-05 -1.364237568e-05 -1.317329547e-05 -1.242378944e-05)
5(-1.070030956e-05 -1.143335672e-05 -1.230378462e-05 -1.206287297e-05 -1.140369818e-05)
5(-9.384621914e-06 -1.027064724e-05 -1.121350092e-05 -1.114213164e-05 -1.050091272e-05)
5(-8.224724182e-06 -9.42345622e-06 -1.039902277e-05 -1.035557649e-05 -9.906989479e-06)
5(-7.542307215e-06 -8.808240575e-06 -9.841818153e-06 -9.857960353e-06 -9.680027243e-06)
5(-7.151967128e-06 -8.518828064e-06 -9.587550182e-06 -9.591621264e-06 -9.749402145e-06)
5(-7.135006713e-06 -8.447237726e-06 -9.417423471e-06 -9.527347849e-06 -9.810726783e-06)
5(-7.311368355e-06 -8.597774757e-06 -9.305609691e-06 -9.686058207e-06 -9.602309663e-06)
5(-7.738373431e-06 -9.123330355e-06 -9.298094093e-06 -9.888096775e-06 -9.076675856e-06)
5(-8.499933497e-06 -9.421288805e-06 -9.32915415e-06 -9.905496392e-06 -8.329852664e-06)
5(-9.278344751e-06 -9.497399147e-06 -9.443333656e-06 -9.548692009e-06 -7.5237984e-06)
5(-9.879212447e-06 -9.470993268e-06 -9.573304648e-06 -8.792202537e-06 -6.662569116e-06)
5(-1.014974638e-05 -9.325160368e-06 -9.496693469e-06 -7.811771207e-06 -5.743147279e-06)
5(-1.003030723e-05 -9.170019799e-06 -9.01750168e-06 -6.791334343e-06 -4.759388605e-06)
5(-9.774418945e-06 -9.084457782e-06 -8.237520371e-06 -5.785585887e-06 -3.7426598e-06)
5(-9.462261653e-06 -8.968471412e-06 -7.299375213e-06 -4.764651902e-06 -2.745464837e-06)
5(-9.269822486e-06 -8.569932675e-06 -6.30964836e-06 -3.704175729e-06 -1.7716992e-06)
5(-9.330195184e-06 -7.853230662e-06 -5.254552283e-06 -2.641870712e-06 -8.512400234e-07)
5(-9.451635217e-06 -6.930370751e-06 -4.165803367e-06 -1.618640945e-06 4.971474222e-08)
5(-9.440149917e-06 -5.868985422e-06 -3.047212734e-06 -5.827205862e-07 9.326367169e-07)
5(-8.926348713e-06 -4.729614321e-06 -1.910323003e-06 4.359402447e-07 1.769630948e-06)
5(-7.944733058e-06 -3.593076007e-06 -8.043454396e-07 1.376792901e-06 2.576249738e-06)
5(-6.606559077e-06 -2.399510845e-06 2.678640237e-07 2.267291622e-06 3.352051281e-06)
5(-4.971076967e-06 -1.209008103e-06 1.242564139e-06 3.122576917e-06 4.157410747e-06)
5(-3.063443897e-06 2.016960158e-07 2.275634832e-06 4.676211934e-06 5.447186192e-06)
5(-2.034743824e-06 1.037345837e-06 2.854305961e-06 5.808276815e-06 6.317266965e-06)
)


60
(
5(-2.305993046e-05 5.302454022e-05 -0.000107689561 -5.783911659e-05 -0.0002021290345)
5(-9.614071944e-06 5.110802391e-05 -6.292859728e-05 -2.696145173e-05 -0.0001365188656)
5(1.62632093e-05 4.973853973e-05 1.322089685e-05 2.455222814e-05 -2.409609853e-05)
5(3.963976401e-05 5.326028387e-05 6.107218891e-05 5.438017708e-05 4.530705337e-05)
5(5.519944207e-05 5.748661738e-05 7.706671186e-05 6.068188057e-05 6.267812175e-05)
5(5.678708607e-05 5.627164832e-05 6.666031107e-05 4.894732648e-05 3.892205079e-05)
5(4.996431691e-05 5.12141444e-05 4.825571323e-05 3.123076965e-05 6.319639036e-06)
5(4.454833881e-05 4.556830131e-05 3.428614798e-05 1.562086875e-05 -1.543603906e-05)
5(4.217566758e-05 3.910207675e-05 2.488022673e-05 3.100285222e-06 -2.683888496e-05)
5(3.972542156e-05 3.155190832e-05 1.676670953e-05 -8.416995042e-06 -3.558582302e-05)
5(3.521955386e-05 2.24810948e-05 6.717074942e-06 -2.027838287e-05 -4.532339421e-05)
5(2.877460541e-05 1.26616672e-05 -5.236900943e-06 -3.1626406e-05 -5.38652374e-05)
5(2.057211221e-05 2.464102643e-06 -1.727814484e-05 -4.124140628e-05 -6.016893506e-05)
5(1.147397627e-05 -7.771637589e-06 -2.796072059e-05 -4.886087034e-05 -6.403219332e-05)
5(2.326477516e-06 -1.718436453e-05 -3.666533455e-05 -5.422014089e-05 -6.547286332e-05)
5(-5.919492875e-06 -2.546909665e-05 -4.336375056e-05 -5.745361158e-05 -6.493474685e-05)
5(-1.350767666e-05 -3.234560278e-05 -4.82617512e-05 -5.892187457e-05 -6.332058719e-05)
5(-2.093411149e-05 -3.771515916e-05 -5.153457797e-05 -5.902929668e-05 -6.075165542e-05)
5(-2.717839557e-05 -4.168802555e-05 -5.328600448e-05 -5.789326704e-05 -5.745322401e-05)
5(-3.223692857e-05 -4.419018537e-05 -5.367708888e-05 -5.581796765e-05 -5.376724689e-05)
5(-3.575740359e-05 -4.535999108e-05 -5.281030125e-05 -5.318909468e-05 -4.999343833e-05)
5(-3.793796142e-05 -4.552446268e-05 -5.098255147e-05 -5.003716921e-05 -4.618857345e-05)
5(-3.927919574e-05 -4.473837685e-05 -4.847987097e-05 -4.659946349e-05 -4.239481361e-05)
5(-3.946938042e-05 -4.320248757e-05 -4.568446962e-05 -4.313083918e-05 -3.877318233e-05)
5(-3.859339199e-05 -4.107456762e-05 -4.262213778e-05 -3.965671811e-05 -3.540027325e-05)
5(-3.713271968e-05 -3.862120437e-05 -3.947949232e-05 -3.631348846e-05 -3.218745299e-05)
5(-3.540928491e-05 -3.586778789e-05 -3.625076637e-05 -3.311518098e-05 -2.918594988e-05)
5(-3.303895948e-05 -3.304629177e-05 -3.309095738e-05 -3.011541522e-05 -2.645894696e-05)
5(-3.052594868e-05 -3.030763803e-05 -3.010771476e-05 -2.729739901e-05 -2.393203564e-05)
5(-2.804081773e-05 -2.749942839e-05 -2.723782291e-05 -2.465322812e-05 -2.162436651e-05)
5(-2.542237135e-05 -2.486103341e-05 -2.457957439e-05 -2.224196835e-05 -1.950658655e-05)
5(-2.297024283e-05 -2.241081737e-05 -2.205625512e-05 -2.000394149e-05 -1.762890729e-05)
5(-2.051861301e-05 -1.998090358e-05 -1.972463873e-05 -1.797434903e-05 -1.59470242e-05)
5(-1.823952832e-05 -1.775749578e-05 -1.766220318e-05 -1.616960702e-05 -1.444463222e-05)
5(-1.624711178e-05 -1.579251196e-05 -1.574954755e-05 -1.457223184e-05 -1.308942569e-05)
5(-1.419626238e-05 -1.40079846e-05 -1.40650355e-05 -1.318841836e-05 -1.195111164e-05)
5(-1.224173344e-05 -1.246366211e-05 -1.26816411e-05 -1.201876885e-05 -1.098799702e-05)
5(-1.076266635e-05 -1.117406561e-05 -1.156956187e-05 -1.109093273e-05 -1.026609142e-05)
5(-9.632983209e-06 -1.022800594e-05 -1.074406072e-05 -1.042583789e-05 -9.915754316e-06)
5(-8.866869111e-06 -9.586423273e-06 -1.01721721e-05 -1.001194781e-05 -9.812481561e-06)
5(-8.307866833e-06 -9.226781768e-06 -9.863094483e-06 -9.848337522e-06 -9.80252865e-06)
5(-8.151989181e-06 -9.215956131e-06 -9.767255387e-06 -9.933329491e-06 -9.718196782e-06)
5(-8.441982221e-06 -9.465817899e-06 -9.790322458e-06 -1.016234348e-05 -9.488443604e-06)
5(-8.927834334e-06 -9.839795356e-06 -9.940877133e-06 -1.031083881e-05 -9.091647774e-06)
5(-9.565839944e-06 -1.014521568e-05 -1.015653987e-05 -1.021175546e-05 -8.599271409e-06)
5(-1.020253193e-05 -1.027161801e-05 -1.035128964e-05 -9.810379953e-06 -8.027184415e-06)
5(-1.06715835e-05 -1.03072528e-05 -1.037283815e-05 -9.161940005e-06 -7.337724483e-06)
5(-1.083590009e-05 -1.029205397e-05 -1.007415094e-05 -8.398465602e-06 -6.563397545e-06)
5(-1.067106156e-05 -1.018980447e-05 -9.486263802e-06 -7.597992218e-06 -5.720521196e-06)
5(-1.031986012e-05 -9.992477102e-06 -8.75048173e-06 -6.774858086e-06 -4.850269623e-06)
5(-1.003445058e-05 -9.663868387e-06 -7.997334022e-06 -5.94195571e-06 -3.98318135e-06)
5(-9.9846991e-06 -9.188225572e-06 -7.267704056e-06 -5.086905957e-06 -3.117508212e-06)
5(-1.016379694e-05 -8.64068902e-06 -6.521349061e-06 -4.189594715e-06 -2.217503017e-06)
5(-1.038790926e-05 -8.072440801e-06 -5.695439298e-06 -3.230093963e-06 -1.261335485e-06)
5(-1.046903875e-05 -7.424757287e-06 -4.772717457e-06 -2.210027874e-06 -2.834604579e-07)
5(-1.023157822e-05 -6.607879164e-06 -3.741857692e-06 -1.155316042e-06 6.925391464e-07)
5(-9.510252455e-06 -5.609632006e-06 -2.642736602e-06 -5.483605561e-08 1.689778849e-06)
5(-8.185693428e-06 -4.350274465e-06 -1.417688112e-06 1.092985408e-06 2.747618866e-06)
5(-4.900801073e-06 -1.470854005e-06 1.869340798e-06 4.531777383e-06 5.185328111e-06)
5(-2.442306871e-06 6.94657981e-07 4.488087035e-06 7.385865135e-06 7.0725244e-06)
)


60
(
5(7.774329356e-06 8.886435525e-05 -7.277185153e-05 -3.045476254e-05 -0.0001563151802)
5(1.650982572e-05 8.087733299e-05 -3.296620848e-05 -5.41804729e-06 -0.0001032324715)
5(3.487198559e-05 6.937761361e-05 3.352542021e-05 3.464194937e-05 -1.51714897e-05)
5(5.4574795e-05 6.703053774e-05 7.166442213e-05 5.390337129e-05 3.232508919e-05)
5(6.858057338e-05 6.800670177e-05 7.954440809e-05 5.213004048e-05 3.593614202e-05)
5(6.843035985e-05 6.373889762e-05 6.43596797e-05 3.447428964e-05 8.499919765e-06)
5(5.951110856e-05 5.498612514e-05 4.234718198e-05 1.264529824e-05 -2.326370246e-05)
5(5.153275633e-05 4.517164766e-05 2.433293258e-05 -5.698256502e-06 -4.445092088e-05)
5(4.604646196e-05 3.481239992e-05 1.082376058e-05 -2.073871935e-05 -5.684104779e-05)
5(4.036515598e-05 2.350229124e-05 -1.190152245e-06 -3.411392798e-05 -6.54695773e-05)
5(3.24252613e-05 1.118270809e-05 -1.409996294e-05 -4.635202761e-05 -7.280650516e-05)
5(2.242207764e-05 -1.435105458e-06 -2.747483155e-05 -5.664096742e-05 -7.834324099e-05)
5(1.157315014e-05 -1.371929515e-05 -3.960906193e-05 -6.448903643e-05 -8.152030883e-05)
5(5.177036839e-07 -2.488375018e-05 -4.945121034e-05 -6.987609971e-05 -8.182225944e-05)
5(-1.019255755e-05 -3.440358948e-05 -5.674996634e-05 -7.286896876e-05 -8.015517423e-05)
5(-2.002007056e-05 -4.235073207e-05 -6.187745958e-05 -7.370980619e-05 -7.722239113e-05)
5(-2.833803223e-05 -4.879386424e-05 -6.51565719e-05 -7.292597051e-05 -7.325419732e-05)
5(-3.563114784e-05 -5.313392188e-05 -6.640107827e-05 -7.085020172e-05 -6.880359456e-05)
5(-4.133315826e-05 -5.571199449e-05 -6.608470746e-05 -6.777446725e-05 -6.408014364e-05)
5(-4.527219637e-05 -5.69981998e-05 -6.457010888e-05 -6.407006328e-05 -5.916459859e-05)
5(-4.84729753e-05 -5.67551591e-05 -6.20394399e-05 -6.002769926e-05 -5.446493382e-05)
5(-4.974142569e-05 -5.54625159e-05 -5.893930026e-05 -5.582439836e-05 -4.990929553e-05)
5(-4.91626736e-05 -5.353070116e-05 -5.545396203e-05 -5.15545915e-05 -4.553631898e-05)
5(-4.821890634e-05 -5.089333212e-05 -5.161748603e-05 -4.738919228e-05 -4.14238338e-05)
5(-4.677888301e-05 -4.7762346e-05 -4.766872139e-05 -4.33925663e-05 -3.767802956e-05)
5(-4.444508449e-05 -4.444835823e-05 -4.387153693e-05 -3.95963498e-05 -3.425905608e-05)
5(-4.172938892e-05 -4.113220168e-05 -4.017145686e-05 -3.60275063e-05 -3.099363086e-05)
5(-3.880679444e-05 -3.780131402e-05 -3.662383103e-05 -3.269757226e-05 -2.806764162e-05)
5(-3.583342183e-05 -3.455253854e-05 -3.325494229e-05 -2.960047808e-05 -2.535761135e-05)
5(-3.279714244e-05 -3.142774276e-05 -3.008505995e-05 -2.673014529e-05 -2.287409671e-05)
5(-2.979030623e-05 -2.842290049e-05 -2.714131211e-05 -2.408024155e-05 -2.06356422e-05)
5(-2.691890675e-05 -2.556981898e-05 -2.434467679e-05 -2.165192157e-05 -1.857035608e-05)
5(-2.417414095e-05 -2.289778236e-05 -2.176459121e-05 -1.942570009e-05 -1.67468549e-05)
5(-2.154999787e-05 -2.03961058e-05 -1.945820557e-05 -1.740505597e-05 -1.512153737e-05)
5(-1.910292128e-05 -1.810639609e-05 -1.734217267e-05 -1.560853978e-05 -1.364991062e-05)
5(-1.682175691e-05 -1.604625422e-05 -1.54483553e-05 -1.402977389e-05 -1.233968142e-05)
5(-1.470868272e-05 -1.420396291e-05 -1.37888889e-05 -1.267847279e-05 -1.12761412e-05)
5(-1.286789855e-05 -1.262139195e-05 -1.240123222e-05 -1.156975867e-05 -1.043096412e-05)
5(-1.136032779e-05 -1.133532354e-05 -1.131851732e-05 -1.071831779e-05 -9.914071148e-06)
5(-1.014318855e-05 -1.035545952e-05 -1.054243952e-05 -1.013677319e-05 -9.67676691e-06)
5(-9.268400617e-06 -9.725063843e-06 -1.005939726e-05 -9.845011186e-06 -9.565379424e-06)
5(-8.768433627e-06 -9.453382621e-06 -9.821341828e-06 -9.831166991e-06 -9.514472047e-06)
5(-8.637637349e-06 -9.483357312e-06 -9.780806082e-06 -1.000876756e-05 -9.384742681e-06)
5(-8.82684328e-06 -9.712816943e-06 -9.917062992e-06 -1.020203403e-05 -9.174029053e-06)
5(-9.265824306e-06 -1.00210321e-05 -1.019067877e-05 -1.024001865e-05 -8.889240012e-06)
5(-9.855270773e-06 -1.028563535e-05 -1.046926068e-05 -1.003835312e-05 -8.507472192e-06)
5(-1.036300304e-05 -1.043145769e-05 -1.057015319e-05 -9.605978534e-06 -8.016984198e-06)
5(-1.071294329e-05 -1.047995825e-05 -1.036842236e-05 -9.014861333e-06 -7.377214516e-06)
5(-1.069465218e-05 -1.043663469e-05 -9.874615562e-06 -8.340455261e-06 -6.658343095e-06)
5(-1.039671066e-05 -1.022654696e-05 -9.217833092e-06 -7.639717111e-06 -5.922481679e-06)
5(-1.009309812e-05 -9.817558696e-06 -8.546956472e-06 -6.941602416e-06 -5.172715487e-06)
5(-9.781462068e-06 -9.313796385e-06 -7.952838013e-06 -6.264708966e-06 -4.431097892e-06)
5(-9.647964556e-06 -8.875489352e-06 -7.430368573e-06 -5.568617732e-06 -3.660540291e-06)
5(-9.757345469e-06 -8.56125813e-06 -6.892624336e-06 -4.799171248e-06 -2.799876207e-06)
5(-1.00329177e-05 -8.280600472e-06 -6.267739285e-06 -3.926159428e-06 -1.841147713e-06)
5(-1.026347637e-05 -7.864070142e-06 -5.482323946e-06 -2.948289736e-06 -8.456601532e-07)
5(-1.015336375e-05 -7.164915159e-06 -4.472751435e-06 -1.842749512e-06 2.217044861e-07)
5(-9.304908868e-06 -5.977286295e-06 -3.102500887e-06 -5.014879941e-07 1.48532836e-06)
5(-4.816734519e-06 -2.036077364e-07 3.379886696e-06 4.823530958e-06 6.19570405e-06)
5(-1.012246325e-06 4.816001221e-06 9.054673224e-06 9.402430273e-06 1.021080852e-05)
)


60
(
5(3.826234709e-05 0.0001229630327 -4.108797098e-05 -8.409578871e-06 -0.0001209549561)
5(4.196392871e-05 0.0001082658664 -7.128383383e-06 1.021671861e-05 -8.041703364e-05)
5(5.190364888e-05 8.544014447e-05 4.81250301e-05 3.810113063e-05 -1.509917893e-05)
5(6.702935233e-05 7.650173914e-05 7.624949122e-05 4.723476576e-05 1.483435911e-05)
5(7.893527176e-05 7.403872078e-05 7.644402042e-05 3.840665589e-05 8.756361984e-06)
5(7.654448515e-05 6.627629356e-05 5.663278881e-05 1.672694349e-05 -2.064071293e-05)
5(6.510816169e-05 5.378911158e-05 3.158619869e-05 -7.449225382e-06 -5.106602413e-05)
5(5.460528294e-05 4.076123504e-05 1.075357249e-05 -2.765217333e-05 -7.08184185e-05)
5(4.613590036e-05 2.698547035e-05 -5.52733229e-06 -4.374249809e-05 -8.206890106e-05)
5(3.715945476e-05 1.272477446e-05 -1.99110994e-05 -5.710958012e-05 -8.932630187e-05)
5(2.62509172e-05 -1.810350349e-06 -3.405837732e-05 -6.842812651e-05 -9.447584817e-05)
5(1.399470009e-05 -1.615813373e-05 -4.734993913e-05 -7.727294628e-05 -9.696970611e-05)
5(8.27838319e-07 -2.913097079e-05 -5.877010066e-05 -8.327053395e-05 -9.713001233e-05)
5(-1.159502466e-05 -4.043854766e-05 -6.746326246e-05 -8.642108139e-05 -9.495619004e-05)
5(-2.264300934e-05 -4.977120012e-05 -7.328892626e-05 -8.723862315e-05 -9.119166539e-05)
5(-3.307488299e-05 -5.706378796e-05 -7.671746438e-05 -8.608810508e-05 -8.630836945e-05)
5(-4.16052158e-05 -6.240684982e-05 -7.798742387e-05 -8.34257554e-05 -8.075912975e-05)
5(-4.822449895e-05 -6.558445152e-05 -7.760071809e-05 -7.965697715e-05 -7.494001889e-05)
5(-5.332557447e-05 -6.704280108e-05 -7.581988268e-05 -7.520846755e-05 -6.915483594e-05)
5(-5.65859085e-05 -6.699757029e-05 -7.290379003e-05 -7.04327677e-05 -6.349137848e-05)
5(-5.816110213e-05 -6.561302735e-05 -6.924571775e-05 -6.547366954e-05 -5.809742312e-05)
5(-5.843724627e-05 -6.332949618e-05 -6.512812272e-05 -6.048606565e-05 -5.297490466e-05)
5(-5.760139013e-05 -6.038140412e-05 -6.0719693e-05 -5.564922951e-05 -4.823968957e-05)
5(-5.576853563e-05 -5.693093135e-05 -5.623630729e-05 -5.099821168e-05 -4.389424778e-05)
5(-5.318243398e-05 -5.322987942e-05 -5.181992329e-05 -4.656615361e-05 -3.985246819e-05)
5(-5.015137572e-05 -4.93394551e-05 -4.754376705e-05 -4.242332116e-05 -3.612859029e-05)
5(-4.698131949e-05 -4.546188987e-05 -4.345870745e-05 -3.857061368e-05 -3.272397624e-05)
5(-4.354153783e-05 -4.176795232e-05 -3.959473566e-05 -3.499569533e-05 -2.9631959e-05)
5(-4.01146017e-05 -3.816261299e-05 -3.594514697e-05 -3.168237901e-05 -2.678799421e-05)
5(-3.673309522e-05 -3.469757928e-05 -3.253785865e-05 -2.863544658e-05 -2.415743994e-05)
5(-3.338179351e-05 -3.143023584e-05 -2.937733126e-05 -2.581362319e-05 -2.179285289e-05)
5(-3.026986589e-05 -2.835867563e-05 -2.64218876e-05 -2.320538033e-05 -1.959454351e-05)
5(-2.728684985e-05 -2.545299631e-05 -2.367066875e-05 -2.082024106e-05 -1.761469842e-05)
5(-2.444960968e-05 -2.276086699e-05 -2.114786963e-05 -1.864378368e-05 -1.587766005e-05)
5(-2.176772712e-05 -2.027217809e-05 -1.884428812e-05 -1.66876815e-05 -1.427831412e-05)
5(-1.92473629e-05 -1.79613746e-05 -1.675439229e-05 -1.493983898e-05 -1.285246235e-05)
5(-1.696410702e-05 -1.587254183e-05 -1.489879756e-05 -1.340771508e-05 -1.161323772e-05)
5(-1.485477465e-05 -1.402988872e-05 -1.330480462e-05 -1.210622801e-05 -1.065250382e-05)
5(-1.297507394e-05 -1.245564426e-05 -1.199253652e-05 -1.106206877e-05 -9.983954521e-06)
5(-1.140557852e-05 -1.119184369e-05 -1.097546031e-05 -1.029919934e-05 -9.590585219e-06)
5(-1.01832889e-05 -1.026671891e-05 -1.025550314e-05 -9.839874403e-06 -9.411255466e-06)
5(-9.341051339e-06 -9.683153844e-06 -9.822392486e-06 -9.684537744e-06 -9.266204282e-06)
5(-8.853574937e-06 -9.422864509e-06 -9.639444461e-06 -9.764752604e-06 -9.135113733e-06)
5(-8.718181635e-06 -9.435909856e-06 -9.696916451e-06 -9.935089326e-06 -9.016598271e-06)
5(-8.845385468e-06 -9.617774654e-06 -9.935134325e-06 -1.003481348e-05 -8.866923779e-06)
5(-9.238586631e-06 -9.859229299e-06 -1.023917232e-05 -9.960517863e-06 -8.640936934e-06)
5(-9.732847169e-06 -1.009179124e-05 -1.043589353e-05 -9.689006367e-06 -8.274400985e-06)
5(-1.012564421e-05 -1.027396925e-05 -1.034104228e-05 -9.238783476e-06 -7.762298755e-06)
5(-1.033903383e-05 -1.03449597e-05 -9.934675515e-06 -8.651480337e-06 -7.140997133e-06)
5(-1.028632286e-05 -1.017682919e-05 -9.30793094e-06 -7.998835643e-06 -6.468585813e-06)
5(-1.002219855e-05 -9.70244602e-06 -8.60785646e-06 -7.338706383e-06 -5.800185726e-06)
5(-9.60240993e-06 -9.029383536e-06 -7.976691548e-06 -6.71731373e-06 -5.175136463e-06)
5(-9.175078018e-06 -8.402294837e-06 -7.480593795e-06 -6.152166796e-06 -4.525291057e-06)
5(-8.816358503e-06 -7.992863605e-06 -7.092682556e-06 -5.578088474e-06 -3.79993568e-06)
5(-8.656977998e-06 -7.795822591e-06 -6.718260669e-06 -4.916751483e-06 -2.98527394e-06)
5(-8.737894054e-06 -7.671208901e-06 -6.215079318e-06 -4.103635459e-06 -2.045085402e-06)
5(-8.827653249e-06 -7.353400472e-06 -5.387476169e-06 -3.053502011e-06 -9.517575772e-07)
5(-8.477110611e-06 -6.407490274e-06 -3.915699473e-06 -1.556265124e-06 4.755955025e-07)
5(-3.237969964e-06 7.112327663e-07 4.816850001e-06 5.516853919e-06 7.353945785e-06)
5(1.628716755e-06 7.128450596e-06 1.260007898e-05 1.168726591e-05 1.33985583e-05)
)


60
(
5(6.843881761e-05 0.0001548644171 -1.241551196e-05 1.013817404e-05 -9.321696118e-05)
5(6.641228067e-05 0.0001330946156 1.531237446e-05 2.198488513e-05 -6.398554343e-05)
5(6.74278959e-05 9.881294161e-05 5.870979064e-05 3.771991332e-05 -1.992644342e-05)
5(7.783488719e-05 8.320284573e-05 7.685881197e-05 3.759370893e-05 -4.624582773e-06)
5(8.688827697e-05 7.681517713e-05 6.996282787e-05 2.259079043e-05 -1.663235387e-05)
5(8.19068655e-05 6.569287976e-05 4.60719707e-05 -2.088688468e-06 -4.708947216e-05)
5(6.791274808e-05 4.992400475e-05 1.880444686e-05 -2.75089175e-05 -7.588343592e-05)
5(5.475365745e-05 3.362885819e-05 -4.19978901e-06 -4.848040242e-05 -9.367366799e-05)
5(4.353657866e-05 1.72096216e-05 -2.248130859e-05 -6.476964303e-05 -0.0001039275853)
5(3.175240161e-05 8.437185849e-07 -3.806711885e-05 -7.761973165e-05 -0.000109267007)
5(1.864320327e-05 -1.522428935e-05 -5.24366013e-05 -8.769883283e-05 -0.0001118840764)
5(4.38413823e-06 -3.025453805e-05 -6.519146037e-05 -9.481945559e-05 -0.0001121365065)
5(-1.005264176e-05 -4.357532352e-05 -7.551938862e-05 -9.89205371e-05 -0.0001099994694)
5(-2.346782425e-05 -5.469854483e-05 -8.278836684e-05 -0.0001001351655 -0.0001057885738)
5(-3.527309541e-05 -6.354297286e-05 -8.710187672e-05 -9.901022788e-05 -0.0001001534543)
5(-4.509394149e-05 -6.991429611e-05 -8.887865296e-05 -9.617506242e-05 -9.376661538e-05)
5(-5.329599756e-05 -7.411787012e-05 -8.870787035e-05 -9.208915241e-05 -8.707053319e-05)
5(-5.938473962e-05 -7.622083725e-05 -8.690650592e-05 -8.70820699e-05 -8.020988873e-05)
5(-6.367124255e-05 -7.646195284e-05 -8.3807287e-05 -8.158737582e-05 -7.359969838e-05)
5(-6.613181105e-05 -7.534781071e-05 -7.981574759e-05 -7.589177595e-05 -6.729041549e-05)
5(-6.664131704e-05 -7.307215907e-05 -7.522113994e-05 -7.016919198e-05 -6.150106681e-05)
5(-6.605261552e-05 -6.990256387e-05 -7.028987245e-05 -6.461035165e-05 -5.600184181e-05)
5(-6.446182988e-05 -6.616613603e-05 -6.525482599e-05 -5.928198714e-05 -5.085000586e-05)
5(-6.177707219e-05 -6.206487654e-05 -6.024946008e-05 -5.419651571e-05 -4.615973882e-05)
5(-5.858435689e-05 -5.778032991e-05 -5.539160368e-05 -4.945449699e-05 -4.193484002e-05)
5(-5.509646927e-05 -5.353872518e-05 -5.078459203e-05 -4.505852721e-05 -3.807515616e-05)
5(-5.136890599e-05 -4.935866562e-05 -4.640777449e-05 -4.09656053e-05 -3.448207342e-05)
5(-4.755115717e-05 -4.526059807e-05 -4.228592698e-05 -3.718700413e-05 -3.122710003e-05)
5(-4.378322877e-05 -4.136862993e-05 -3.844531405e-05 -3.370921961e-05 -2.824073796e-05)
5(-4.017167019e-05 -3.768831036e-05 -3.484162777e-05 -3.047901739e-05 -2.548932676e-05)
5(-3.663799321e-05 -3.420214911e-05 -3.149064106e-05 -2.751461931e-05 -2.300287994e-05)
5(-3.326322228e-05 -3.091602956e-05 -2.836125202e-05 -2.478680101e-05 -2.072155443e-05)
5(-3.006511817e-05 -2.784620027e-05 -2.549245841e-05 -2.225346629e-05 -1.856325346e-05)
5(-2.70219375e-05 -2.498745233e-05 -2.285539614e-05 -1.993823865e-05 -1.671140835e-05)
5(-2.419886622e-05 -2.232971134e-05 -2.038376286e-05 -1.78302048e-05 -1.507085525e-05)
5(-2.159699646e-05 -1.983535381e-05 -1.812214731e-05 -1.592240007e-05 -1.347994983e-05)
5(-1.907279802e-05 -1.754724619e-05 -1.608144921e-05 -1.42284633e-05 -1.210790167e-05)