/*--------------------------------*- C++ -*----------------------------------*\
| =========                 |                                                 |
| \\      /  F ield         | OpenFOAM: The Open Source CFD Toolbox           |
|  \\    /   O peration     | Version:  2.3.1                                 |
|   \\  /    A nd           | Web:      www.OpenFOAM.org                      |
|    \\/     M anipulation  |                                                 |
\*---------------------------------------------------------------------------*/
FoamFile
{
    version     2.0;
    format      ascii;
    class       dictionary;
    location    "constant";
    object      GRPSI13;
}
// * * * * * * * * * * * * * * * * * * * * * * * * * * * * * * * * * * * * * //

GRPSI13_table
60
(

60
(
5(0.01313390699 0.02286425413 0.01767318084 0.01427748121 0.0199943726)
5(0.02364684202 0.0064784261 0.01400438807 0.01276811362 0.03133910879)
5(0.02834995622 -0.006420469607 0.003326281693 0.01042177153 0.001160738069)
5(0.003079533955 -0.000244100149 -0.000849405145 0.000186191637 -0.01419693787)
5(-0.02012455606 0.002594834316 0.008874082948 -0.004225557436 0.01023298608)
5(-0.01456034868 0.002220350261 0.006894647532 0.003071388937 -0.000466081892)
5(0.001808115259 0.000830032999 -0.004307865489 0.001426458689 0.002581978381)
5(0.001200396876 -0.000494594841 -0.002268578862 -0.001732843032 0.004151558886)
5(-0.002896118454 -0.001011967479 -0.0007339509005 6.9012162e-05 -0.003857192133)
5(-0.0001462290775 -0.000538089637 -0.001571686693 0.0003657896885 -0.0007675526885)
5(-0.0001114957885 -6.63893295e-05 0.001418052925 -0.0002335033145 0.0007898612035)
5(0.001491404533 -0.0002522251655 0.001464375391 -0.000700085449 0.0003226408845)
5(-7.37036565e-05 -0.0003970689305 -9.20153025e-05 7.5391154e-05 -1.34568505e-05)
5(-0.00034386366 0.000119170554 7.562071e-05 0.0002222888645 0.000520367853)
5(0.0003695397015 9.3088235e-05 4.8454427e-05 -0.0005391432345 1.58142085e-05)
5(-0.000596445818 -0.0002166334985 -0.0004929091075 -0.000136182062 -0.0003924129925)
5(-0.000164284302 -1.9115854e-05 -0.0002579334685 -0.00045357097 -0.000646671286)
5(-2.9978615e-05 -0.0001668408545 -0.000264866291 -0.0004256801895 -0.000312165253)
5(-0.0004559778485 -0.0006874535395 -0.0005523515475 -0.0007673388855 -8.1084783e-05)
5(-0.0005001833355 -0.00038965552 -0.000173626027 -0.0007566756325 -7.63602855e-05)
5(-0.000242727881 7.40102185e-05 -2.19526315e-05 0.001178731805 0.000695450393)
5(-0.0007400225855 -0.000420445575 -0.000284184767 0.0004941547665 7.76359585e-05)
5(-0.000543045301 -0.000927336777 -0.0001543913165 -0.000688865926 -0.000622208672)
5(-0.0004016888335 -0.000836148271 -0.0005022300395 -0.000377641266 -0.000242575317)
5(-0.0006296511855 -0.000358062505 -0.000978439644 -0.001015055619 -0.0002570381495)
5(-0.000598309575 -0.000146473421 -0.0003993548305 -0.000919389707 5.044334999e-06)
5(-0.000492952899 -0.000259162865 -0.0002087795725 -0.0005154588475 -1.3074945e-05)
5(-0.0008363889685 -0.000659156943 -0.0003087353575 -3.92067225e-05 -2.9246779e-05)
5(-0.001093600319 -0.000962640631 0.000142140308 0.00062486567 0.0002054866655)
5(-0.001035941414 -0.001026420575 -0.000464730271 8.56183865e-05 0.000289384172)
5(-0.0010801396 -0.0006433117215 -0.0001562893875 0.0002809413195 0.001595390295)
5(-0.0008050565325 -0.000574583245 5.75624595e-05 0.0007810985205 0.0006278953195)
5(-0.000933044617 -0.0009309314305 -0.0007408949805 0.0004746126295 0.000931673667)
5(-0.001157539834 -0.000695593957 -0.000299897843 0.0006425531065 0.002231996287)
5(-0.00108801473 -0.000923131175 -0.000865320324 0.0004431763115 0.0008545007095)
5(-0.001005555786 -0.000231577197 0.000649414303 0.001293593332 0.001132985619)
5(-0.000941006048 -0.000113981536 0.001812820342 0.001223830765 0.004279212854)
5(-0.0010487112 -0.000604870136 -4.17385585e-05 0.001012099924 0.001585526623)
5(-0.001575807223 -0.0001774297155 -0.000655378088 0.001196186633 0.007250209142)
5(-0.00124532506 0.000410422819 0.00100589007 0.001448556505 0.009308246567)
5(-0.000182219909 0.000947962443 0.002553847601 0.00524324805 8.1492625e-06)
5(2.5000605e-06 0.001449268027 0.002434071558 0.01225679237 -2.15267035e-05)
5(-0.0002506223595 0.001073436453 -0.000928840775 0.007949187565 -0.0002462515525)
5(-0.0001386102655 0.00100548946 -9.24565e-06 0.000825619163 4.1963835e-05)
5(0.00104624556 0.001388714405 0.005394983479 0.0004228112535 0.0007851231705)
5(0.002052093506 0.0025132172 0.01349825179 -0.000731559348 0.000907128635)
5(0.002743992894 0.007112149336 0.0142026893 0.00033735184 0.0004759710325)
5(0.002698013479 0.005309319222 0.004203462388 0.0007343768645 0.0001537748185)
5(0.002677514404 0.01334071186 0.0007236830655 0.00109228858 0.000762450045)
5(0.004622133903 0.01406017087 0.0007316710375 0.0005548577735 0.0009780116965)
5(0.01478339703 0.0009887957185 0.0008465990655 0.0001215182375 0.0008430504865)
5(0.01710875355 -0.000352119879 0.0008602181275 0.0006869424895 0.001546263253)
5(0.005201944522 -2.8589296e-05 0.000249006775 0.001046163772 0.001185651525)
5(0.0005367382625 0.0005282008275 1.3585216e-05 0.000697156841 0.001000585881)
5(-0.002359353881 0.0002769597365 0.000309266758 0.001043238203 0.001896342783)
5(-0.007483993049 -0.0005635056965 0.000438508849 0.00171696158 0.000975643948)
5(-0.007844637929 -0.002383705046 -9.9357121e-05 -0.000214045671 0.004157765995)
5(-0.005358715621 -0.005379323322 -0.003501817584 0.006163662532 0.001877244744)
5(-0.005430170977 -0.01182318439 -0.01361764995 -0.01637539305 -0.01425465886)
5(-0.006741948207 -0.016565573 -0.02106314375 -0.04681391936 -0.02370958658)
)


60
(
5(0.003811510781 -0.0005333264825 0.006471510074 0.003923385744 0.009000086333)
5(0.002851316818 -0.0005571994558 0.004869646136 0.002820905614 0.00687753894)
5(0.0009728888135 -0.0006279242093 0.001600051868 0.000772022767 0.002604461166)
5(-0.000539275882 -0.0007620716365 -0.0008998474538 -0.0006518634715 -0.0008176646905)
5(-0.001386742183 -0.0008677902905 -0.00173594496 -0.001108431924 -0.002174592919)
5(-0.001361314194 -0.0008545541642 -0.001307547665 -0.001003148616 -0.001674450687)
5(-0.0008377048305 -0.0007590432786 -0.0007176968066 -0.0007784120022 -0.00071222556)
5(-0.0005460700485 -0.0006539983923 -0.000476903109 -0.00055254452 -0.0002897727965)
5(-0.0006382109515 -0.0006884675346 -0.0005124762239 -0.000585214388 -0.0003779207395)
5(-0.0007526633735 -0.0008271375478 -0.0007089650138 -0.000749696878 -0.0006720022555)
5(-0.0008520340815 -0.0008544336475 -0.0008724188207 -0.0008450977428 -0.0008863550575)
5(-0.000956625622 -0.0008706596452 -0.0009534760384 -0.0008491369307 -0.0008874247235)
5(-0.000952953422 -0.0009244742535 -0.0009462404639 -0.00086705859 -0.0008512137285)
5(-0.0009650818675 -0.0009688838121 -0.0009444384028 -0.0009146221335 -0.000808922245)
5(-0.001022548822 -0.001030357791 -0.001009481872 -0.0009304656451 -0.000818954675)
5(-0.001103142566 -0.001107406571 -0.001119183563 -0.001008988667 -0.000921381971)
5(-0.001170944868 -0.001180999958 -0.001182386867 -0.001054564411 -0.0009856321065)
5(-0.001267982056 -0.001221384825 -0.001230176123 -0.001098415939 -0.001047861246)
5(-0.001355463298 -0.001301104939 -0.001292974015 -0.001189663024 -0.001075935833)
5(-0.001416926219 -0.001431871613 -0.001366374319 -0.001239230124 -0.001079665873)
5(-0.001477868128 -0.00155317233 -0.001432205936 -0.001294998543 -0.001095395811)
5(-0.001613940466 -0.001602617526 -0.001496527572 -0.001359268002 -0.001137054395)
5(-0.001793155552 -0.001663614007 -0.001583364362 -0.00135839765 -0.001169895689)
5(-0.001900140912 -0.001758444658 -0.001640321742 -0.001392380637 -0.001160104737)
5(-0.002004380712 -0.001862217921 -0.001740155311 -0.00145816077 -0.001129775832)
5(-0.00214463545 -0.001956742314 -0.001830694464 -0.001504083965 -0.001092165461)
5(-0.002269142424 -0.00206536524 -0.001817451056 -0.001525485561 -0.001036750348)
5(-0.002410408517 -0.002193969998 -0.001844754133 -0.001479871565 -0.001011904289)
5(-0.002569232481 -0.002271698131 -0.001908716676 -0.001426682704 -0.000953300309)
5(-0.00271467699 -0.002349391654 -0.001955086546 -0.001373281672 -0.0008560263545)
5(-0.002847728718 -0.00242728946 -0.001926198555 -0.001307556184 -0.000732661393)
5(-0.002978891564 -0.00247292334 -0.001920367545 -0.001226747772 -0.000545076572)
5(-0.003103023748 -0.002495588549 -0.001887409815 -0.001107441396 -0.0003274591175)
5(-0.003202064194 -0.002501327319 -0.001782712673 -0.0009537750572 -7.37828995e-05)
5(-0.003295675047 -0.002494916551 -0.00169092897 -0.0007647167359 0.000211576236)
5(-0.003323681545 -0.002411827643 -0.001542423367 -0.0004613222058 0.0005131959285)
5(-0.003299434034 -0.002294366811 -0.001328914645 -0.000137032605 0.00083238424)
5(-0.003245045237 -0.002079700337 -0.001049990326 0.0001743711576 0.001321589129)
5(-0.003053751381 -0.001819535483 -0.0007016795626 0.0005979125189 0.002075146295)
5(-0.002766621757 -0.001446348453 -0.0002034084173 0.001083831719 0.003030909074)
5(-0.00234165077 -0.001022986696 0.0002641573934 0.001719417985 0.003855145728)
5(-0.001835169836 -0.0004932662801 0.0007779231555 0.002600664702 0.004493410203)
5(-0.001175263557 0.0003660735352 0.001466030564 0.003644044542 0.005092162751)
5(-0.000277376014 0.001119898028 0.002314005651 0.004606604491 0.005374214401)
5(0.0007589224125 0.001866299384 0.003430238859 0.005381514587 0.005331255181)
5(0.001924760623 0.002833481205 0.004611981132 0.005905240142 0.005481507618)
5(0.003206070314 0.003979399349 0.005727824888 0.00617502715 0.005736663278)
5(0.004471491032 0.005259249985 0.006785915623 0.006252665109 0.005715355949)
5(0.005849930492 0.006627790627 0.007533767287 0.006183764896 0.00555461566)
5(0.007277863708 0.007990537195 0.00795061386 0.006244583169 0.005181182372)
5(0.008710836698 0.009013609831 0.008227348328 0.006499183014 0.004833759279)
5(0.01010079669 0.009554367479 0.008280886177 0.006418094576 0.004603575711)
5(0.01121901732 0.009921495791 0.008261207075 0.005942893819 0.004282073876)
5(0.01210994478 0.01018689997 0.008282221436 0.005719965662 0.004107467461)
5(0.01270269593 0.0102265495 0.008246634684 0.005759474203 0.004093788669)
5(0.01303785477 0.01025206471 0.008441435795 0.005844977686 0.004328989445)
5(0.01332732809 0.01069972061 0.009034686575 0.006337613358 0.004898709238)
5(0.01417290135 0.01165835993 0.009613122512 0.007465698441 0.005857336456)
5(0.02225542599 0.01861226926 0.02136753822 0.01476216235 0.01109988823)
5(0.02967353395 0.02501613253 0.03290808571 0.02135623975 0.01572518477)
)


60
(
5(0.001249480541 -0.001775270873 0.003385823855 0.00178729399 0.005484601942)
5(0.0007783608715 -0.00148951903 0.002377640673 0.001162176475 0.003919699876)
5(-8.2875575e-05 -0.00107377447 0.0003782336727 -3.383955139e-05 0.001077118093)
5(-0.0008518730975 -0.0009626757058 -0.001077543917 -0.000880752752 -0.0009781985505)
5(-0.001312406076 -0.0009970474701 -0.001517005263 -0.001154277296 -0.001787576668)
5(-0.001237627174 -0.0009660810257 -0.00127408869 -0.001065381469 -0.001471945759)
5(-0.0009568194145 -0.0009078621722 -0.0009231526268 -0.0008956003817 -0.000890477517)
5(-0.000842719351 -0.0009124812599 -0.0007719052794 -0.0008135712264 -0.0006190419985)
5(-0.000889946244 -0.0009628682519 -0.0008217060863 -0.0008658626628 -0.000726106889)
5(-0.0009794754995 -0.001028270021 -0.0009841369247 -0.0009752609428 -0.000955685758)
5(-0.001076702101 -0.001089589327 -0.001119560895 -0.001066972045 -0.001080422399)
5(-0.001168854184 -0.001163868348 -0.001189983043 -0.001134104774 -0.001113262722)
5(-0.001225626232 -0.001253195475 -0.00123179178 -0.001186489178 -0.001135169354)
5(-0.001283142847 -0.00130183142 -0.001289549333 -0.001270557635 -0.001169087497)
5(-0.001357853751 -0.001368186861 -0.001369098026 -0.00131067175 -0.001213305672)
5(-0.00146520975 -0.001458078414 -0.001465098999 -0.001368027405 -0.001303106901)
5(-0.00159054002 -0.00154705103 -0.001555838785 -0.001463593951 -0.001370896059)
5(-0.001668890323 -0.001687104536 -0.001652528067 -0.001530604487 -0.001379935619)
5(-0.00178344026 -0.001788259166 -0.00174320427 -0.00161408884 -0.001431941947)
5(-0.001885216995 -0.00186197031 -0.001834249749 -0.001689251429 -0.001538368644)
5(-0.002023169292 -0.002002319922 -0.001934454081 -0.00175785218 -0.001595055176)
5(-0.002185554398 -0.002139642537 -0.002039041892 -0.001828656409 -0.001626465192)
5(-0.002318242222 -0.002236733456 -0.002151328284 -0.001899580511 -0.001693990172)
5(-0.002459722233 -0.002340288334 -0.002242642301 -0.001956120325 -0.001756788868)
5(-0.002619178421 -0.002477036013 -0.002346654041 -0.002047145396 -0.001740030576)
5(-0.002799109415 -0.002601927841 -0.00244133785 -0.002124592018 -0.001735972186)
5(-0.002937244014 -0.002743762632 -0.002543955315 -0.002185787664 -0.001748634439)
5(-0.003127205809 -0.002886193247 -0.002622448793 -0.002197187107 -0.001757343274)
5(-0.003316454517 -0.003002312628 -0.002691780316 -0.002206516165 -0.001718483217)
5(-0.003467396326 -0.003160255527 -0.002777364198 -0.002231605926 -0.001634309529)
5(-0.003615151585 -0.003268965084 -0.00280448827 -0.002203166777 -0.001574074939)
5(-0.003765368855 -0.003303105297 -0.002831920594 -0.002167085338 -0.001449016366)
5(-0.003895793386 -0.003395569373 -0.002844430957 -0.002089315648 -0.00125042717)
5(-0.003986755529 -0.003435640667 -0.002757151592 -0.001941205107 -0.001002849216)
5(-0.004063067971 -0.00338264429 -0.002684103834 -0.001740171885 -0.0007269666925)
5(-0.004083144107 -0.00330196455 -0.002555875946 -0.001499401971 -0.0004352506085)
5(-0.004041623471 -0.003164854459 -0.002314233933 -0.001204502606 -9.59389335e-05)
5(-0.003882051834 -0.002963021613 -0.002008598586 -0.0008479722122 0.00041307063)
5(-0.003584946667 -0.002611145776 -0.001588644537 -0.0004051484235 0.0011410638)
5(-0.00313843809 -0.002173515455 -0.001132922505 0.0001543418906 0.002028367733)
5(-0.002641746165 -0.001670273816 -0.0005796163511 0.0008748619255 0.002976452684)
5(-0.001967654045 -0.0009789949822 0.000133698194 0.001837161295 0.003814233817)
5(-0.0009948971595 -0.0001169363451 0.0009548433257 0.002947764895 0.004493060336)
5(9.3642914e-05 0.0009046398319 0.001933332275 0.004009239869 0.005076047245)
5(0.001280072706 0.001962673212 0.003063187688 0.004958904435 0.00568750176)
5(0.002647532608 0.003040915677 0.004398655361 0.005819768121 0.006327083107)
5(0.004123626105 0.004356931272 0.005886184275 0.006558420864 0.006797433259)
5(0.005583445873 0.00589773346 0.007165214388 0.007142702441 0.007033907116)
5(0.007048003507 0.00736223358 0.008111910389 0.007711638929 0.007194069265)
5(0.008516280939 0.00875811426 0.009042318512 0.00827471044 0.007477642948)
5(0.009965320778 0.01008886827 0.01003245749 0.008648140749 0.007359411764)
5(0.01129204811 0.01117590195 0.01058446912 0.008857404884 0.006981747005)
5(0.01252790645 0.01200887796 0.01096768025 0.009026625872 0.006986630891)
5(0.01358701474 0.01268531786 0.01142445166 0.00899449985 0.007047275482)
5(0.01447653142 0.01330582964 0.01172542712 0.008917547779 0.007107781898)
5(0.01532592295 0.01378461506 0.01209278718 0.009138885622 0.007370871159)
5(0.0162503448 0.01453285599 0.01267590943 0.01006659822 0.008042132012)
5(0.01828502448 0.01604181202 0.01404152593 0.01144644847 0.009021042426)
5(0.02870827104 0.02553835488 0.0276604126 0.02144558055 0.0164341285)
5(0.03762645781 0.03407196268 0.04027681097 0.03080629494 0.02335045511)
)


60
(
5(-6.5427449e-05 -0.002304481237 0.001792149936 0.0007474160875 0.003583048587)
5(-0.000212665543 -0.001910359353 0.001123626398 0.0003550968031 0.002408982576)
5(-0.0005587608945 -0.001301320748 -0.0002179992772 -0.0004265474751 0.00032447735)
5(-0.000980890204 -0.001067428328 -0.00116256311 -0.0009965409873 -0.001078002315)
5(-0.001271885437 -0.001058125386 -0.00142723573 -0.001191380033 -0.001617233558)
5(-0.001236404472 -0.001066055361 -0.001288243045 -0.001131982981 -0.00141963375)
5(-0.001061992441 -0.001052154648 -0.001060954982 -0.001008326802 -0.001020704268)
5(-0.000985894871 -0.001052671895 -0.0009743116868 -0.0009878145083 -0.000852055608)
5(-0.001042661026 -0.001115436264 -0.001033591981 -0.001060685845 -0.0009392826165)
5(-0.001165567423 -0.001205084005 -0.00116058346 -0.001154334605 -0.001109496719)
5(-0.001256263021 -0.001283801163 -0.001288506182 -0.00123800042 -0.001231446378)
5(-0.001339748266 -0.001361543617 -0.001386577087 -0.001327153259 -0.001316730056)
5(-0.001428729965 -0.001450757866 -0.001457896486 -0.001419279238 -0.001355974627)
5(-0.00152295645 -0.001531440753 -0.001536500236 -0.001487626009 -0.00140975385)
5(-0.001622934906 -0.001642037099 -0.001638089836 -0.0015678401 -0.001502485972)
5(-0.001719413641 -0.001765448845 -0.001745761875 -0.001676607854 -0.001585449222)
5(-0.001856691159 -0.001851390082 -0.001845834898 -0.001813680021 -0.00166618097)
5(-0.00198582367 -0.001978270342 -0.001967328677 -0.001872815576 -0.001746435876)
5(-0.002111861125 -0.002112537044 -0.00208431637 -0.001933972396 -0.001834317787)
5(-0.002264891851 -0.00222703278 -0.002207505137 -0.002083662002 -0.001951818998)
5(-0.002415719196 -0.002380236566 -0.002333340538 -0.002159317033 -0.001982469139)
5(-0.002559422106 -0.0025258705 -0.002443127046 -0.002252525894 -0.001992354983)
5(-0.002721461359 -0.002676584975 -0.002556114288 -0.002363947234 -0.002091068071)
5(-0.002914850678 -0.002812800964 -0.002696339743 -0.002440541126 -0.002202912916)
5(-0.003080067339 -0.002940567216 -0.002853538027 -0.002550097398 -0.002264761212)
5(-0.003240263895 -0.003115177351 -0.002968561429 -0.002651859509 -0.002294446828)
5(-0.003429640618 -0.00327522219 -0.003077348366 -0.002729029216 -0.002348448579)
5(-0.003633582788 -0.003424087986 -0.003188962849 -0.002772481242 -0.002358451041)
5(-0.003831795243 -0.003566243727 -0.003298559325 -0.002834565302 -0.002380973995)
5(-0.003998815922 -0.003691865344 -0.003381534038 -0.002873955488 -0.002372846651)
5(-0.004159237779 -0.003799270917 -0.003421426224 -0.002866834908 -0.002311863249)
5(-0.004313152223 -0.003888641354 -0.003491213086 -0.002855515392 -0.002202222682)
5(-0.004422431542 -0.003960967792 -0.00353011465 -0.002815981001 -0.002045869997)
5(-0.004503280153 -0.003991170497 -0.003478954503 -0.002727661649 -0.001850802518)
5(-0.004535218793 -0.003974452889 -0.003396008254 -0.002582882439 -0.001626502653)
5(-0.004482232031 -0.003879771109 -0.003236705833 -0.002368556584 -0.001388511594)
5(-0.004353433933 -0.003703109386 -0.003029783053 -0.002065862682 -0.001015299267)
5(-0.004102737123 -0.003433342159 -0.002723549262 -0.001691851797 -0.0005413267555)
5(-0.003714092514 -0.003039086793 -0.002288249233 -0.001238192804 0.000150657748)
5(-0.003190793712 -0.002542114278 -0.001756503259 -0.0006778523657 0.001016885176)
5(-0.002455940404 -0.001901009631 -0.001097722565 6.227173992e-05 0.0019336179)
5(-0.001547608447 -0.001074900094 -0.0003217382926 0.0009944667625 0.002894842982)
5(-0.0004830404615 -9.247516151e-05 0.0005723110596 0.002070377766 0.003753614367)
5(0.0007626365265 0.001006974793 0.001625306258 0.003243380274 0.004560633905)
5(0.002143392765 0.00223257308 0.002917947042 0.004391895689 0.005379003493)
5(0.00367323513 0.003592336846 0.004327898476 0.005412194226 0.006205365098)
5(0.005180268721 0.005029651072 0.005797602672 0.006411487828 0.007039856692)
5(0.00676978448 0.006517274234 0.007243244635 0.007493459327 0.007731360041)
5(0.008181289248 0.008015298907 0.008566015866 0.008509942128 0.008290912909)
5(0.00941188164 0.00945140375 0.009796122082 0.009365778265 0.008785609426)
5(0.01084306265 0.01078667499 0.01101521908 0.01015674889 0.009189250982)
5(0.01209761801 0.0119640144 0.01201895053 0.01072996032 0.009443699837)
5(0.01318620244 0.01304695484 0.01270361302 0.01114587148 0.009543070167)
5(0.0143157328 0.01409965599 0.01355927192 0.01169369859 0.009670724542)
5(0.01542167037 0.01507643747 0.01433554192 0.01215078861 0.01006910235)
5(0.01655510071 0.01604468793 0.01489232526 0.01256805025 0.01027970852)
5(0.01807672879 0.01718278129 0.01577780625 0.01337019869 0.01067423445)
5(0.02080229841 0.01927005204 0.01762353942 0.0145903144 0.01224535542)
5(0.03175576647 0.03171139308 0.03132327316 0.02544126033 0.02262962905)
5(0.04090903266 0.04270282698 0.04375010691 0.03560613693 0.03192830851)
)


60
(
5(-0.000837676495 -0.00259001772 0.0008086430774 0.0001302175042 0.002376012086)
5(-0.000792348509 -0.002152511617 0.0003643551631 -0.0001312501027 0.001471353011)
5(-0.000820139019 -0.001433973195 -0.0005564277711 -0.0006645500392 -0.0001084097265)
5(-0.001051521903 -0.001121709041 -0.001222428051 -0.001067280014 -0.001150125389)
5(-0.001269198332 -0.00111197185 -0.001400936914 -0.00121274321 -0.001555328202)
5(-0.001249845275 -0.001132812273 -0.001309526022 -0.001183780317 -0.001404529409)
5(-0.001128379223 -0.001138657207 -0.001160383778 -0.001118443982 -0.00111401467)
5(-0.001105412024 -0.001174544897 -0.001106951129 -0.001114151357 -0.00101221076)
5(-0.001175951361 -0.001234008703 -0.001182669905 -0.001195652107 -0.001097918079)
5(-0.001293761157 -0.001328560311 -0.001314170389 -0.001294947743 -0.001251219262)
5(-0.001405029347 -0.001428771866 -0.001436798469 -0.001396613328 -0.001387949266)
5(-0.00149891255 -0.001519578199 -0.001553662559 -0.001505878616 -0.001464653051)
5(-0.001583252109 -0.001630786584 -0.001639474076 -0.001587686182 -0.001536036688)
5(-0.001700526336 -0.001735840678 -0.001737880495 -0.001681211264 -0.001629664619)
5(-0.00183250942 -0.001855273497 -0.001846295559 -0.001792633927 -0.001715248201)
5(-0.001949401882 -0.001971054612 -0.001967971892 -0.001911059292 -0.001822641946)
5(-0.002083963609 -0.002102490818 -0.00211071295 -0.002012876955 -0.001927806823)
5(-0.002228700133 -0.002260243159 -0.002224682036 -0.002142683434 -0.002041791767)
5(-0.002383267463 -0.002384978494 -0.002363764767 -0.002291901561 -0.002129628773)
5(-0.002539405188 -0.002510294625 -0.002506107347 -0.002428957271 -0.002228432454)
5(-0.002709824096 -0.002676758784 -0.002644554967 -0.002493041308 -0.002332362767)
5(-0.002875384353 -0.002844387955 -0.002780679551 -0.00256871716 -0.002424292398)
5(-0.00304561195 -0.002994823202 -0.002930579277 -0.002729800415 -0.002549039021)
5(-0.003244874775 -0.003162537865 -0.003090844875 -0.002856782352 -0.002650450074)
5(-0.003442456861 -0.003313227151 -0.00322280371 -0.002965252553 -0.00267530035)
5(-0.003634317735 -0.003490326775 -0.003363132213 -0.003088259722 -0.00272547812)
5(-0.003805969586 -0.00367418307 -0.003504266264 -0.003187369356 -0.002830441146)
5(-0.003989071712 -0.003818259579 -0.003629950533 -0.003268083611 -0.002895399809)
5(-0.004179799719 -0.003973439416 -0.003750644168 -0.003356043513 -0.002920498606)
5(-0.004362766317 -0.004115757723 -0.003855560907 -0.003420138771 -0.002937087989)
5(-0.0045373523 -0.004226429365 -0.003939388177 -0.003456369411 -0.002911845582)
5(-0.004657607741 -0.004325128511 -0.003997340203 -0.00346396295 -0.002876897859)
5(-0.004738802267 -0.004384411669 -0.004026310938 -0.003428777982 -0.00277860834)
5(-0.004774239698 -0.00439828018 -0.003996647457 -0.003344033529 -0.002598306867)
5(-0.004751358216 -0.00436624836 -0.003913171027 -0.003206494121 -0.00241761803)
5(-0.004662511408 -0.004227995588 -0.003755494288 -0.003002168981 -0.002192980889)
5(-0.004458424358 -0.004006759163 -0.003502480439 -0.002738677654 -0.001860997365)
5(-0.004121472274 -0.003704321633 -0.003158814814 -0.002370024554 -0.001390368595)
5(-0.00363889032 -0.003252788873 -0.002695007297 -0.001882060196 -0.000726353599)
5(-0.002974150736 -0.00263869087 -0.002106005 -0.001287277944 0.0001497891955)
5(-0.002121476756 -0.001857019051 -0.001385100848 -0.0005305643873 0.001086902757)
5(-0.001058679421 -0.0009036743599 -0.0005030182077 0.0004108908581 0.001971322551)
5(0.0001858662245 0.0002068586447 0.0005148404854 0.001521275354 0.002847803757)
5(0.001580677476 0.001468468267 0.001702425716 0.002719510074 0.00379562191)
5(0.003028847039 0.002835912944 0.003016421891 0.00391442241 0.004779106705)
5(0.004553171608 0.004287496072 0.004434811165 0.005070172138 0.00579689443)
5(0.006100397272 0.005785063518 0.005996735762 0.006240953269 0.006852334768)
5(0.007607192606 0.007321304255 0.007478504764 0.007391597789 0.007878770163)
5(0.009071337636 0.008721504442 0.008794165029 0.008603920202 0.008845653426)
5(0.01039442644 0.009955510933 0.01009557209 0.009802951907 0.009669061223)
5(0.01163273277 0.01125898758 0.01142220016 0.01091089224 0.01039431573)
5(0.01277231526 0.01251316907 0.01270504653 0.01205854522 0.01104654249)
5(0.01379363269 0.01365394584 0.01386078981 0.01295959688 0.01153936884)
5(0.01483587176 0.01481931025 0.01503509456 0.01369535124 0.01204250701)
5(0.01600881655 0.01602372836 0.01596396893 0.01441736674 0.01261830043)
5(0.01736696511 0.01728969875 0.01682961829 0.01507007678 0.01313620813)
5(0.01913465427 0.01890243367 0.01819804733 0.01616055506 0.01392189561)
5(0.02227374621 0.02170337774 0.02063991762 0.01814704919 0.01563583321)
5(0.03349633417 0.03400120969 0.03652248599 0.03135411661 0.02897180283)
5(0.04260533743 0.04445162124 0.05075545539 0.04333031823 0.04114542722)
)


60
(
5(-0.00132541795 -0.00273460543 0.0001583130813 -0.0002838069246 0.001547117058)
5(-0.001158348036 -0.002285639692 -0.0001377148047 -0.0004547508687 0.0008332591665)
5(-0.0009847337795 -0.001533422709 -0.0007856295013 -0.0008236816043 -0.0003965368395)
5(-0.001093640358 -0.001177075287 -0.001267905505 -0.001122475347 -0.001199222698)
5(-0.001264222795 -0.001138750135 -0.001394304384 -0.001235243591 -0.001524971759)
5(-0.001274677877 -0.001176761933 -0.001330621417 -0.001228594137 -0.001413818121)
5(-0.00119547533 -0.001215561008 -0.001239530709 -0.00119985614 -0.001189109834)
5(-0.001192894564 -0.00126106387 -0.001217548974 -0.001212130541 -0.001126135538)
5(-0.00128025388 -0.001346591866 -0.001298370384 -0.001297268823 -0.001228095386)
5(-0.00139865113 -0.001438857735 -0.001435298009 -0.001424568177 -0.001383988919)
5(-0.0015212471 -0.00154409257 -0.001569383563 -0.001534021799 -0.001510709016)
5(-0.001633602712 -0.001658047496 -0.001681348608 -0.001635939381 -0.001618125294)
5(-0.001746413721 -0.00177697857 -0.001798719881 -0.001754282576 -0.001698816696)
5(-0.001856145886 -0.001902496741 -0.001921058263 -0.001858649408 -0.001788333248)
5(-0.001994581655 -0.002021655484 -0.002040581793 -0.001973359842 -0.00191450496)
5(-0.002142033986 -0.00216805226 -0.002172725247 -0.002106096 -0.002039175565)
5(-0.00227803522 -0.002312073073 -0.0023025513 -0.002240873366 -0.002157937403)
5(-0.002445234851 -0.002454835234 -0.002456939377 -0.002379952591 -0.002275728788)
5(-0.002605878155 -0.002609366455 -0.002603254345 -0.002515446646 -0.00238383107)
5(-0.002771651925 -0.002775933835 -0.00274690129 -0.002651499528 -0.002525819656)
5(-0.002956000256 -0.002952583174 -0.002914536217 -0.00277427994 -0.00264088334)
5(-0.003131830579 -0.003107291431 -0.003065981165 -0.002936843908 -0.002737867574)
5(-0.003318434215 -0.00325857036 -0.003216921309 -0.003093861099 -0.002866841419)
5(-0.003519561206 -0.003439478991 -0.003392389506 -0.003163601818 -0.002983838723)
5(-0.003708508128 -0.003632275702 -0.003544892314 -0.00328252 -0.003085220629)
5(-0.003893061199 -0.003799292652 -0.003690055065 -0.003461981815 -0.003188661991)
5(-0.004094042172 -0.003957616329 -0.003855377924 -0.003586179724 -0.003297499488)
5(-0.00430055317 -0.004130426386 -0.004003161279 -0.003675993651 -0.00337168826)
5(-0.004473857295 -0.004296585036 -0.004113578932 -0.003771784085 -0.003389648633)
5(-0.004631931661 -0.004424915184 -0.004214495924 -0.003855611024 -0.003395630913)
5(-0.004786919333 -0.004522352158 -0.004322130032 -0.003910096092 -0.003422715735)
5(-0.00488286875 -0.004621163703 -0.004379135696 -0.003923446839 -0.003421732665)
5(-0.004932947625 -0.004679092612 -0.004381445391 -0.003900298735 -0.003335073915)
5(-0.00493146656 -0.004670444373 -0.004340957109 -0.003839288253 -0.003211625441)
5(-0.00485852499 -0.004595022989 -0.004244125758 -0.003703378148 -0.003043954137)
5(-0.004689471825 -0.004405277412 -0.004082386787 -0.003497292196 -0.002813334851)
5(-0.004407486081 -0.004130734532 -0.00380742556 -0.003226087087 -0.002520821017)
5(-0.003984933666 -0.00375419304 -0.003413332435 -0.002850684934 -0.002059150065)
5(-0.003391024829 -0.003218089327 -0.002902523152 -0.00232469744 -0.00139812331)
5(-0.002625128897 -0.002515505442 -0.002235725934 -0.001678492986 -0.000562729384)
5(-0.001644874537 -0.001649353738 -0.001421796111 -0.0008941888213 0.0003181141435)
5(-0.000463270815 -0.0006097920281 -0.0004613289992 9.777132536e-05 0.001199342419)
5(0.000847977111 0.0006146702985 0.0006631049321 0.001222920334 0.002156513513)
5(0.002255850501 0.001973510069 0.001960836357 0.002413422136 0.003190129914)
5(0.00376648602 0.003435331117 0.003389137077 0.003697473993 0.004251314932)
5(0.005333720111 0.004981800222 0.004894314096 0.004952247832 0.005384360048)
5(0.006885261224 0.006566727769 0.006460887758 0.006188443861 0.006591861219)
5(0.008381426411 0.008101403574 0.007839869325 0.007507371704 0.007766646194)
5(0.009802310577 0.009491321261 0.009150372957 0.008814860104 0.008901391516)
5(0.0111191628 0.01072777365 0.01055942002 0.01009791993 0.01010426643)
5(0.01232611999 0.01187027827 0.0118530141 0.01136372225 0.01116801388)
5(0.01340374862 0.01299399684 0.0131076809 0.01265877144 0.01217113979)
5(0.01443053578 0.01414239202 0.01438170393 0.01387613738 0.01317847867)
5(0.01544212128 0.01534654242 0.01565222903 0.0149968463 0.0139909083)
5(0.01659756993 0.01665640954 0.01695224649 0.01615628515 0.01478415084)
5(0.01800028762 0.01816941425 0.01846807489 0.01728441984 0.01561953103)
5(0.01991764948 0.02005106251 0.0200586187 0.01856513396 0.0168397097)
5(0.02320786832 0.02321743171 0.02313176933 0.02110865581 0.01890854072)
5(0.03440320596 0.03589233149 0.03885923841 0.03539720328 0.03306844352)
5(0.04349543999 0.04645425142 0.05224643955 0.04787867675 0.04594947909)
)


60
(
5(-0.001663365038 -0.002800248817 -0.0003000623865 -0.0005706421803 0.000938815243)