/*--------------------------------*- C++ -*----------------------------------*\
| =========                 |                                                 |
| \\      /  F ield         | OpenFOAM: The Open Source CFD Toolbox           |
|  \\    /   O peration     | Version:  2.3.1                                 |
|   \\  /    A nd           | Web:      www.OpenFOAM.org                      |
|    \\/     M anipulation  |                                                 |
\*---------------------------------------------------------------------------*/
FoamFile
{
    version     2.0;
    format      ascii;
    class       dictionary;
    location    "constant";
    object      GRPSI60;
}
// * * * * * * * * * * * * * * * * * * * * * * * * * * * * * * * * * * * * * //

GRPSI60_table
60
(

60
(
5(-5.503703339e-13 1.284598732e-13 1.168503436e-13 -8.643128511e-14 4.007268229e-13)
5(-4.284027064e-13 1.107896524e-14 1.224679553e-13 -1.05808059e-13 -5.991391714e-15)
5(-2.837674297e-10 -1.418782676e-10 -4.046357677e-14 -1.109098568e-13 -1.299981493e-13)
5(-8.416918077e-10 -4.208618663e-10 -1.343014945e-13 -6.917228815e-14 9.833354421e-14)
5(-1.039369219e-09 -5.196700015e-10 -6.309635527e-14 -1.166002362e-13 -7.779129364e-14)
5(-8.541551558e-10 -4.271538656e-10 -3.862691863e-14 -2.316447946e-14 -1.216504889e-13)
5(-1.493350445e-13 -1.114214847e-13 -7.046834019e-14 8.470166912e-15 8.436908925e-14)
5(1.148787885e-13 9.699144898e-14 -6.107980782e-14 -1.934416911e-13 -1.856196572e-13)
5(-9.89207532e-10 -4.94549384e-10 -8.993515236e-14 -2.272944122e-13 -1.659545733e-13)
5(-1.7143184e-09 -8.575720483e-10 -7.12315521e-13 -3.81634293e-13 -1.643343594e-13)
5(-1.893171625e-09 -9.474637034e-10 -1.163427508e-12 -4.215750196e-13 -2.720765484e-13)
5(-5.553317487e-10 -2.776970481e-10 -2.531980025e-13 -3.495872214e-13 -2.551259383e-13)
5(3.980904328e-13 5.685376919e-14 -2.769187413e-13 -3.681797713e-13 -4.669049546e-13)
5(2.640588066e-13 -5.052143604e-14 -5.054023351e-13 -5.54685193e-13 -4.636673944e-13)
5(5.583952928e-13 5.120810232e-14 -4.805177914e-13 -6.710772687e-13 -8.370980427e-13)
5(-3.740721766e-11 -2.041145313e-11 -2.61014624e-12 -1.722715212e-12 -1.640826544e-12)
5(-3.352543778e-11 -1.776173219e-11 -2.679036677e-12 -2.531512842e-12 -1.702978937e-12)
5(-1.077469544e-11 -7.231187535e-12 -2.441491495e-12 -1.629660254e-12 -2.064017143e-12)
5(3.618259917e-12 6.260505467e-13 -1.922065354e-12 -1.497073916e-12 -1.516175949e-12)
5(3.523299812e-12 1.051725956e-12 -1.40665504e-12 -2.641108514e-12 -3.888754847e-12)
5(4.742489896e-12 1.353808295e-12 -1.600547678e-12 -3.932077083e-12 -6.697932116e-12)
5(6.309322111e-12 3.46382929e-12 -3.740726536e-12 -7.724365109e-12 -7.348940677e-12)
5(9.385618144e-12 4.063531044e-12 -3.246130373e-12 -8.619531983e-12 -1.200535928e-11)
5(2.007049412e-11 7.031102416e-12 -5.719196048e-12 -1.205121243e-11 -1.867232205e-11)
5(4.731466071e-11 1.111145606e-11 -1.418722824e-11 -1.688746596e-11 -3.049222405e-11)
5(1.10486614e-10 2.660614518e-11 -2.918541688e-11 -3.041731276e-11 -5.973811544e-11)
5(1.337739276e-10 4.172520085e-11 -1.215916693e-11 -3.773988095e-11 -1.014849539e-10)
5(1.36832957e-10 8.459023133e-11 3.667891925e-11 -6.629515051e-11 -1.736006339e-10)
5(2.27310838e-10 1.257346921e-10 4.916942395e-11 -8.997446166e-11 -2.54129225e-10)
5(4.2404179e-10 2.123500065e-10 2.584351479e-11 -1.614540358e-10 -3.739368782e-10)
5(7.152625447e-10 3.81611948e-10 6.598705973e-11 -3.106651397e-10 -7.053430475e-10)
5(1.091509064e-09 5.353452425e-10 -5.601395881e-11 -7.044595961e-10 -1.317709854e-09)
5(1.815479215e-09 8.901506468e-10 -2.218376139e-10 -9.417317092e-10 -1.474966112e-09)
5(2.821124208e-09 1.428484876e-09 -7.643756457e-10 -2.474315174e-09 -3.384033513e-09)
5(3.633950565e-09 1.687723995e-09 -1.478160228e-09 -3.987161569e-09 -5.276505256e-09)
5(5.706904968e-09 2.996813534e-09 -3.234393073e-09 -7.252598294e-09 -7.749688343e-09)
5(4.651890981e-09 5.859481802e-10 -5.602418226e-09 -7.943760184e-09 -8.162678537e-09)
5(6.276294482e-09 -9.298125363e-10 -9.40458719e-09 -1.339688397e-08 -1.612051312e-08)
5(3.504705387e-09 -3.166062623e-09 -1.44943296e-08 -1.570387544e-08 -1.225592231e-08)
5(-2.624538204e-09 -7.474275541e-09 -1.976236464e-08 -2.38970864e-08 -2.059345639e-08)
5(-1.362237009e-08 -1.760910234e-08 -2.348044879e-08 -2.094092671e-08 -1.651679043e-08)
5(-2.185683278e-08 -2.50808615e-08 -2.704160378e-08 -1.818396468e-08 -1.058961203e-08)
5(-3.737671175e-08 -3.346120002e-08 -2.75969757e-08 -1.282413156e-08 1.793277565e-26)
5(-4.316214706e-08 -3.046837672e-08 -2.467943077e-08 -1.570704357e-08 1.701680323e-10)
5(-5.002273207e-08 -3.346291185e-08 -1.708184046e-08 -8.624382942e-09 1.18234078e-11)
5(-3.945704353e-08 -2.897222978e-08 -1.16967862e-08 -2.45307819e-09 7.716131209e-25)
5(-3.057583215e-08 -2.025829502e-08 -5.60821547e-09 -6.571086605e-10 -3.854427665e-11)
5(-2.706778281e-08 -1.426671474e-08 -8.721154124e-10 -1.392920744e-10 7.816429054e-24)
5(-1.099336544e-08 -5.863016066e-09 -3.811063093e-10 -1.477296237e-11 2.408751579e-23)
5(-4.485359374e-09 -2.250119498e-09 -7.439810873e-12 4.380831763e-23 6.841194216e-23)
5(-1.636294227e-09 -8.181471133e-10 3.197165085e-23 1.213645489e-22 1.88888619e-22)
5(-3.156939408e-10 -1.578469704e-10 8.660144683e-23 3.241932669e-22 5.033944142e-22)
5(-2.925391951e-12 -1.462695975e-12 2.277813146e-22 8.419170649e-22 1.304074978e-21)
5(4.27594764e-23 1.209181291e-22 5.771166978e-22 2.12444276e-21 3.293728907e-21)
5(1.088982014e-22 3.068977698e-22 1.431085989e-21 5.180684699e-21 8.004094757e-21)
5(8.126115303e-23 6.650500528e-22 3.406821154e-21 1.222596714e-20 1.888713093e-20)
5(-1.705930167e-22 1.420490205e-21 7.878149918e-21 2.731742746e-20 4.189012852e-20)
5(1.909711689e-21 3.701610668e-21 1.672751431e-20 5.85280473e-20 8.909457563e-20)
5(5.947390998e-21 1.3360329e-20 2.421214443e-20 1.152753209e-19 2.028996199e-19)
5(1.304072116e-20 3.613834918e-20 1.684792784e-19 4.57628879e-19 6.375351784e-19)
)


60
(
5(-6.937794318e-13 3.882949266e-13 3.239097845e-13 3.524262222e-14 8.930349604e-13)
5(-7.947888633e-14 1.270251202e-13 5.185239474e-14 -1.366285274e-13 -4.343271741e-14)
5(2.449881038e-13 6.418713499e-14 -6.713345582e-14 -1.875799412e-13 -3.575068045e-13)
5(4.357031636e-13 9.15663416e-14 -9.869138835e-14 -2.149332853e-13 -4.850542742e-13)
5(5.231271754e-13 1.663622504e-13 -7.344910254e-14 -2.237066657e-13 -4.909178011e-13)
5(6.139011981e-13 2.795207552e-13 -7.041094012e-15 -1.775800418e-13 -3.959375834e-13)
5(7.766586071e-13 3.978829934e-13 5.459567678e-14 -1.278757172e-13 -3.458354084e-13)
5(1.093038421e-12 5.449741829e-13 1.187950465e-13 -9.897072089e-14 -4.386215897e-13)
5(1.571179265e-12 7.360385353e-13 2.03282011e-13 -6.01822126e-14 -6.260306412e-13)
5(2.262474814e-12 1.063237799e-12 3.425964374e-13 6.456104233e-14 -6.920700069e-13)
5(2.94649351e-12 1.46374855e-12 5.673969555e-13 1.465358158e-13 -8.607186893e-13)
5(4.066445903e-12 2.13498624e-12 8.698855289e-13 2.065936444e-13 -1.123057192e-12)
5(5.483460795e-12 3.001382604e-12 1.271762685e-12 3.279481069e-13 -1.368324744e-12)
5(7.312332445e-12 4.112784821e-12 1.74474517e-12 3.003230544e-13 -1.975607034e-12)
5(9.838404965e-12 5.582092122e-12 2.316368537e-12 2.15802176e-13 -2.875353443e-12)
5(1.329879274e-11 7.622690802e-12 3.104304328e-12 1.87477989e-13 -3.887063814e-12)
5(1.715208083e-11 1.001631739e-11 4.243240316e-12 2.970020976e-13 -5.011922494e-12)
5(2.296606341e-11 1.358689394e-11 5.883207341e-12 2.679097147e-13 -7.022870774e-12)
5(3.101591293e-11 1.864255498e-11 8.436343071e-12 7.257448803e-13 -9.151999348e-12)
5(4.224408602e-11 2.586663235e-11 1.264667095e-11 1.861812346e-12 -1.208053851e-11)
5(5.80327854e-11 3.649972053e-11 1.961572175e-11 5.490289472e-12 -1.32842089e-11)
5(8.089252415e-11 5.277099197e-11 3.153881098e-11 1.165082392e-11 -1.512651434e-11)
5(1.186381407e-10 7.966128094e-11 5.209103711e-11 2.499410112e-11 -1.350945083e-11)
5(1.798065767e-10 1.247561358e-10 8.89403973e-11 4.999270636e-11 -8.189686927e-12)
5(2.7221213e-10 1.966565797e-10 1.547458918e-10 1.000534432e-10 1.171613223e-11)
5(4.343815537e-10 3.2385649e-10 2.732036816e-10 1.944783396e-10 5.588074234e-11)
5(7.006267908e-10 5.417037667e-10 4.841658698e-10 3.620021537e-10 1.384533105e-10)
5(1.158080147e-09 9.194494015e-10 8.478951413e-10 6.38051235e-10 2.611308432e-10)
5(1.917015379e-09 1.559802257e-09 1.461882565e-09 1.108082114e-09 4.949882318e-10)
5(3.193774342e-09 2.643177026e-09 2.472463366e-09 1.858746836e-09 8.651466504e-10)
5(5.214532648e-09 4.393862355e-09 4.07428596e-09 2.94488972e-09 1.314399581e-09)
5(8.422567568e-09 7.138153729e-09 6.472864815e-09 4.473194105e-09 1.854398471e-09)
5(1.325605762e-08 1.131297082e-08 9.913330628e-09 6.439102238e-09 2.421427236e-09)
5(2.031984006e-08 1.733679936e-08 1.448844581e-08 8.327414752e-09 2.031696548e-09)
5(3.010150349e-08 2.556851571e-08 1.993303387e-08 9.607180245e-09 3.838206701e-10)
5(4.26655651e-08 3.596752441e-08 2.568859221e-08 8.910727686e-09 -4.286245318e-09)
5(5.756422368e-08 4.787326442e-08 3.018589201e-08 4.540530521e-09 -1.310841783e-08)
5(7.38735897e-08 5.981122077e-08 3.121249529e-08 -5.761189174e-09 -2.819851708e-08)
5(8.770764101e-08 6.860057465e-08 2.59647806e-08 -2.52829527e-08 -5.300195829e-08)
5(9.636940938e-08 7.02446749e-08 1.014157005e-08 -5.720226521e-08 -9.05677301e-08)
5(9.223336696e-08 5.937271486e-08 -1.775163321e-08 -1.007318339e-07 -1.394483386e-07)
5(7.458872109e-08 3.449297028e-08 -5.996070496e-08 -1.515142406e-07 -1.887098518e-07)
5(3.494681396e-08 -7.17031455e-09 -1.113542184e-07 -1.969852838e-07 -2.205495739e-07)
5(-2.428680758e-08 -6.038638575e-08 -1.615620291e-07 -2.243509452e-07 -2.22063796e-07)
5(-8.771131279e-08 -1.157721913e-07 -1.990055265e-07 -2.239418848e-07 -1.937057864e-07)
5(-1.443696677e-07 -1.605973321e-07 -2.097295927e-07 -1.945686288e-07 -1.465030686e-07)
5(-1.803373254e-07 -1.834317602e-07 -1.898650164e-07 -1.442793658e-07 -9.535489379e-08)
5(-1.847419851e-07 -1.747413812e-07 -1.465373838e-07 -9.023642621e-08 -5.213886202e-08)
5(-1.604355871e-07 -1.403132986e-07 -9.517442353e-08 -4.679532598e-08 -2.343281501e-08)
5(-1.14720599e-07 -9.194874841e-08 -5.043442279e-08 -2.00610758e-08 -8.430203824e-09)
5(-6.728716469e-08 -4.938456104e-08 -2.127338927e-08 -6.822437116e-09 -2.580053085e-09)
5(-2.913971561e-08 -2.002637375e-08 -7.015942832e-09 -1.896940607e-09 -6.7502744e-10)
5(-9.981424088e-09 -6.423282859e-09 -1.796719073e-09 -4.408839029e-10 -1.534712911e-10)
5(-2.20644506e-09 -1.371532186e-09 -3.327776021e-10 -7.920348843e-11 -2.947108417e-11)
5(-3.171848575e-10 -1.993468736e-10 -5.002823093e-11 -1.158590808e-11 -4.6242439e-12)
5(-2.667300723e-11 -1.682289817e-11 -4.518910929e-12 -1.295737615e-12 -5.264424851e-13)
5(-1.367709245e-12 -9.648730868e-13 -3.362078322e-13 -7.567893978e-14 -4.097914409e-14)
5(-3.73057415e-14 -2.705556313e-14 -9.256289033e-15 -2.53015152e-15 -3.353109724e-15)
5(-2.611411519e-15 2.637821714e-15 -3.182660645e-16 -2.762760394e-15 2.998066288e-15)
5(4.387578316e-20 1.573273145e-11 2.292633965e-19 -1.573273068e-11 1.026113546e-18)
)


60
(
5(-9.697869659e-13 9.608681963e-13 9.188701357e-13 3.307969837e-13 1.715377054e-12)
5(7.010403215e-15 4.250773432e-13 3.423637599e-13 -5.530726943e-14 4.780222435e-14)
5(6.838242079e-13 3.230984208e-13 9.660377415e-14 -1.84881679e-13 -6.005982726e-13)
5(1.131795482e-12 4.39160482e-13 8.183965597e-14 -1.950416465e-13 -8.072371233e-13)
5(1.489216382e-12 7.291630813e-13 2.437242838e-13 -1.417075453e-13 -8.017538771e-13)
5(1.849905228e-12 1.134131598e-12 5.285267001e-13 8.81908575e-14 -4.623137168e-13)
5(2.443230886e-12 1.622764757e-12 8.429361513e-13 3.147862126e-13 -2.540012499e-13)
5(3.430502976e-12 2.220934345e-12 1.211976169e-12 5.501182105e-13 -3.12350204e-13)
5(5.001750078e-12 3.075897498e-12 1.666053468e-12 8.325716572e-13 -5.169187038e-13)
5(6.916402095e-12 4.206459175e-12 2.286876116e-12 1.029364289e-12 -1.018507399e-12)
5(9.388179671e-12 5.759754576e-12 3.047800656e-12 1.238374655e-12 -1.487522519e-12)
5(1.224391543e-11 7.676478545e-12 3.971316709e-12 1.332605428e-12 -2.168380898e-12)
5(1.634586709e-11 1.038403987e-11 4.977704337e-12 1.056531439e-12 -3.420133147e-12)
5(2.144857034e-11 1.360046872e-11 5.961521466e-12 2.012800616e-13 -5.768115703e-12)
5(2.76421502e-11 1.740504393e-11 6.833455361e-12 -9.625319858e-13 -8.424037033e-12)
5(3.439242951e-11 2.14899547e-11 7.606813926e-12 -2.90918479e-12 -1.244451755e-11)
5(4.515098066e-11 2.77674842e-11 8.401657021e-12 -5.477571949e-12 -1.737447018e-11)
5(5.831250673e-11 3.531506834e-11 9.384110373e-12 -8.080399189e-12 -2.261138917e-11)
5(7.390004656e-11 4.471851527e-11 1.15821631e-11 -1.058106005e-11 -2.878946231e-11)
5(9.474271921e-11 5.77502757e-11 1.570932767e-11 -1.272808886e-11 -3.611700088e-11)
5(1.197363695e-10 7.502173593e-11 2.408050852e-11 -1.293082886e-11 -4.371557239e-11)
5(1.582948831e-10 1.023710699e-10 3.970013082e-11 -3.275344279e-12 -3.950369357e-11)
5(2.160324462e-10 1.440601369e-10 6.76190586e-11 1.502840837e-11 -3.309347281e-11)
5(2.958425755e-10 2.072935832e-10 1.201105977e-10 5.654379189e-11 -8.389020795e-12)
5(4.238578155e-10 3.140384132e-10 2.175758907e-10 1.396651415e-10 4.839751231e-11)
5(6.366695996e-10 4.978768821e-10 3.98272103e-10 3.011823986e-10 1.64904756e-10)
5(9.816228692e-10 8.083193233e-10 7.15220023e-10 5.973480655e-10 3.992718622e-10)
5(1.53937855e-09 1.326644096e-09 1.278579101e-09 1.114688739e-09 7.861289191e-10)
5(2.525120608e-09 2.240448559e-09 2.239542892e-09 2.020439017e-09 1.517568761e-09)
5(4.100600377e-09 3.75662484e-09 3.859389161e-09 3.548375437e-09 2.790621855e-09)
5(6.746021077e-09 6.276039786e-09 6.478228737e-09 5.792924338e-09 4.435449698e-09)
5(1.09690605e-08 1.02937516e-08 1.05506054e-08 9.297825118e-09 7.11288215e-09)
5(1.742969302e-08 1.651794002e-08 1.666145719e-08 1.403197018e-08 1.0347213e-08)
5(2.705193519e-08 2.57532453e-08 2.518802749e-08 2.035278895e-08 1.478407832e-08)
5(4.097280634e-08 3.89052465e-08 3.653568169e-08 2.736463783e-08 1.849559892e-08)
5(5.972077524e-08 5.644621434e-08 5.049894764e-08 3.4626976e-08 2.142771016e-08)
5(8.290964824e-08 7.809750997e-08 6.598093802e-08 3.952022328e-08 2.036394221e-08)
5(1.12694577e-07 1.039090452e-07 8.041242293e-08 3.874866e-08 1.179598763e-08)
5(1.429490608e-07 1.28844541e-07 8.951373772e-08 2.70026056e-08 -1.028224307e-08)
5(1.71806508e-07 1.498821015e-07 8.797887472e-08 -1.545334769e-09 -5.109072394e-08)
5(1.916550116e-07 1.595648364e-07 6.923636863e-08 -5.287077822e-08 -1.167396325e-07)
5(1.929022305e-07 1.488530908e-07 2.760418402e-08 -1.235028439e-07 -1.974101049e-07)
5(1.691787587e-07 1.136615455e-07 -3.773832038e-08 -2.045186326e-07 -2.754162922e-07)
5(1.1576134e-07 5.248781607e-08 -1.204160696e-07 -2.79543936e-07 -3.290414408e-07)
5(3.339620753e-08 -3.060992056e-08 -2.032820111e-07 -3.281154079e-07 -3.442828423e-07)
5(-6.257062282e-08 -1.204665472e-07 -2.660087938e-07 -3.361239997e-07 -3.185928834e-07)
5(-1.492770227e-07 -1.965566557e-07 -2.914150197e-07 -2.980294359e-07 -2.570651212e-07)
5(-2.127669431e-07 -2.382770968e-07 -2.701575493e-07 -2.28359475e-07 -1.801911019e-07)
5(-2.339959813e-07 -2.345658308e-07 -2.120750034e-07 -1.484260547e-07 -1.078377828e-07)
5(-2.085634703e-07 -1.895936889e-07 -1.400147356e-07 -8.094457016e-08 -5.24835765e-08)
5(-1.527506272e-07 -1.259643552e-07 -7.502909391e-08 -3.609966224e-08 -2.131921981e-08)
5(-8.720252894e-08 -6.617912421e-08 -3.185565254e-08 -1.259031076e-08 -6.625035916e-09)
5(-3.72343241e-08 -2.636520726e-08 -1.033547855e-08 -3.422052698e-09 -1.669238712e-09)
5(-1.09580821e-08 -7.407859506e-09 -2.443681197e-09 -6.728582672e-10 -3.159910493e-10)
5(-2.222313699e-09 -1.433613897e-09 -3.977410339e-10 -1.001542607e-10 -4.974054992e-11)
5(-2.440032369e-10 -1.578166691e-10 -4.277223239e-11 -9.892194419e-12 -5.870025234e-12)
5(-1.650557317e-11 -9.965133211e-12 -2.19093485e-12 -6.790050024e-13 -4.008335545e-13)
5(-4.50738861e-13 -1.812793414e-13 -2.908537295e-14 -2.054565976e-14 1.052596045e-13)
5(-3.316448526e-11 6.533971049e-15 6.02130932e-12 -7.777222392e-15 2.111938012e-11)
5(-3.405264867e-19 3.46353179e-11 5.084704191e-19 -3.46353166e-11 1.929951405e-18)
)


60
(
5(-1.154105873e-12 2.054737061e-12 2.120283576e-12 8.91690412e-13 2.806393667e-12)
5(4.077350222e-13 1.148178065e-12 1.046409816e-12 1.705944661e-13 1.369904072e-13)
5(1.652678781e-12 1.015527491e-12 6.211483301e-13 -6.725161426e-14 -9.984236877e-13)
5(2.661705893e-12 1.42061604e-12 7.159654306e-13 -9.611837466e-14 -1.444641424e-12)
5(3.550109541e-12 2.209745363e-12 1.209328849e-12 1.144841821e-13 -1.320308149e-12)
5(4.546237163e-12 3.28470556e-12 1.995345276e-12 7.096047219e-13 -5.483071504e-13)
5(6.126656242e-12 4.67803101e-12 2.988506759e-12 1.328969952e-12 -8.966783595e-14)
5(8.720167341e-12 6.496381497e-12 4.126659176e-12 1.809814763e-12 -3.610931732e-13)
5(1.235312267e-11 8.813641684e-12 5.46499816e-12 2.355499862e-12 -9.448359016e-13)
5(1.687681108e-11 1.182584106e-11 7.119016799e-12 2.723313259e-12 -2.016536046e-12)
5(2.265594926e-11 1.583397505e-11 9.106283962e-12 2.939890216e-12 -3.320786662e-12)
5(2.96910586e-11 2.091654269e-11 1.124534797e-11 2.185537052e-12 -5.977595045e-12)
5(3.821975865e-11 2.703004437e-11 1.32026819e-11 4.476881345e-13 -9.66965745e-12)
5(4.99711426e-11 3.466640988e-11 1.471957291e-11 -2.391697282e-12 -1.486086324e-11)
5(6.349786756e-11 4.314633137e-11 1.570909925e-11 -7.699523423e-12 -2.402245016e-11)
5(7.889288132e-11 5.281403966e-11 1.639469863e-11 -1.420067195e-11 -3.445554317e-11)
5(9.608579635e-11 6.351290967e-11 1.626438425e-11 -2.307884083e-11 -4.774642717e-11)
5(1.223704259e-10 7.91802481e-11 1.597503275e-11 -3.41660803e-11 -6.429215584e-11)
5(1.449250905e-10 9.382571747e-11 1.723462884e-11 -4.438430865e-11 -8.051153052e-11)
5(1.866322364e-10 1.195870576e-10 1.990063253e-11 -5.68466125e-11 -1.009526112e-10)
5(2.332296741e-10 1.489603988e-10 2.535938369e-11 -6.638005337e-11 -1.187877507e-10)
5(2.710963883e-10 1.798856535e-10 4.11586438e-11 -5.997221192e-11 -1.135867927e-10)
5(3.410787941e-10 2.359580481e-10 7.03401758e-11 -5.322403333e-11 -1.162911162e-10)
5(4.885729154e-10 3.44792325e-10 1.264183595e-10 -1.2768174e-11 -7.736133238e-11)
5(6.440552302e-10 4.772516618e-10 2.357534159e-10 7.280328281e-11 -1.54521726e-11)
5(8.928538916e-10 7.024233275e-10 4.433125777e-10 2.672505567e-10 1.598687214e-10)
5(1.273008908e-09 1.074379468e-09 8.24154184e-10 6.428124907e-10 5.130666418e-10)
5(1.912700944e-09 1.702750062e-09 1.494255676e-09 1.310673308e-09 1.125634444e-09)
5(2.941613787e-09 2.74556802e-09 2.655519828e-09 2.483652179e-09 2.205786953e-09)
5(4.660612755e-09 4.511548366e-09 4.622784761e-09 4.452939179e-09 4.022792813e-09)
5(7.481747714e-09 7.44187799e-09 7.875402364e-09 7.704465673e-09 7.060134884e-09)
5(1.199419423e-08 1.214012631e-08 1.304483954e-08 1.271365626e-08 1.162369182e-08)
5(1.906448691e-08 1.953204649e-08 2.100635222e-08 2.012573929e-08 1.823838021e-08)
5(2.996840004e-08 3.076355007e-08 3.254420188e-08 3.01682289e-08 2.680675414e-08)
5(4.589358223e-08 4.707163674e-08 4.865811366e-08 4.376310703e-08 3.845967797e-08)
5(6.856207373e-08 6.982385238e-08 6.987671657e-08 5.890228876e-08 4.913677539e-08)
5(9.851917572e-08 9.977466893e-08 9.582438253e-08 7.547659048e-08 6.033457803e-08)
5(1.357874709e-07 1.361623244e-07 1.244914623e-07 8.943715352e-08 6.642856028e-08)
5(1.800227268e-07 1.777068774e-07 1.520372191e-07 9.386025665e-08 5.903710323e-08)
5(2.276949327e-07 2.197149136e-07 1.717914179e-07 8.063870492e-08 2.942946851e-08)
5(2.713906421e-07 2.533521047e-07 1.747404092e-07 4.063277739e-08 -3.290169623e-08)
5(3.024651171e-07 2.696412311e-07 1.510981074e-07 -2.835192265e-08 -1.22082715e-07)
5(3.064093038e-07 2.564834603e-07 9.340137447e-08 -1.252247477e-07 -2.306946276e-07)
5(2.746876175e-07 2.070776867e-07 1.253726635e-09 -2.335696929e-07 -3.301790832e-07)
5(1.988756561e-07 1.174803643e-07 -1.13057672e-07 -3.321297954e-07 -4.020591742e-07)
5(8.668865671e-08 -2.653199563e-09 -2.26800029e-07 -3.974058658e-07 -4.332067295e-07)
5(-4.36541837e-08 -1.320050465e-07 -3.126428571e-07 -4.079247389e-07 -4.109196728e-07)
5(-1.734676159e-07 -2.409097848e-07 -3.48798658e-07 -3.649139104e-07 -3.405824585e-07)
5(-2.701436463e-07 -3.023185135e-07 -3.257910537e-07 -2.78955745e-07 -2.408227633e-07)
5(-3.087581471e-07 -3.03602142e-07 -2.572441274e-07 -1.793379762e-07 -1.426338346e-07)
5(-2.850508718e-07 -2.487740244e-07 -1.673590481e-07 -9.67834096e-08 -7.13459001e-08)
5(-2.139424678e-07 -1.660831248e-07 -8.748719254e-08 -4.230886733e-08 -2.786713135e-08)
5(-1.207730594e-07 -8.653819409e-08 -3.60407288e-08 -1.413092568e-08 -8.483722532e-09)
5(-5.082972835e-08 -3.39591707e-08 -1.09566856e-08 -3.384943085e-09 -1.945128012e-09)
5(-1.575399376e-08 -9.761247341e-09 -2.275055162e-09 -5.465571013e-10 -3.115047973e-10)
5(-2.694493268e-09 -1.586522021e-09 -2.824192713e-10 -5.958206921e-11 -3.287636869e-11)
5(-1.694865497e-10 -1.063540372e-10 -2.370836613e-11 -3.358747679e-12 -2.522287887e-12)
5(-1.170308405e-11 -7.071302522e-12 -8.07078439e-13 -1.069186531e-13 -1.039201421e-12)
5(2.140297476e-10 -1.148125148e-12 -5.747294439e-12 1.066751867e-12 -2.026979053e-10)
5(-3.615512947e-15 -1.821776196e-15 -1.271304391e-17 2.762360278e-18 2.911364191e-18)
)


60
(
5(-1.089439764e-12 3.888064055e-12 4.202820591e-12 1.802351927e-12 4.064630545e-12)
5(1.324143396e-12 2.533271608e-12 2.423981928e-12 6.46302552e-13 1.870410682e-13)
5(3.459778674e-12 2.450718498e-12 1.793359366e-12 2.565591244e-13 -1.631942163e-12)
5(5.370543498e-12 3.414324986e-12 2.18330821e-12 2.336759935e-13 -2.441157958e-12)
5(7.291034101e-12 5.211036025e-12 3.353354305e-12 7.538174665e-13 -2.068035727e-12)
5(9.630585719e-12 7.617340761e-12 5.097362432e-12 1.966315593e-12 -6.579978763e-13)
5(1.304615207e-11 1.076348555e-11 7.323098618e-12 3.314832684e-12 4.642871618e-13)
5(1.835858959e-11 1.483100935e-11 9.946294303e-12 4.247335953e-12 -9.448758123e-14)
5(2.56175746e-11 1.996088153e-11 1.307268744e-11 5.31050273e-12 -1.220180948e-12)
5(3.476509991e-11 2.662225911e-11 1.678956207e-11 5.675287216e-12 -3.749131392e-12)
5(4.630142646e-11 3.518393551e-11 2.089079831e-11 5.773868794e-12 -6.167414473e-12)
5(5.961742058e-11 4.545389586e-11 2.513213111e-11 3.627893911e-12 -1.171810325e-11)
5(7.724098623e-11 5.813737551e-11 2.890702524e-11 -2.545688026e-13 -1.928942329e-11)
5(9.553676055e-11 7.142327173e-11 3.184212561e-11 -8.216280522e-12 -3.280702936e-11)
5(1.216643406e-10 8.85669119e-11 3.363413053e-11 -1.829635097e-11 -4.839147977e-11)
5(1.512582663e-10 1.080415058e-10 3.469332611e-11 -3.238080148e-11 -6.932350984e-11)
5(1.809190814e-10 1.2755729e-10 3.452659209e-11 -4.966453521e-11 -9.418675602e-11)
5(2.221316383e-10 1.531597252e-10 3.354596672e-11 -7.191910888e-11 -1.26742339e-10)
5(2.688417838e-10 1.834691663e-10 3.31783477e-11 -9.536946166e-11 -1.5899907e-10)
5(3.265535407e-10 2.215356222e-10 3.495370042e-11 -1.192854393e-10 -1.919605757e-10)
5(3.967681993e-10 2.710668842e-10 4.361465627e-11 -1.418781509e-10 -2.256200452e-10)
5(4.890953188e-10 3.396264501e-10 6.182505279e-11 -1.507836277e-10 -2.350597796e-10)
5(6.136048196e-10 4.33974021e-10 9.791657137e-11 -1.582833268e-10 -2.580565739e-10)
5(7.680583532e-10 5.585059413e-10 1.629675489e-10 -1.077898575e-10 -1.925612836e-10)
5(9.772412709e-10 7.396963299e-10 2.846507965e-10 -3.582308583e-11 -1.387963757e-10)
5(1.31896208e-09 1.042569101e-09 5.101690481e-10 1.702674932e-10 8.637301227e-11)
5(1.743668117e-09 1.48729967e-09 9.337588548e-10 5.691002364e-10 5.016139868e-10)
5(2.383270581e-09 2.167833426e-09 1.657211393e-09 1.296630727e-09 1.231234939e-09)
5(3.381100532e-09 3.266650678e-09 2.911431936e-09 2.643425983e-09 2.616188916e-09)
5(5.134157948e-09 5.154541518e-09 5.03502974e-09 4.922957871e-09 4.950781351e-09)
5(7.856401404e-09 8.191409079e-09 8.556792409e-09 8.705024507e-09 8.822880948e-09)
5(1.221125495e-08 1.307942e-08 1.431316526e-08 1.495539156e-08 1.523203764e-08)
5(1.930549846e-08 2.091809401e-08 2.325201132e-08 2.391489344e-08 2.38564538e-08)
5(3.031516863e-08 3.300233683e-08 3.660953134e-08 3.710679208e-08 3.668402651e-08)
5(4.658104922e-08 5.077473575e-08 5.582786619e-08 5.513631938e-08 5.358532865e-08)
5(6.976543889e-08 7.602885973e-08 8.207745599e-08 7.803220976e-08 7.420178811e-08)
5(1.019336281e-07 1.106558607e-07 1.160059142e-07 1.05466917e-07 9.830009903e-08)
5(1.45120434e-07 1.556501135e-07 1.570370515e-07 1.352131926e-07 1.225320753e-07)
5(1.983284946e-07 2.095814005e-07 2.018055693e-07 1.595815889e-07 1.363863456e-07)
5(2.598685134e-07 2.691798161e-07 2.445523131e-07 1.703766461e-07 1.301397849e-07)
5(3.241736243e-07 3.275440525e-07 2.755882001e-07 1.55630329e-07 9.099873854e-08)
5(3.827651375e-07 3.743054244e-07 2.818447143e-07 1.054396902e-07 1.303566302e-08)
5(4.218303151e-07 3.9465288e-07 2.496828912e-07 1.569293501e-08 -1.005044674e-07)
5(4.272048434e-07 3.757202456e-07 1.70730243e-07 -1.059120352e-07 -2.290489085e-07)
5(3.835798203e-07 3.037704667e-07 4.751730157e-08 -2.416435141e-07 -3.543605182e-07)
5(2.865115917e-07 1.803115738e-07 -1.034170695e-07 -3.651177231e-07 -4.492897513e-07)
5(1.376154332e-07 1.405652119e-08 -2.513416256e-07 -4.447205692e-07 -4.96260278e-07)
5(-4.288089952e-08 -1.656549867e-07 -3.667118602e-07 -4.602203267e-07 -4.754460071e-07)
5(-2.204918731e-07 -3.151365895e-07 -4.182776543e-07 -4.11064723e-07 -3.953554433e-07)
5(-3.583011881e-07 -4.011816167e-07 -3.953308413e-07 -3.155759322e-07 -2.845522272e-07)
5(-4.249166007e-07 -4.074456412e-07 -3.137039134e-07 -2.031433487e-07 -1.688535522e-07)
5(-4.098478901e-07 -3.425452619e-07 -2.034173679e-07 -1.063992037e-07 -8.120630528e-08)
5(-3.110359546e-07 -2.361348667e-07 -1.10044553e-07 -4.479925981e-08 -3.074319241e-08)
5(-1.862117282e-07 -1.299254938e-07 -4.640103569e-08 -1.372836185e-08 -8.29391177e-09)
5(-8.280045386e-08 -5.284899955e-08 -1.367826267e-08 -3.007769759e-09 -1.55655942e-09)
5(-3.008106308e-08 -1.746047784e-08 -2.727235938e-09 -4.131611303e-10 -2.117429922e-10)
5(-6.051446747e-09 -3.313374573e-09 -3.062272015e-10 -2.678560671e-11 -1.641920899e-11)
5(-5.71467099e-10 -3.050950828e-10 -1.991649257e-11 -1.162053564e-12 -1.214188589e-12)
5(1.194225938e-10 -1.966094597e-11 -2.979611254e-11 4.89028105e-14 -9.905445504e-11)
5(-4.449035729e-11 1.427905583e-10 -8.286896066e-14 -1.65118604e-10 3.888035469e-18)
)


60
(
5(-5.710871138e-13 6.709010969e-12 7.482651128e-12 3.136561767e-12 5.29693033e-12)
5(2.992324103e-12 4.856975928e-12 4.756451618e-12 1.433020729e-12 7.476597613e-14)
5(6.56793918e-12 5.078565582e-12 3.903878541e-12 7.810452769e-13 -2.656474544e-12)
5(9.849601473e-12 7.013122275e-12 4.82463901e-12 1.081592606e-12 -3.30944973e-12)
5(1.321648572e-11 1.031402091e-11 7.165946122e-12 2.266877324e-12 -2.386581497e-12)
5(1.758929518e-11 1.488436318e-11 1.063083675e-11 4.429782336e-12 -2.226776557e-13)
5(2.377767453e-11 2.080777037e-11 1.497843597e-11 7.203752367e-12 2.288498994e-12)
5(3.338875272e-11 2.854398101e-11 2.007469752e-11 8.843283034e-12 1.236380342e-12)
5(4.611635995e-11 3.811778337e-11 2.605039578e-11 1.06284037e-11 -7.247773653e-13)
5(6.251330645e-11 5.065602036e-11 3.302882313e-11 1.138869693e-11 -4.481518128e-12)
5(8.141701257e-11 6.576872558e-11 4.07999695e-11 1.113581052e-11 -9.207879368e-12)
5(1.066472095e-10 8.53142427e-11 4.869093155e-11 7.348022947e-12 -1.870454127e-11)
5(1.339444974e-10 1.066190764e-10 5.589575164e-11 1.713442299e-13 -3.215515948e-11)
5(1.685416446e-10 1.319401435e-10 6.188126194e-11 -1.306531696e-11 -5.455451541e-11)
5(2.054362249e-10 1.58494178e-10 6.579589401e-11 -2.978484847e-11 -7.960935393e-11)
5(2.515014827e-10 1.901827091e-10 6.768375278e-11 -5.433561046e-11 -1.151747909e-10)
5(3.050087336e-10 2.264881112e-10 6.824917201e-11 -8.078380867e-11 -1.500984726e-10)
5(3.637000583e-10 2.667105148e-10 6.84453356e-11 -1.167661473e-10 -2.007019946e-10)
5(4.414300484e-10 3.20020339e-10 7.16000913e-11 -1.487903806e-10 -2.421703142e-10)
5(5.223967365e-10 3.803049198e-10 7.937759713e-11 -1.890164231e-10 -2.985749374e-10)
5(6.224091088e-10 4.566029965e-10 9.508199127e-11 -2.23831998e-10 -3.470310944e-10)
5(7.810938661e-10 5.741728804e-10 1.27021265e-10 -2.396052293e-10 -3.66001094e-10)
5(9.368974475e-10 7.095696539e-10 1.812693397e-10 -2.496282728e-10 -3.795533647e-10)
5(1.147601706e-09 8.970018071e-10 2.769176477e-10 -2.163654152e-10 -3.401642178e-10)
5(1.447196957e-09 1.170029626e-09 4.441064297e-10 -9.559375807e-11 -1.8653808e-10)
5(1.831205146e-09 1.550526253e-09 7.210677566e-10 9.425943167e-11 1.623070946e-11)
5(2.326172392e-09 2.073341294e-09 1.181807312e-09 5.127281042e-10 4.823517796e-10)
5(3.072580709e-09 2.869946927e-09 1.952727679e-09 1.307216728e-09 1.376291242e-09)
5(4.179618827e-09 4.101837895e-09 3.259550917e-09 2.720303752e-09 2.945562634e-09)
5(5.856853492e-09 6.041869715e-09 5.446346985e-09 5.096316883e-09 5.526825735e-09)
5(8.368384241e-09 9.058350311e-09 9.056739547e-09 9.249886971e-09 1.013461123e-08)
5(1.253131997e-08 1.396309625e-08 1.487243394e-08 1.581633837e-08 1.728268139e-08)
5(1.916631507e-08 2.174090283e-08 2.40780729e-08 2.593120483e-08 2.802175447e-08)
5(2.954665921e-08 3.379214786e-08 3.818089086e-08 4.16969425e-08 4.50697398e-08)
5(4.487731476e-08 5.170382322e-08 5.890966373e-08 6.302317552e-08 6.675735525e-08)
5(6.751771703e-08 7.777115565e-08 8.811194109e-08 9.185593595e-08 9.551258399e-08)
5(1.004128975e-07 1.146986724e-07 1.274469639e-07 1.283818525e-07 1.308542246e-07)
5(1.444950611e-07 1.635745947e-07 1.771493573e-07 1.714263707e-07 1.71208155e-07)
5(2.018377765e-07 2.254789032e-07 2.361986623e-07 2.163710446e-07 2.094647945e-07)
5(2.708109145e-07 2.982856655e-07 2.997481406e-07 2.535507651e-07 2.333656655e-07)
5(3.506446947e-07 3.773236914e-07 3.587230482e-07 2.667088329e-07 2.199742575e-07)
5(4.326779713e-07 4.530891904e-07 3.99330014e-07 2.501815347e-07 1.75203451e-07)
5(5.042964897e-07 5.106011098e-07 4.047960468e-07 1.84611306e-07 7.653624823e-08)
5(5.518789746e-07 5.335334056e-07 3.589331249e-07 7.356692251e-08 -5.554456808e-08)
5(5.549178323e-07 5.00743967e-07 2.527423094e-07 -7.800647907e-08 -2.149274752e-07)