/*--------------------------------*- C++ -*----------------------------------*\
| =========                 |                                                 |
| \\      /  F ield         | OpenFOAM: The Open Source CFD Toolbox           |
|  \\    /   O peration     | Version:  2.3.1                                 |
|   \\  /    A nd           | Web:      www.OpenFOAM.org                      |
|    \\/     M anipulation  |                                                 |
\*---------------------------------------------------------------------------*/
FoamFile
{
    version     2.0;
    format      ascii;
    class       dictionary;
    location    "constant";
    object      GRPSI62;
}
// * * * * * * * * * * * * * * * * * * * * * * * * * * * * * * * * * * * * * //

GRPSI62_table
60
(

60
(
5(-3.329249555e-07 -2.453931899e-08 3.325188635e-08 -7.80535549e-08 6.123543505e-08)
5(-2.321856169e-07 -2.095471276e-08 5.220506272e-08 -4.053776967e-08 4.790526589e-09)
5(-3.237294111e-07 -1.604654922e-07 -1.896628474e-08 -5.488984662e-08 -6.904869703e-08)
5(-1.008973349e-06 -5.092250409e-07 -5.492493034e-08 -2.29583414e-08 5.445644457e-08)
5(-1.496828777e-06 -7.427437104e-07 -2.344060327e-08 -3.916019774e-08 -2.009783258e-08)
5(-1.469183243e-06 -7.583125676e-07 -1.363427386e-08 -7.401262134e-09 -3.497586833e-08)
5(-6.644310374e-08 -4.346807878e-08 -2.09055976e-08 3.660625836e-09 2.863939306e-08)
5(8.122749588e-09 1.232928939e-08 -1.606589422e-08 -4.439103307e-08 -4.011444851e-08)
5(-1.891103505e-06 -9.488146123e-07 -1.9073269e-08 -2.886027516e-08 -2.609973154e-08)
5(-2.937246964e-06 -1.469961275e-06 -3.367038208e-08 -4.08644656e-08 -1.706375249e-08)
5(-3.246029896e-06 -1.630523729e-06 -3.821607708e-08 -4.083606626e-08 -2.025753934e-08)
5(-1.251108939e-06 -6.331410999e-07 -3.009820461e-08 -3.595596639e-08 -2.688878437e-08)
5(1.689076058e-10 -1.279319202e-08 -2.961636329e-08 -3.338299141e-08 -3.328854789e-08)
5(-2.15166611e-08 -2.495731974e-08 -4.045348674e-08 -4.059849165e-08 -2.868798819e-08)
5(-8.770854005e-09 -1.965463495e-08 -3.608458613e-08 -4.104876753e-08 -4.04667787e-08)
5(-1.129646529e-07 -8.672321552e-08 -5.865677994e-08 -5.284987297e-08 -4.886796417e-08)
5(-1.173290201e-07 -8.357180525e-08 -6.003234758e-08 -5.922819014e-08 -4.820627554e-08)
5(-4.525245747e-08 -5.256759878e-08 -5.798758199e-08 -5.606170686e-08 -5.603098983e-08)
5(1.351087523e-09 -2.54890983e-08 -5.814898534e-08 -6.00836821e-08 -5.619867767e-08)
5(-4.197317582e-09 -2.882579497e-08 -5.979151078e-08 -7.519990017e-08 -8.427105113e-08)
5(-8.604966458e-09 -3.496022985e-08 -6.358634387e-08 -8.270054436e-08 -9.954389423e-08)
5(-1.052943581e-08 -3.112104629e-08 -9.130792295e-08 -1.128490005e-07 -9.479481183e-08)
5(-1.433368417e-08 -4.599347595e-08 -9.529588868e-08 -1.194346927e-07 -1.259308759e-07)
5(3.892949694e-08 -4.250769473e-08 -1.276519646e-07 -1.456736954e-07 -1.59988348e-07)
5(9.071980396e-08 -4.853584929e-08 -1.667034194e-07 -1.794828004e-07 -2.133502646e-07)
5(2.204682834e-07 -2.083210763e-08 -2.209626967e-07 -2.510415874e-07 -3.222902801e-07)
5(2.149039629e-07 -3.515301949e-08 -2.121839823e-07 -2.907454685e-07 -4.423329743e-07)
5(1.716728893e-07 1.291666644e-08 -1.750215521e-07 -4.07515163e-07 -6.108267783e-07)
5(2.234413008e-07 -3.191334139e-08 -2.696742868e-07 -5.077850143e-07 -7.634894385e-07)
5(4.209276341e-07 -4.023917547e-08 -4.777039351e-07 -7.004780448e-07 -9.469542044e-07)
5(5.834360729e-07 -1.938493904e-08 -6.304660987e-07 -1.026367999e-06 -1.414009752e-06)
5(6.694903148e-07 -1.547054901e-07 -1.033103398e-06 -1.577661082e-06 -2.068016663e-06)
5(9.748546304e-07 -1.799446137e-07 -1.528826034e-06 -1.955416073e-06 -2.187923936e-06)
5(1.214317897e-06 -2.567292208e-07 -2.406475226e-06 -3.388369968e-06 -3.691565822e-06)
5(8.854551352e-07 -8.265387217e-07 -3.3490643e-06 -4.466416572e-06 -4.773237123e-06)
5(1.286970566e-06 -7.947221325e-07 -5.021374516e-06 -6.595661572e-06 -6.024988942e-06)
5(-1.070867228e-06 -3.438462959e-06 -6.602058073e-06 -6.6589994e-06 -5.919941343e-06)
5(-1.617361557e-06 -5.293814977e-06 -8.879607242e-06 -9.177912636e-06 -9.566879185e-06)
5(-4.891868449e-06 -7.415178255e-06 -1.118925246e-05 -9.678925221e-06 -6.917833585e-06)
5(-9.527019566e-06 -1.026654445e-05 -1.307371452e-05 -1.258153944e-05 -1.002171918e-05)
5(-1.52380206e-05 -1.472356152e-05 -1.362578256e-05 -1.026393244e-05 -7.485402185e-06)
5(-1.838186439e-05 -1.706189136e-05 -1.384088521e-05 -8.253183454e-06 -4.566514808e-06)
5(-2.343550473e-05 -1.910536157e-05 -1.284154558e-05 -5.453936367e-06 8.498416718e-15)
5(-2.36270941e-05 -1.651175379e-05 -1.058248079e-05 -5.811173128e-06 1.462018541e-07)
5(-2.365054058e-05 -1.572778485e-05 -6.959254518e-06 -3.050254207e-06 1.297150532e-08)
5(-1.757858896e-05 -1.237566322e-05 -4.470640258e-06 -8.842714944e-07 5.163040616e-14)
5(-1.270060777e-05 -8.166548292e-06 -2.04437686e-06 -2.421436297e-07 -2.802234788e-08)
5(-1.05907976e-05 -5.580352673e-06 -3.368703839e-07 -5.191643163e-08 1.578003627e-13)
5(-4.132619507e-06 -2.199341007e-06 -1.387198446e-07 -5.68845617e-09 2.696340045e-13)
5(-1.640122442e-06 -8.226884028e-07 -2.627059503e-09 3.468322719e-13 4.491486724e-13)
5(-5.857084491e-07 -2.928541413e-07 2.849935788e-13 5.684815028e-13 7.334307337e-13)
5(-1.113180707e-07 -5.565889886e-08 4.616160271e-13 9.135057832e-13 1.176798553e-12)
5(-9.647335764e-10 -4.821470004e-10 7.354770556e-13 1.443397998e-12 1.855417533e-12)
5(3.328959642e-13 5.179724209e-13 1.152363183e-12 2.253407829e-12 2.90513817e-12)
5(5.196803021e-13 8.118852906e-13 1.783439456e-12 3.452931127e-12 4.443073622e-12)
5(6.342720567e-13 1.172391762e-12 2.702505066e-12 5.198146035e-12 6.701793405e-12)
5(5.652826744e-13 1.589059543e-12 4.03085015e-12 7.579838464e-12 9.71081304e-12)
5(1.383566373e-12 2.421847045e-12 5.627757206e-12 1.076918528e-11 1.374298387e-11)
5(2.855696961e-12 4.405695956e-12 6.092597968e-12 1.434886336e-11 2.246822573e-11)
5(5.175959995e-12 8.143751274e-12 1.810597402e-11 2.914558511e-11 3.319076473e-11)
)


60
(
5(-4.636339185e-07 -8.76792245e-08 -1.534928514e-08 -1.676077583e-07 -1.624147676e-08)
5(-1.949699958e-07 -9.390999439e-08 -7.458596465e-08 -1.264815535e-07 -9.664117082e-08)
5(-7.462251234e-08 -9.144833426e-08 -1.028799914e-07 -1.153325699e-07 -1.33179313e-07)
5(-4.49444237e-08 -9.029082315e-08 -1.147423528e-07 -1.191612797e-07 -1.444750764e-07)
5(-7.426339623e-08 -9.779538018e-08 -1.20729742e-07 -1.310056648e-07 -1.418792098e-07)
5(-1.172496628e-07 -1.121629427e-07 -1.257891844e-07 -1.408066411e-07 -1.371111359e-07)
5(-1.426856741e-07 -1.253742784e-07 -1.329473491e-07 -1.479081466e-07 -1.379844778e-07)
5(-1.465977981e-07 -1.3487874e-07 -1.416719152e-07 -1.530218136e-07 -1.458594786e-07)
5(-1.429678192e-07 -1.429888297e-07 -1.511280788e-07 -1.57761808e-07 -1.562772986e-07)
5(-1.395568653e-07 -1.482827951e-07 -1.59765025e-07 -1.634125807e-07 -1.643038364e-07)
5(-1.517846576e-07 -1.585732318e-07 -1.678694565e-07 -1.713576352e-07 -1.723381636e-07)
5(-1.557689593e-07 -1.648118361e-07 -1.768591398e-07 -1.80512143e-07 -1.811607191e-07)
5(-1.634109799e-07 -1.728573365e-07 -1.85917264e-07 -1.904339394e-07 -1.913370439e-07)
5(-1.683151872e-07 -1.806862751e-07 -1.966253122e-07 -2.019150769e-07 -2.036368924e-07)
5(-1.707684696e-07 -1.883826279e-07 -2.08244767e-07 -2.144680654e-07 -2.184433827e-07)
5(-1.707352205e-07 -1.949003932e-07 -2.200364266e-07 -2.278181127e-07 -2.346289382e-07)
5(-1.761705191e-07 -2.045200427e-07 -2.326526684e-07 -2.427109076e-07 -2.529860446e-07)
5(-1.756803019e-07 -2.117320531e-07 -2.46332282e-07 -2.611410808e-07 -2.774014019e-07)
5(-1.69250091e-07 -2.169915659e-07 -2.614996406e-07 -2.822872025e-07 -3.063081646e-07)
5(-1.594019557e-07 -2.208031918e-07 -2.76539745e-07 -3.065810106e-07 -3.422869592e-07)
5(-1.424019319e-07 -2.21129777e-07 -2.917839584e-07 -3.335051517e-07 -3.833000086e-07)
5(-1.170371431e-07 -2.157397022e-07 -3.061364337e-07 -3.663319351e-07 -4.348332641e-07)
5(-6.58980484e-08 -1.983701811e-07 -3.185907966e-07 -4.00812117e-07 -4.952849546e-07)
5(2.055388952e-08 -1.598182871e-07 -3.232203121e-07 -4.411125007e-07 -5.759748408e-07)
5(1.321842058e-07 -1.038960399e-07 -3.165880957e-07 -4.803723781e-07 -6.675448506e-07)
5(3.194682094e-07 -4.385536813e-09 -2.911817165e-07 -5.190357861e-07 -7.839474223e-07)
5(5.845944285e-07 1.507560322e-07 -2.368387278e-07 -5.644601713e-07 -9.383252513e-07)
5(9.751604819e-07 3.866119594e-07 -1.498917285e-07 -6.282881342e-07 -1.158729374e-06)
5(1.516161895e-06 7.24505336e-07 -2.190363753e-08 -7.056966929e-07 -1.434737333e-06)
5(2.275231325e-06 1.204306681e-06 1.477973318e-07 -8.332926781e-07 -1.828797982e-06)
5(3.251810741e-06 1.835492422e-06 3.498185377e-07 -1.067269683e-06 -2.415002339e-06)
5(4.522530313e-06 2.618774139e-06 5.261297351e-07 -1.45969589e-06 -3.256633284e-06)
5(6.019961756e-06 3.549865504e-06 6.343646521e-07 -2.128511579e-06 -4.445983209e-06)
5(7.723116849e-06 4.532818287e-06 5.19758039e-07 -3.300351435e-06 -6.297699222e-06)
5(9.497946689e-06 5.436491468e-06 -8.107036328e-08 -5.177494393e-06 -8.817811813e-06)
5(1.091883947e-05 5.944425364e-06 -1.37271574e-06 -8.017407927e-06 -1.231937311e-05)
5(1.165223059e-05 5.693699472e-06 -3.744403519e-06 -1.201141844e-05 -1.67988615e-05)
5(1.118671419e-05 4.19897839e-06 -7.539433864e-06 -1.727722282e-05 -2.226433532e-05)
5(8.567245951e-06 8.875515501e-07 -1.28941554e-05 -2.393626639e-05 -2.887636484e-05)
5(3.712284989e-06 -4.628479322e-06 -2.01006181e-05 -3.189355353e-05 -3.655511449e-05)
5(-4.388285255e-06 -1.264087834e-05 -2.847670292e-05 -4.028378167e-05 -4.450762893e-05)
5(-1.45196918e-05 -2.228694422e-05 -3.764369107e-05 -4.786447388e-05 -5.049576227e-05)
5(-2.719546869e-05 -3.30849502e-05 -4.599238247e-05 -5.251932087e-05 -5.202830849e-05)
5(-4.03681985e-05 -4.303449963e-05 -5.160457893e-05 -5.273310415e-05 -4.795785121e-05)
5(-5.053507447e-05 -5.015198178e-05 -5.312665171e-05 -4.787031555e-05 -3.925621678e-05)
5(-5.603928975e-05 -5.27451262e-05 -4.932083562e-05 -3.875126343e-05 -2.831181826e-05)
5(-5.544766539e-05 -5.003471061e-05 -4.076900249e-05 -2.738023504e-05 -1.784422091e-05)
5(-4.861061055e-05 -4.198970273e-05 -2.95136144e-05 -1.661772202e-05 -9.57701016e-06)
5(-3.771614446e-05 -3.086216865e-05 -1.83566445e-05 -8.485616081e-06 -4.266136013e-06)
5(-2.489224093e-05 -1.91115565e-05 -9.517455988e-06 -3.617207949e-06 -1.530375996e-06)
5(-1.381485299e-05 -9.901127117e-06 -3.995801301e-06 -1.234233945e-06 -4.642665265e-07)
5(-5.848045811e-06 -3.965166558e-06 -1.325133471e-06 -3.432459992e-07 -1.185123604e-07)
5(-1.995343864e-06 -1.274657602e-06 -3.431164025e-07 -7.904951741e-08 -2.583757067e-08)
5(-4.503996376e-07 -2.776832102e-07 -6.390651038e-08 -1.375480377e-08 -4.663369692e-09)
5(-6.700489188e-08 -4.144292967e-08 -9.518150529e-09 -1.917186515e-09 -6.790394249e-10)
5(-5.82711992e-09 -3.572496671e-09 -8.229648091e-10 -1.933885168e-10 -5.872083748e-11)
5(-2.978533379e-10 -1.957730839e-10 -4.978610889e-11 5.117460486e-12 1.611430892e-11)
5(4.205792952e-13 4.357818466e-12 1.258326341e-11 2.271948164e-11 2.85674941e-11)
5(1.004666712e-11 1.321197199e-11 1.939721165e-11 3.127108768e-11 4.012502891e-11)
5(1.312010979e-11 1.499294586e-09 2.596414024e-11 -1.440298777e-09 5.294322793e-11)
)


60
(
5(-7.225826881e-07 -1.898491184e-07 -7.271100017e-08 -2.99608679e-07 -1.109109065e-07)
5(-4.054810454e-07 -2.456910089e-07 -1.922074458e-07 -2.572328578e-07 -2.159517966e-07)
5(-2.496133497e-07 -2.59429849e-07 -2.539205167e-07 -2.520650232e-07 -2.655353613e-07)
5(-2.265120082e-07 -2.715729572e-07 -2.831195605e-07 -2.671999197e-07 -2.847946247e-07)
5(-2.821576912e-07 -2.962110044e-07 -3.025279753e-07 -2.930589272e-07 -2.913262212e-07)
5(-3.691266152e-07 -3.363760943e-07 -3.22199669e-07 -3.162658909e-07 -2.917580173e-07)
5(-4.245737523e-07 -3.719085554e-07 -3.441093784e-07 -3.338583298e-07 -2.987412611e-07)
5(-4.457993327e-07 -3.987921854e-07 -3.661465518e-07 -3.472651338e-07 -3.14022202e-07)
5(-4.491703057e-07 -4.191917457e-07 -3.881818741e-07 -3.590786887e-07 -3.310068148e-07)
5(-4.661273527e-07 -4.428118265e-07 -4.099187007e-07 -3.752408104e-07 -3.501405197e-07)
5(-4.93040147e-07 -4.698959913e-07 -4.326871149e-07 -3.927152634e-07 -3.668081326e-07)
5(-5.229641534e-07 -4.970784984e-07 -4.56209153e-07 -4.130677361e-07 -3.849100096e-07)
5(-5.467649536e-07 -5.196516715e-07 -4.794304151e-07 -4.358666846e-07 -4.054109285e-07)
5(-5.733448983e-07 -5.458233141e-07 -5.04825688e-07 -4.611779003e-07 -4.310061546e-07)
5(-5.948206461e-07 -5.720132024e-07 -5.337135528e-07 -4.88231565e-07 -4.582417831e-07)
5(-6.281141935e-07 -6.05265105e-07 -5.659777916e-07 -5.202418451e-07 -4.909441234e-07)
5(-6.409403826e-07 -6.30539727e-07 -6.028310644e-07 -5.562860807e-07 -5.270491039e-07)
5(-6.633660306e-07 -6.618027367e-07 -6.430173449e-07 -5.961694406e-07 -5.665436342e-07)
5(-6.929083467e-07 -6.978783322e-07 -6.839888215e-07 -6.404272196e-07 -6.157251138e-07)
5(-7.167239639e-07 -7.320780774e-07 -7.292366127e-07 -6.926492708e-07 -6.742575071e-07)
5(-7.588720901e-07 -7.747905664e-07 -7.739832458e-07 -7.504517206e-07 -7.436459924e-07)
5(-7.677591796e-07 -7.994953144e-07 -8.174710103e-07 -8.063873468e-07 -8.090641222e-07)
5(-7.712446263e-07 -8.255718641e-07 -8.613494013e-07 -8.640806193e-07 -8.85361538e-07)
5(-7.518786825e-07 -8.346799357e-07 -8.923527903e-07 -9.187016351e-07 -9.701788787e-07)
5(-6.968581549e-07 -8.151074083e-07 -9.017363739e-07 -9.658010606e-07 -1.061486035e-06)
5(-5.550303651e-07 -7.328058171e-07 -8.702440733e-07 -9.987951383e-07 -1.167683399e-06)
5(-3.219887266e-07 -5.790778737e-07 -7.968357259e-07 -1.01083586e-06 -1.264167288e-06)
5(1.352379176e-08 -3.39786007e-07 -6.386835669e-07 -9.874366765e-07 -1.390602025e-06)
5(6.105960772e-07 8.553773659e-08 -3.92632402e-07 -9.280229262e-07 -1.510301652e-06)
5(1.409753046e-06 6.948399343e-07 -1.718864542e-08 -8.323226845e-07 -1.650341255e-06)
5(2.572693758e-06 1.568160294e-06 4.938062667e-07 -7.686142159e-07 -1.961214135e-06)
5(4.145098917e-06 2.730888653e-06 1.121915609e-06 -7.257446607e-07 -2.37864215e-06)
5(6.116979051e-06 4.21068812e-06 1.85535468e-06 -8.889476433e-07 -3.184207458e-06)
5(8.473392411e-06 5.966594852e-06 2.514496802e-06 -1.357435441e-06 -4.284067192e-06)
5(1.121404585e-05 7.911021665e-06 2.955102604e-06 -2.461908511e-06 -6.226024753e-06)
5(1.40239807e-05 9.756068291e-06 2.889855485e-06 -4.402296872e-06 -9.096148835e-06)
5(1.629348791e-05 1.106130345e-05 1.932819e-06 -7.561075713e-06 -1.315867044e-05)
5(1.810749022e-05 1.152789619e-05 -4.428349029e-07 -1.228391658e-05 -1.87338612e-05)
5(1.806740458e-05 1.009229499e-05 -4.760045977e-06 -1.892384839e-05 -2.621041943e-05)
5(1.567165557e-05 6.470908186e-06 -1.126370642e-05 -2.770206977e-05 -3.56065659e-05)
5(1.018629673e-05 3.8520206e-08 -2.00775466e-05 -3.827549738e-05 -4.650515788e-05)
5(9.806169873e-07 -9.653697211e-06 -3.095642699e-05 -4.928750099e-05 -5.695015942e-05)
5(-1.170278227e-05 -2.185878502e-05 -4.270604101e-05 -5.88254469e-05 -6.425359955e-05)
5(-2.632012954e-05 -3.501049637e-05 -5.35764541e-05 -6.492803601e-05 -6.640402703e-05)
5(-4.17185084e-05 -4.766374868e-05 -6.111487877e-05 -6.54796227e-05 -6.233847683e-05)
5(-5.452114645e-05 -5.710093444e-05 -6.324035247e-05 -5.998153271e-05 -5.31630829e-05)
5(-6.153174735e-05 -6.106783936e-05 -5.91938327e-05 -4.905784114e-05 -4.033194824e-05)
5(-6.207083576e-05 -5.826937213e-05 -4.919460842e-05 -3.546857048e-05 -2.701583262e-05)
5(-5.536353703e-05 -4.91357997e-05 -3.580154732e-05 -2.216796104e-05 -1.564088982e-05)
5(-4.294468392e-05 -3.58537292e-05 -2.242677563e-05 -1.179659839e-05 -7.502419986e-06)
5(-2.853235305e-05 -2.224650221e-05 -1.166365765e-05 -5.19608498e-06 -3.025506016e-06)
5(-1.530444437e-05 -1.119679863e-05 -4.887138178e-06 -1.813525965e-06 -9.419284651e-07)
5(-6.318873099e-06 -4.368686258e-06 -1.586721157e-06 -4.960631784e-07 -2.371834584e-07)
5(-1.840660388e-06 -1.222706376e-06 -3.78481913e-07 -9.817843868e-08 -4.41454148e-08)
5(-3.766520984e-07 -2.397115106e-07 -6.259416807e-08 -1.457273314e-08 -6.728053051e-09)
5(-4.240624193e-08 -2.69937769e-08 -6.814202114e-09 -1.389632325e-09 -7.321722834e-10)
5(-2.936337305e-09 -1.737614238e-09 -3.298512609e-10 -6.796090437e-11 -1.511045815e-11)
5(-7.228277567e-11 -1.44708633e-11 2.151593032e-11 3.285269034e-11 6.601456913e-11)
5(-8.400715761e-09 2.436562397e-11 1.900941975e-09 4.630057152e-11 4.740164203e-09)
5(2.423590411e-11 3.294534402e-09 4.043664259e-11 -3.204017398e-09 7.592481848e-11)
)


60
(
5(-1.052589358e-06 -3.318767494e-07 -1.577045249e-07 -4.774098927e-07 -2.505748765e-07)
5(-7.030915372e-07 -4.737962886e-07 -3.756174563e-07 -4.501910642e-07 -3.936482558e-07)
5(-5.334992231e-07 -5.317138188e-07 -4.928402192e-07 -4.622788291e-07 -4.688056343e-07)
5(-5.200722017e-07 -5.646707368e-07 -5.501949731e-07 -4.986800874e-07 -5.062395004e-07)
5(-6.267639448e-07 -6.199689372e-07 -5.918542762e-07 -5.461620473e-07 -5.217894719e-07)
5(-7.725575349e-07 -6.98268163e-07 -6.353882427e-07 -5.876046021e-07 -5.284115099e-07)
5(-8.742769458e-07 -7.661901663e-07 -6.76094349e-07 -6.204276814e-07 -5.467700518e-07)
5(-9.170926314e-07 -8.174297729e-07 -7.190464442e-07 -6.486334255e-07 -5.769408769e-07)
5(-9.495774491e-07 -8.681269732e-07 -7.636618976e-07 -6.743983963e-07 -6.081494946e-07)
5(-9.948391671e-07 -9.186589469e-07 -8.063878731e-07 -7.056968825e-07 -6.410967456e-07)
5(-1.042711191e-06 -9.675021969e-07 -8.500155477e-07 -7.407564683e-07 -6.737750441e-07)
5(-1.106302323e-06 -1.020814713e-06 -8.947452834e-07 -7.834574887e-07 -7.127515138e-07)
5(-1.169378887e-06 -1.075349664e-06 -9.448723006e-07 -8.310096407e-07 -7.535951208e-07)
5(-1.21481958e-06 -1.125894855e-06 -1.000216674e-06 -8.805072033e-07 -7.975511899e-07)
5(-1.258674723e-06 -1.179988702e-06 -1.060733176e-06 -9.396074542e-07 -8.590512368e-07)
5(-1.32267947e-06 -1.243694696e-06 -1.124227133e-06 -1.003058764e-06 -9.223731858e-07)
5(-1.401451135e-06 -1.318005739e-06 -1.199238711e-06 -1.078737961e-06 -9.935588427e-07)
5(-1.450673288e-06 -1.381094e-06 -1.283111416e-06 -1.167735587e-06 -1.080763055e-06)
5(-1.55877616e-06 -1.477449403e-06 -1.370697182e-06 -1.259001932e-06 -1.172732146e-06)
5(-1.625523018e-06 -1.557492968e-06 -1.471684185e-06 -1.368716699e-06 -1.283527947e-06)
5(-1.713674088e-06 -1.662214127e-06 -1.589483497e-06 -1.480951141e-06 -1.393689453e-06)
5(-1.876719907e-06 -1.794939887e-06 -1.697361997e-06 -1.587570433e-06 -1.493576741e-06)
5(-1.995553799e-06 -1.907364692e-06 -1.817831879e-06 -1.714614882e-06 -1.612741591e-06)
5(-2.010931224e-06 -1.962983628e-06 -1.932408139e-06 -1.833892242e-06 -1.718004239e-06)
5(-2.073341046e-06 -2.048017492e-06 -2.019043385e-06 -1.934721046e-06 -1.85404926e-06)
5(-2.094665145e-06 -2.077073574e-06 -2.049385674e-06 -1.99566337e-06 -1.952037394e-06)
5(-2.028056042e-06 -2.018908174e-06 -2.005119717e-06 -2.012121413e-06 -2.023763698e-06)
5(-1.811820644e-06 -1.840074397e-06 -1.863676445e-06 -1.971479484e-06 -2.08393423e-06)
5(-1.376397825e-06 -1.48065971e-06 -1.582631031e-06 -1.83937401e-06 -2.098407552e-06)
5(-6.464644801e-07 -8.644105659e-07 -1.123078857e-06 -1.621742631e-06 -2.0796842e-06)
5(4.535398094e-07 8.190007783e-08 -4.265341481e-07 -1.291286113e-06 -2.019243583e-06)
5(2.02986389e-06 1.420996886e-06 5.142773751e-07 -8.971828064e-07 -2.01079048e-06)
5(4.151327517e-06 3.216685331e-06 1.736138277e-06 -4.803143587e-07 -2.150862126e-06)
5(6.912489379e-06 5.490925257e-06 3.078433658e-06 -2.405481344e-07 -2.56860245e-06)
5(1.027022945e-05 8.201198176e-06 4.476031239e-06 -3.091574144e-07 -3.4382104e-06)
5(1.410760678e-05 1.116614301e-05 5.681011479e-06 -1.11867048e-06 -5.374684673e-06)
5(1.793798867e-05 1.407902551e-05 6.300756472e-06 -2.952272714e-06 -8.285996012e-06)
5(2.13929888e-05 1.629031127e-05 5.741987476e-06 -6.262536563e-06 -1.282141434e-05)
5(2.37741096e-05 1.729136304e-05 3.464334603e-06 -1.16781844e-05 -1.947642154e-05)
5(2.422921351e-05 1.621899311e-05 -1.195710166e-06 -1.971770962e-05 -2.883522619e-05)
5(2.172953354e-05 1.200086696e-05 -8.772956388e-06 -3.028931887e-05 -4.076052458e-05)
5(1.563987794e-05 4.338916447e-06 -1.931399771e-05 -4.245707559e-05 -5.32482008e-05)
5(4.828769532e-06 -7.225050782e-06 -3.225882418e-05 -5.50557834e-05 -6.487278953e-05)
5(-9.953876196e-06 -2.17987467e-05 -4.622551923e-05 -6.552407012e-05 -7.224071898e-05)
5(-2.782559476e-05 -3.816312755e-05 -5.88053309e-05 -7.16266618e-05 -7.414332214e-05)
5(-4.608239003e-05 -5.363621712e-05 -6.731165762e-05 -7.171497048e-05 -6.999666991e-05)
5(-6.147460324e-05 -6.531712292e-05 -6.945221823e-05 -6.490555225e-05 -6.006631063e-05)
5(-7.130601434e-05 -7.044445639e-05 -6.458875353e-05 -5.287824515e-05 -4.616188168e-05)
5(-7.2994804e-05 -6.748993164e-05 -5.334577086e-05 -3.781801254e-05 -3.092954265e-05)
5(-6.607166506e-05 -5.722331738e-05 -3.859276036e-05 -2.324856658e-05 -1.768658213e-05)
5(-5.244068157e-05 -4.206659007e-05 -2.368263764e-05 -1.214995722e-05 -8.627137743e-06)
5(-3.534757279e-05 -2.606030425e-05 -1.193520359e-05 -5.214772702e-06 -3.332173921e-06)
5(-1.87522565e-05 -1.295733296e-05 -4.807091174e-06 -1.734074908e-06 -1.016376898e-06)
5(-7.592509952e-06 -4.944138999e-06 -1.44914082e-06 -4.179228319e-07 -2.333320702e-07)
5(-2.29730162e-06 -1.401122215e-06 -3.021028202e-07 -6.824223693e-08 -3.722164311e-08)
5(-3.940855748e-07 -2.293424231e-07 -3.787962132e-08 -7.505433491e-09 -3.850895833e-09)
5(-2.575924909e-08 -1.578342597e-08 -3.166033898e-09 -3.813674924e-10 -2.382700408e-10)
5(-1.724350596e-09 -1.030165621e-09 -7.81371724e-11 3.713811857e-11 -1.054300649e-10)
5(4.572035944e-08 -1.889316499e-10 -3.623218276e-09 2.77398768e-10 -3.829698865e-08)
5(1.897831405e-08 -6.700631583e-11 -9.336069458e-09 1.935541331e-10 -5.307950352e-11)
)


60
(
5(-1.442505135e-06 -5.164094205e-07 -2.747785412e-07 -6.992541007e-07 -4.392648255e-07)
5(-1.093193509e-06 -7.85137585e-07 -6.260240087e-07 -7.041053939e-07 -6.332444316e-07)
5(-9.297676613e-07 -9.092173078e-07 -8.193007436e-07 -7.467594752e-07 -7.435844176e-07)
5(-9.426242978e-07 -9.765177414e-07 -9.162854774e-07 -8.139163623e-07 -8.056729549e-07)
5(-1.10905073e-06 -1.070888719e-06 -9.876354167e-07 -8.891371116e-07 -8.357300976e-07)
5(-1.325789679e-06 -1.196939773e-06 -1.060880459e-06 -9.533553372e-07 -8.530396234e-07)
5(-1.486070478e-06 -1.308465987e-06 -1.130439861e-06 -1.006878591e-06 -8.837389555e-07)
5(-1.566056705e-06 -1.395269552e-06 -1.202293908e-06 -1.056739407e-06 -9.333733975e-07)
5(-1.626313673e-06 -1.47717779e-06 -1.27312213e-06 -1.102375972e-06 -9.865495899e-07)
5(-1.701957494e-06 -1.561555632e-06 -1.345658082e-06 -1.156317793e-06 -1.042473194e-06)
5(-1.786116792e-06 -1.643079233e-06 -1.417841626e-06 -1.216277465e-06 -1.096913354e-06)
5(-1.888053264e-06 -1.731804163e-06 -1.496589075e-06 -1.289089806e-06 -1.160556525e-06)
5(-1.975778504e-06 -1.817651474e-06 -1.581393317e-06 -1.36763862e-06 -1.232015051e-06)
5(-2.098967227e-06 -1.921034526e-06 -1.672307867e-06 -1.461762026e-06 -1.322010142e-06)
5(-2.169054159e-06 -2.005512564e-06 -1.774086332e-06 -1.562051406e-06 -1.417901117e-06)
5(-2.265179917e-06 -2.101807799e-06 -1.884516044e-06 -1.679988452e-06 -1.529380498e-06)
5(-2.395368202e-06 -2.229421896e-06 -2.01261889e-06 -1.809933284e-06 -1.658104379e-06)
5(-2.521657696e-06 -2.362455556e-06 -2.15565953e-06 -1.959390447e-06 -1.810715251e-06)
5(-2.676300062e-06 -2.512053654e-06 -2.320137626e-06 -2.127693621e-06 -1.962919237e-06)
5(-2.845506036e-06 -2.684603625e-06 -2.506966525e-06 -2.311661724e-06 -2.133091612e-06)
5(-3.045733534e-06 -2.879629003e-06 -2.706430173e-06 -2.512760167e-06 -2.326184462e-06)
5(-3.25417182e-06 -3.080059525e-06 -2.922434003e-06 -2.717466236e-06 -2.496011695e-06)
5(-3.493671714e-06 -3.308036047e-06 -3.149481338e-06 -2.942681249e-06 -2.708800201e-06)
5(-3.746987003e-06 -3.550926941e-06 -3.380622788e-06 -3.141156484e-06 -2.875934271e-06)
5(-3.973750785e-06 -3.774269612e-06 -3.593548093e-06 -3.345234173e-06 -3.0781606e-06)
5(-4.127711211e-06 -3.935889635e-06 -3.765483757e-06 -3.499181206e-06 -3.211462957e-06)
5(-4.299013914e-06 -4.02421921e-06 -3.809317236e-06 -3.599254491e-06 -3.329299017e-06)
5(-4.345998494e-06 -4.028943519e-06 -3.766248595e-06 -3.60091827e-06 -3.381227893e-06)
5(-4.175313055e-06 -3.843730122e-06 -3.554173922e-06 -3.458843367e-06 -3.32148608e-06)
5(-3.697254553e-06 -3.368035845e-06 -3.111726876e-06 -3.166228697e-06 -3.147820779e-06)
5(-2.82511093e-06 -2.518303618e-06 -2.378076754e-06 -2.691717366e-06 -2.838777531e-06)
5(-1.4562391e-06 -1.212588898e-06 -1.239390371e-06 -1.954581404e-06 -2.399320762e-06)
5(5.965129799e-07 6.847084577e-07 2.729506282e-07 -1.151282168e-06 -2.075561656e-06)
5(3.443653792e-06 3.241982314e-06 2.130374159e-06 -2.561458379e-07 -1.732729157e-06)
5(6.971837495e-06 6.380443869e-06 4.304401373e-06 5.741729893e-07 -1.671406525e-06)
5(1.118893369e-05 1.006793482e-05 6.56508271e-06 9.990150025e-07 -2.185199473e-06)
5(1.597155544e-05 1.41645595e-05 8.617690495e-06 6.669465676e-07 -3.54392429e-06)
5(2.102578437e-05 1.819152363e-05 9.984846368e-06 -9.048487597e-07 -6.42212737e-06)
5(2.561421906e-05 2.140416164e-05 9.873132352e-06 -4.421505363e-06 -1.139517121e-05)
5(2.88098907e-05 2.290941007e-05 7.624987295e-06 -1.056081407e-05 -1.936267328e-05)
5(2.967814832e-05 2.180160695e-05 2.454169344e-06 -1.986947544e-05 -3.0722224e-05)
5(2.694090122e-05 1.705489149e-05 -6.270426691e-06 -3.179129909e-05 -4.387286305e-05)
5(1.967000332e-05 7.796816e-06 -1.873049118e-05 -4.552773041e-05 -5.767084977e-05)
5(7.330109001e-06 -5.862817311e-06 -3.398067667e-05 -5.914106184e-05 -6.937651397e-05)
5(-9.998764656e-06 -2.365832071e-05 -5.023146682e-05 -7.00260795e-05 -7.690710214e-05)
5(-3.058078611e-05 -4.312931956e-05 -6.479160582e-05 -7.63037879e-05 -7.870221717e-05)
5(-5.263209298e-05 -6.222652491e-05 -7.452210098e-05 -7.567412087e-05 -7.412499662e-05)
5(-7.20971369e-05 -7.721358111e-05 -7.738434946e-05 -6.788117031e-05 -6.332366701e-05)
5(-8.521376516e-05 -8.42281994e-05 -7.214912148e-05 -5.462566303e-05 -4.819571673e-05)
5(-8.937606828e-05 -8.176092058e-05 -5.964394276e-05 -3.877621778e-05 -3.241032291e-05)
5(-8.330031651e-05 -7.029707945e-05 -4.307026014e-05 -2.361379477e-05 -1.838091165e-05)
5(-6.846637096e-05 -5.286981679e-05 -2.625752353e-05 -1.190645249e-05 -8.571120527e-06)
5(-4.728588524e-05 -3.387261035e-05 -1.351706359e-05 -4.888661113e-06 -3.202530493e-06)
5(-2.653635144e-05 -1.773000817e-05 -5.512614206e-06 -1.481980002e-06 -8.623965007e-07)
5(-1.132243684e-05 -7.017251443e-06 -1.599230455e-06 -3.243250531e-07 -1.622552412e-07)
5(-3.967293902e-06 -2.266175754e-06 -3.161173458e-07 -4.455468839e-08 -2.19322903e-08)
5(-7.957898133e-07 -4.311512598e-07 -3.528069621e-08 -2.837589664e-09 -1.626493252e-09)
5(-7.62534041e-08 -4.027617845e-08 -2.168801908e-09 -5.424169543e-11 -6.983238069e-11)
5(2.460551433e-08 -2.595472114e-09 -6.66766379e-09 8.886724736e-11 -1.628339649e-08)
5(-6.37754157e-09 1.241063307e-08 6.407542944e-11 -1.547388177e-08 1.228933152e-10)
)


60
(
5(-1.88412243e-06 -7.403948299e-07 -4.208264668e-07 -9.63129798e-07 -6.812738919e-07)
5(-1.570503377e-06 -1.177651362e-06 -9.424403771e-07 -1.017485051e-06 -9.348886951e-07)
5(-1.428088953e-06 -1.387324834e-06 -1.232910789e-06 -1.104505139e-06 -1.089749415e-06)
5(-1.486775249e-06 -1.50066338e-06 -1.377329556e-06 -1.209128754e-06 -1.178149909e-06)
5(-1.736338283e-06 -1.649234801e-06 -1.4845974e-06 -1.316613996e-06 -1.226164512e-06)
5(-2.038208196e-06 -1.836479629e-06 -1.595893938e-06 -1.408939777e-06 -1.260842738e-06)
5(-2.255606827e-06 -1.99288522e-06 -1.700032109e-06 -1.48867318e-06 -1.307445756e-06)
5(-2.385753685e-06 -2.124820307e-06 -1.805360179e-06 -1.56511604e-06 -1.383398652e-06)
5(-2.483455181e-06 -2.247582713e-06 -1.9116922e-06 -1.637852177e-06 -1.464030198e-06)
5(-2.602065456e-06 -2.371578482e-06 -2.016666005e-06 -1.720848979e-06 -1.549457455e-06)
5(-2.735187657e-06 -2.496919312e-06 -2.126873082e-06 -1.814576055e-06 -1.634056912e-06)
5(-2.867495379e-06 -2.618037788e-06 -2.241968993e-06 -1.925464487e-06 -1.735571185e-06)
5(-3.019017819e-06 -2.752655202e-06 -2.36850826e-06 -2.049180685e-06 -1.847637434e-06)
5(-3.146615433e-06 -2.881353742e-06 -2.50604159e-06 -2.192486299e-06 -1.988981471e-06)
5(-3.306334788e-06 -3.034146733e-06 -2.661477325e-06 -2.349255362e-06 -2.13751475e-06)
5(-3.460101607e-06 -3.191052433e-06 -2.837782806e-06 -2.535531305e-06 -2.317500257e-06)
5(-3.638715211e-06 -3.3682059e-06 -3.032844226e-06 -2.735551454e-06 -2.503111044e-06)
5(-3.852166696e-06 -3.578341778e-06 -3.260900959e-06 -2.97499275e-06 -2.732700441e-06)
5(-4.065167128e-06 -3.798733665e-06 -3.509126553e-06 -3.229197867e-06 -2.972442829e-06)
5(-4.367968717e-06 -4.076384865e-06 -3.790604857e-06 -3.522930657e-06 -3.249452613e-06)
5(-4.688480197e-06 -4.385242353e-06 -4.109515066e-06 -3.840325788e-06 -3.543625955e-06)
5(-5.003978714e-06 -4.704412603e-06 -4.449138026e-06 -4.159480735e-06 -3.825531909e-06)
5(-5.448222474e-06 -5.093263547e-06 -4.820202127e-06 -4.516251529e-06 -4.130403424e-06)
5(-5.895488054e-06 -5.497539062e-06 -5.199067347e-06 -4.862549037e-06 -4.42655345e-06)
5(-6.322057395e-06 -5.883113448e-06 -5.553034151e-06 -5.178042739e-06 -4.694186677e-06)
5(-6.799526885e-06 -6.262372065e-06 -5.86994382e-06 -5.485086236e-06 -4.955502078e-06)
5(-7.238916635e-06 -6.608999543e-06 -6.124203874e-06 -5.706862388e-06 -5.144399477e-06)
5(-7.526579801e-06 -6.825776217e-06 -6.253752487e-06 -5.801689003e-06 -5.220845664e-06)
5(-7.601005124e-06 -6.830468947e-06 -6.185714772e-06 -5.744203249e-06 -5.176909725e-06)
5(-7.493211954e-06 -6.58782466e-06 -5.858236179e-06 -5.497482964e-06 -4.960930936e-06)
5(-6.975881203e-06 -5.97754006e-06 -5.19752412e-06 -4.94664768e-06 -4.477446036e-06)
5(-5.89487681e-06 -4.84737423e-06 -4.126335935e-06 -4.115675495e-06 -3.778550768e-06)
5(-4.124445513e-06 -3.051404412e-06 -2.519715712e-06 -2.990125212e-06 -2.91918231e-06)
5(-1.487513783e-06 -4.783791983e-07 -3.401901591e-07 -1.456911174e-06 -1.702686643e-06)
5(1.888501488e-06 2.830018489e-06 2.362185244e-06 1.010430924e-07 -7.507488141e-07)
5(6.37672776e-06 7.009769442e-06 5.469579621e-06 1.624222775e-06 -4.790256859e-08)