/*--------------------------------*- C++ -*----------------------------------*\
| =========                 |                                                 |
| \\      /  F ield         | OpenFOAM: The Open Source CFD Toolbox           |
|  \\    /   O peration     | Version:  2.3.1                                 |
|   \\  /    A nd           | Web:      www.OpenFOAM.org                      |
|    \\/     M anipulation  |                                                 |
\*---------------------------------------------------------------------------*/
FoamFile
{
    version     2.0;
    format      ascii;
    class       dictionary;
    location    "constant";
    object      GRPSI64;
}
// * * * * * * * * * * * * * * * * * * * * * * * * * * * * * * * * * * * * * //

GRPSI64_table
60
(

60
(
5(-0.005645305826 -0.0003270095014 0.0005645885684 -0.001113498141 0.001635113404)
5(-0.005358047051 -0.0006142942557 0.0011128447 -0.0009206619546 6.244523023e-05)
5(0.003283267893 0.001657047974 -0.0005739942532 -0.001657047974 -0.002135279387)
5(0.003699570681 0.001788862943 -0.001413557408 -0.0006395153577 0.001426239306)
5(0.003361662767 0.001803593087 -0.000642035348 -0.001009678652 -0.0004897632003)
5(5.982129623e-05 -0.0005710884696 -0.0004137060298 -0.0002674175077 -0.0009094211912)
5(-0.001671683207 -0.001129052241 -0.0005724647452 2.346136323e-05 0.0006054309421)
5(-1.379572859e-05 0.000124831365 -0.0004363775495 -0.001061216928 -0.0009862202973)
5(-0.0004943795762 -0.0003754042313 -0.0004691815266 -0.0006435337071 -0.0006051332474)
5(1.553007752e-05 3.905366402e-05 -0.0006094579437 -0.0008265641667 -0.0003716351955)
5(-0.000116631144 -4.132340176e-05 -0.000576151681 -0.0007864630275 -0.0003866383524)
5(-0.0003716667902 -0.0003358041458 -0.0005778337625 -0.0006879718333 -0.0005202176432)
5(-0.0002683708848 -0.0003428888259 -0.0005282454056 -0.0006021003509 -0.0005651166574)
5(-0.0006141949757 -0.0005152534746 -0.0006474740856 -0.0006667208707 -0.0004548055436)
5(-0.0004149438318 -0.0004118038832 -0.0005371142919 -0.0006178942192 -0.0005702237892)
5(-0.0004969153948 -0.0004221930403 -0.0005333625632 -0.0006413747555 -0.0005634950705)
5(-0.0005178538315 -0.0004255102499 -0.0005189390871 -0.0006057487857 -0.0005067860655)
5(-0.000526588494 -0.0004234261026 -0.0004851051971 -0.0005974950859 -0.0005450434889)
5(-0.0004770007066 -0.0004086740346 -0.0005051931864 -0.0005968657979 -0.0005236925857)
5(-0.0004562740007 -0.0004282701497 -0.0005136665178 -0.000638009499 -0.000648952261)
5(-0.0005139397062 -0.0004557208365 -0.0004819762434 -0.0005894338253 -0.0006124171304)
5(-0.0005411138849 -0.0004443074962 -0.0005774760103 -0.0006500986734 -0.0004927464336)
5(-0.0006095156318 -0.0005108686613 -0.0005322355946 -0.0005883006958 -0.0005243518934)
5(-0.0004520555569 -0.0004784771678 -0.0005828606707 -0.0005966267792 -0.0005324309957)
5(-0.0005045943858 -0.0004855977243 -0.0005524673238 -0.000593475845 -0.0005486181052)
5(-0.0005411761054 -0.0004436126101 -0.0004982930386 -0.0006364927732 -0.0006224485841)
5(-0.0006182091408 -0.0005067481332 -0.0004632512195 -0.0005820049719 -0.0006327946302)
5(-0.000575690657 -0.0004660795944 -0.000463841195 -0.0006032982803 -0.0006353827025)
5(-0.0006430506615 -0.0005471695314 -0.0005016021555 -0.0005649572049 -0.0005779985001)
5(-0.000606873592 -0.000571481517 -0.0005640337475 -0.0005519319079 -0.0005118857627)
5(-0.0006408839639 -0.0005822834167 -0.0005586593093 -0.0005596993657 -0.0005257629823)
5(-0.0006879853768 -0.0006222374933 -0.0005802932513 -0.000559821059 -0.0005155452252)
5(-0.0006607924916 -0.0006045643975 -0.000579382905 -0.0005042548334 -0.0003980801602)
5(-0.0006588518417 -0.0005932208427 -0.0005909584473 -0.000540643564 -0.0004269600772)
5(-0.0007066338618 -0.0006157250091 -0.0005584962673 -0.000471768476 -0.0003513605737)
5(-0.0006429096402 -0.0005562700337 -0.0005542126704 -0.0004722838634 -0.0003057728131)
5(-0.0007397574162 -0.0006235201157 -0.0004804317051 -0.0003383807268 -0.0002231808587)
5(-0.0006625506041 -0.0005872958747 -0.0004408574738 -0.0002992162462 -0.0002287586903)
5(-0.0006636661427 -0.0005370332658 -0.0003741355555 -0.000228920653 -0.000119970584)
5(-0.0006523533143 -0.0004892329677 -0.0003031210209 -0.000193001617 -0.0001058738133)
5(-0.0005907798132 -0.0004304317606 -0.0002154493591 -0.0001078605318 -5.49060534e-05)
5(-0.0004654952014 -0.0003334927439 -0.0001468676775 -5.970673018e-05 -2.716839174e-05)
5(-0.0003734653093 -0.0002493108834 -8.867856297e-05 -2.610033425e-05 0)
5(-0.0002608228768 -0.0001614198881 -5.132978447e-05 -1.527837187e-05 1.00859258e-05)
5(-0.0001725010276 -0.0001020190495 -2.253380145e-05 -5.872051293e-06 1.786428934e-06)
5(-8.713348328e-05 -5.21239334e-05 -9.531209854e-06 -9.740180957e-07 0)
5(-3.972623395e-05 -2.222510497e-05 -2.042724115e-06 -2.708579878e-07 -1.180243731e-06)
5(-2.226083656e-05 -1.120160182e-05 -1.648272506e-07 -9.364371223e-08 0)
5(-4.516296352e-06 -2.273188838e-06 -3.162755146e-08 -1.65868894e-08 0)
5(-8.716266146e-07 -4.364538385e-07 -6.405311561e-10 0 0)
5(-1.556036471e-07 -7.780182357e-08 0 0 0)
5(-2.059502234e-08 -1.029751117e-08 0 0 0)
5(-8.594374488e-12 -4.297187244e-12 0 0 0)
5{0}
5(1.030508942e-35 0 -5.152544711e-36 0 0)
5(3.318431263e-35 0 -1.659215632e-35 0 0)
5(1.045183161e-34 0 -5.225915807e-35 2.237662792e-34 4.475325584e-34)
5(3.250336724e-35 4.760790174e-35 1.445796248e-34 2.913039854e-34 3.561611573e-34)
5(1.945694611e-35 6.363829023e-35 1.138038358e-35 -3.218795636e-35 2.068295447e-35)
5(4.552054604e-37 -2.360286421e-38 2.66821105e-35 1.06142312e-34 1.584179917e-34)
)


60
(
5(-0.004045452685 -0.0002545703751 0.0001478283475 -0.001302720806 0.0006352136282)
5(-0.001819014872 -0.0007483728671 -0.0007612985384 -0.001493988257 -0.001143110299)
5(-0.0006550487265 -0.0009176836289 -0.001182432536 -0.001620270143 -0.002055993745)
5(-0.0003420109613 -0.0008973245216 -0.00129316137 -0.001688059886 -0.002242435113)
5(-0.0005288944283 -0.0008314278345 -0.001270022573 -0.001711718405 -0.002017352905)
5(-0.0009004171245 -0.000865196097 -0.00124735706 -0.001693959466 -0.001723179883)
5(-0.001067182982 -0.0009383551422 -0.001259640025 -0.001684958609 -0.001660164472)
5(-0.001055378786 -0.000974118907 -0.001294026565 -0.001714841205 -0.001734488308)
5(-0.001015247596 -0.001011508549 -0.001331812441 -0.001734312271 -0.001812769162)
5(-0.00102365391 -0.001049089861 -0.001357749463 -0.001750667791 -0.001860362469)
5(-0.001023387948 -0.001061420704 -0.001378156059 -0.001759127496 -0.001861396334)
5(-0.001082299793 -0.001081170928 -0.001391797668 -0.001775434468 -0.001847315664)
5(-0.001115615453 -0.00109905127 -0.001411298227 -0.001796785296 -0.001853461226)
5(-0.001137362169 -0.001118462841 -0.001424420762 -0.001814937764 -0.001880597517)
5(-0.001159833131 -0.001139554761 -0.001442479819 -0.001830967821 -0.001896252394)
5(-0.001180539016 -0.001159796343 -0.001465568689 -0.001852877138 -0.001913670568)
5(-0.001197184337 -0.001174009163 -0.001484321292 -0.001876128543 -0.001934448489)
5(-0.001217836585 -0.001194536158 -0.001508419801 -0.001897681991 -0.001949760111)
5(-0.001252702219 -0.001219658848 -0.001526602439 -0.001919772303 -0.001972955204)
5(-0.001278901183 -0.001246838598 -0.001549791021 -0.001939418252 -0.001994030475)
5(-0.001310515231 -0.001276047513 -0.001578115074 -0.001965547689 -0.002016445026)
5(-0.001339222985 -0.001309588108 -0.001608777127 -0.001988118647 -0.002038636272)
5(-0.001377835668 -0.001345381639 -0.001643693102 -0.002012806828 -0.002051155065)
5(-0.001425606783 -0.001387643294 -0.001686929105 -0.002042313712 -0.002060449019)
5(-0.001473621162 -0.001433991695 -0.001723261955 -0.002066932522 -0.00208170336)
5(-0.001531889277 -0.001479543141 -0.00176184 -0.002101650608 -0.00210681822)
5(-0.001603442592 -0.001535792845 -0.001797791142 -0.002128830889 -0.002130222592)
5(-0.001666384045 -0.001596811575 -0.001844570161 -0.002153825017 -0.002145748817)
5(-0.001738501916 -0.001660547407 -0.001894255923 -0.002177252584 -0.00214858622)
5(-0.001828662746 -0.001734793794 -0.001939759169 -0.002196265273 -0.002153937049)
5(-0.001920018704 -0.001810220543 -0.001985895299 -0.002207947434 -0.002144526651)
5(-0.002016987434 -0.001891307257 -0.002027460661 -0.002209508595 -0.00212972295)
5(-0.00211499622 -0.001968898273 -0.002065824362 -0.002207014981 -0.002105181565)
5(-0.002215645546 -0.00204711796 -0.002095323332 -0.002187316456 -0.002062576622)
5(-0.002309374522 -0.002117155667 -0.00211047634 -0.002149537061 -0.002003058254)
5(-0.002400169586 -0.00217971683 -0.002106042049 -0.002085126981 -0.001917433938)
5(-0.002465931151 -0.002217209379 -0.002077026297 -0.001987886716 -0.001790208444)
5(-0.002514510252 -0.002235200255 -0.002016535328 -0.001855523974 -0.00163386755)
5(-0.002524511847 -0.002214004667 -0.001913616009 -0.00169354089 -0.001463347247)
5(-0.002477229641 -0.002145789731 -0.001773341909 -0.00150270911 -0.001273084223)
5(-0.002376451619 -0.002025684122 -0.001587579653 -0.001285033097 -0.001069823512)
5(-0.002201727483 -0.001849320418 -0.001374005612 -0.001047002423 -0.0008429069753)
5(-0.001970008974 -0.001618931916 -0.00113199582 -0.0008004000378 -0.0006046632936)
5(-0.001678389739 -0.001343908419 -0.0008763500855 -0.0005669295687 -0.0003905860639)
5(-0.001349800684 -0.001051839791 -0.0006313811348 -0.0003648769521 -0.0002208705332)
5(-0.001005818946 -0.0007637339905 -0.0004161131069 -0.0002094187969 -0.0001082604145)
5(-0.0006940717542 -0.0005113498998 -0.0002448628573 -0.000103007694 -4.491771885e-05)
5(-0.0004292129235 -0.0003057230302 -0.000126000811 -4.24382295e-05 -1.510797386e-05)
5(-0.0002379788188 -0.0001618959231 -5.508027794e-05 -1.414357879e-05 -3.939629048e-06)
5(-0.0001099582349 -7.092968573e-05 -1.935471391e-05 -3.767438413e-06 -7.265855911e-07)
5(-4.266721699e-05 -2.594925367e-05 -5.281373716e-06 -7.154109509e-07 -9.936483213e-08)
5(-1.200316854e-05 -6.964726747e-06 -1.057266329e-06 -9.869278651e-08 -9.137867471e-09)
5(-2.679496457e-06 -1.479494007e-06 -1.490880111e-07 -9.617759763e-09 -5.510532356e-10)
5(-3.454198197e-07 -1.844454507e-07 -1.220976699e-08 -4.842582471e-10 -2.006417878e-11)
5(-2.597856865e-08 -1.360698551e-08 -6.306945317e-10 -1.335678064e-11 -7.268741985e-13)
5(-7.685495933e-10 -3.945122171e-10 -1.042960654e-11 -2.072410667e-13 -3.011000721e-14)
5(-9.700083367e-12 -4.908743157e-12 -6.152253796e-14 -3.200726827e-15 -7.593253338e-16)
5(-3.421996324e-14 -1.763039339e-14 -5.782513469e-16 -6.249585269e-17 -9.312548311e-18)
5(-3.196506332e-17 -3.231394091e-17 1.025057322e-17 2.692091586e-17 6.778667879e-19)
5(-1.374206848e-24 -7.102822074e-25 -2.317860719e-26 4.739954274e-34 -3.514091356e-31)
)


60
(
5(-0.003445316058 -9.550073885e-05 0.0002061760229 -0.001348010991 0.0001459405525)
5(-0.001568771299 -0.0007273432296 -0.0008211523882 -0.001644952632 -0.001533515648)
5(-0.0006637542592 -0.0009312740533 -0.001270482633 -0.001852567443 -0.002362963469)
5(-0.0004309111762 -0.0009204461775 -0.001389177822 -0.001956094605 -0.002543814745)
5(-0.0006263677118 -0.0008919470794 -0.001384325252 -0.001985690844 -0.002360257631)
5(-0.0009223115983 -0.000931291969 -0.001382624018 -0.001972569721 -0.002120163746)
5(-0.001082185038 -0.0009945375724 -0.001404701498 -0.001983965145 -0.002065417399)
5(-0.00108592627 -0.001046113638 -0.001455381942 -0.002018988884 -0.002133514892)
5(-0.001066741082 -0.001096936943 -0.001505751212 -0.002054350145 -0.002224330672)
5(-0.001075347454 -0.001138072871 -0.001542694119 -0.002072900225 -0.002261210499)
5(-0.001103000185 -0.00116183137 -0.001569485149 -0.002097859633 -0.002277411524)
5(-0.001150861789 -0.001187040456 -0.001592980172 -0.002122735066 -0.002282728911)
5(-0.001194698524 -0.001215998351 -0.001621985292 -0.002153741412 -0.002300810419)
5(-0.001223504504 -0.001245112929 -0.001651945351 -0.002183727689 -0.00233028603)
5(-0.00125259975 -0.001273656258 -0.001684062812 -0.002216808204 -0.002360203551)
5(-0.00127526669 -0.001301745781 -0.001715972803 -0.002247069885 -0.002390419035)
5(-0.001319355682 -0.001334219741 -0.001746087277 -0.002281528429 -0.002419966104)
5(-0.001356059209 -0.001369720596 -0.001779323582 -0.002314281993 -0.002453298806)
5(-0.00139494379 -0.001403875384 -0.00181541231 -0.002351050019 -0.002484082396)
5(-0.001438227159 -0.00144613623 -0.001851568751 -0.002384980841 -0.002520869482)
5(-0.001473086546 -0.001486019361 -0.001894732171 -0.002422139823 -0.002553767481)
5(-0.001526840894 -0.001540377118 -0.001944690169 -0.002460361142 -0.002585255286)
5(-0.00157897553 -0.001590241969 -0.001994179187 -0.00250269414 -0.002618538311)
5(-0.001640152362 -0.001648129342 -0.002049780791 -0.002545497835 -0.002647540409)
5(-0.001705400895 -0.001708860629 -0.002105405848 -0.002589915601 -0.002681339868)
5(-0.00178393139 -0.00178049584 -0.002162984406 -0.002634396432 -0.002719884343)
5(-0.001872610339 -0.001858366971 -0.002221174744 -0.0026761255 -0.002754025115)
5(-0.001949932506 -0.001934349412 -0.002286356785 -0.002721756497 -0.002789565742)
5(-0.002062286492 -0.002029477613 -0.002354419483 -0.002762114058 -0.002812057885)
5(-0.002169018883 -0.002123780014 -0.002422234325 -0.002802412166 -0.002838896827)
5(-0.002283851575 -0.002227217192 -0.002496498153 -0.002834785016 -0.002847156535)
5(-0.002412770814 -0.002336904494 -0.002565238912 -0.002860989118 -0.002852538585)
5(-0.002548577962 -0.002446221823 -0.00262912928 -0.002879484092 -0.002844575306)
5(-0.002674569263 -0.002558341727 -0.00269103569 -0.002886238406 -0.002832519623)
5(-0.002810559243 -0.002670427969 -0.002737519381 -0.002868621204 -0.002792500342)
5(-0.002923899939 -0.002761533002 -0.002769714719 -0.002831866897 -0.002723470421)
5(-0.003034877314 -0.00284431155 -0.002776913817 -0.002758413272 -0.002616744696)
5(-0.003142075217 -0.00291091084 -0.00275047148 -0.002644882126 -0.002468567754)
5(-0.003199692227 -0.0029305303 -0.002680103481 -0.00249315495 -0.00228747131)
5(-0.00321783495 -0.002911523463 -0.002560597254 -0.002299996745 -0.002084010959)
5(-0.003162003492 -0.002831262593 -0.002391832076 -0.002062592525 -0.001842042592)
5(-0.003033859533 -0.002677075568 -0.002164052828 -0.001785552127 -0.0015632902)
5(-0.002833349886 -0.002452917153 -0.001886568626 -0.001470884445 -0.001241116058)
5(-0.002547578678 -0.002159361997 -0.001573738679 -0.001140287715 -0.0009042433876)
5(-0.002190877882 -0.001813791161 -0.001237446426 -0.0008211536375 -0.0006041188629)
5(-0.001776338644 -0.001433916946 -0.0009051776896 -0.0005422658206 -0.00036567151)
5(-0.001352101817 -0.001063286336 -0.0006091687646 -0.0003188686218 -0.00019387057)
5(-0.0009495326377 -0.0007225983549 -0.0003682866298 -0.0001652154087 -8.952162965e-05)
5(-0.0006054566323 -0.000443272964 -0.000195682098 -7.271227169e-05 -3.514964306e-05)
5(-0.000342420154 -0.0002384676094 -8.866475146e-05 -2.676162387e-05 -1.070880972e-05)
5(-0.0001664386323 -0.0001094820035 -3.281091117e-05 -7.86592808e-06 -2.635408586e-06)
5(-6.448093417e-05 -4.02249941e-05 -9.479957108e-06 -1.720201614e-06 -4.49543051e-07)
5(-1.889128779e-05 -1.122650656e-05 -2.028091466e-06 -2.746924877e-07 -5.492737242e-08)
5(-3.761562695e-06 -2.156998486e-06 -3.015575141e-07 -2.725722802e-08 -3.833704367e-09)
5(-5.147528139e-07 -2.839528845e-07 -2.821240901e-08 -1.731344211e-09 -1.908254797e-10)
5(-3.723081043e-08 -2.006789161e-08 -1.50418611e-09 -5.455725072e-11 -5.715072641e-12)
5(-1.423379651e-09 -7.426719756e-10 -3.19719359e-11 -1.046448248e-12 -1.133252549e-13)
5(-1.250389471e-11 -6.614260188e-12 -3.717345231e-13 -1.03015615e-14 -1.759739595e-15)
5(-4.140731327e-13 -2.637198241e-13 1.900851754e-13 2.47728449e-13 1.920031911e-15)
5(-1.333600427e-17 -6.66808108e-18 -7.894584547e-23 1.55245478e-29 2.63301216e-29)
)


60
(
5(-0.003014723483 0.0001003189717 0.0003718296291 -0.001317594948 -0.0001634877273)
5(-0.001358082194 -0.0006309600435 -0.0007648795973 -0.001690819764 -0.001755718227)
5(-0.0005750005558 -0.0008599361564 -0.001249728126 -0.001944235811 -0.002533887127)
5(-0.0003948770854 -0.0008559793479 -0.001376442879 -0.002070399197 -0.002704994247)
5(-0.0005794521014 -0.0008404592275 -0.001385214976 -0.002107362052 -0.002545760507)
5(-0.0008529387302 -0.0008911614666 -0.001395984153 -0.002098256878 -0.002333929653)
5(-0.001000071143 -0.0009578345596 -0.001434949665 -0.00211980737 -0.002285313386)
5(-0.001018304609 -0.001016756498 -0.001493639321 -0.002164012401 -0.002355954547)
5(-0.001008523561 -0.00107112269 -0.00154936799 -0.002206851421 -0.002448688679)
5(-0.00102140958 -0.001117085083 -0.001595490802 -0.002238151854 -0.00249808269)
5(-0.001065446673 -0.001154792272 -0.00163136497 -0.002269405149 -0.002520218228)
5(-0.001110817508 -0.001186994207 -0.001667174453 -0.002302053673 -0.002532929346)
5(-0.001156532071 -0.001220224 -0.001701779577 -0.002340342681 -0.002561042136)
5(-0.001197973105 -0.001258521388 -0.00173927032 -0.002381116122 -0.002602761276)
5(-0.001239099675 -0.001297491184 -0.001779334453 -0.002421077297 -0.00263936838)
5(-0.001275130183 -0.00133436759 -0.001822076247 -0.002464207585 -0.002677867674)
5(-0.001311911844 -0.00137192313 -0.001863639772 -0.002506722045 -0.002718098959)
5(-0.001365240312 -0.001419546268 -0.001909331156 -0.002548428786 -0.002752047484)
5(-0.001405787978 -0.001462322901 -0.001954980194 -0.002595406326 -0.002799710088)
5(-0.001461573592 -0.001517145855 -0.00200445647 -0.002638966438 -0.002841738054)
5(-0.001519524165 -0.00157000663 -0.002053248589 -0.002689305782 -0.002892603483)
5(-0.001566447437 -0.001626904777 -0.002116469293 -0.002740161255 -0.002934746041)
5(-0.001632024317 -0.001690649882 -0.002177219692 -0.002791073492 -0.002976983047)
5(-0.001716844919 -0.001769062069 -0.002242045793 -0.002841929895 -0.003021047422)
5(-0.001799845568 -0.001841839948 -0.002309396681 -0.002899039889 -0.003063120745)
5(-0.001882511508 -0.001924052107 -0.002383041733 -0.002956956276 -0.00311342179)
5(-0.001978986374 -0.002014425119 -0.002457850573 -0.003015404226 -0.003164971169)
5(-0.002083147764 -0.002112348382 -0.002537659755 -0.003072662223 -0.003211553935)
5(-0.002198766201 -0.002219077884 -0.002623858892 -0.003129841893 -0.003251355568)
5(-0.002324449576 -0.002334271118 -0.002711066424 -0.003184646455 -0.003291252721)
5(-0.002459424036 -0.002456982368 -0.002802404822 -0.003238186057 -0.00332610317)
5(-0.002603501894 -0.002590059456 -0.002894097193 -0.003282688026 -0.003353798684)
5(-0.002754989539 -0.002721693391 -0.002986957804 -0.00332837964 -0.003371240915)
5(-0.002914162936 -0.002861650956 -0.003072859753 -0.003358837161 -0.003381093792)
5(-0.003078018559 -0.003003560553 -0.003152810705 -0.003376878377 -0.003377237891)
5(-0.003244643837 -0.003141971964 -0.003221344926 -0.003367754615 -0.003332119468)
5(-0.003402536676 -0.003273808276 -0.003270074645 -0.00332663939 -0.003258209367)
5(-0.003544834518 -0.003379477524 -0.003289559749 -0.003252033554 -0.003139068139)
5(-0.003663600751 -0.003462789104 -0.003272454346 -0.003132458909 -0.002981986586)
5(-0.003744434731 -0.003508618703 -0.003205245125 -0.002964674107 -0.002791660638)
5(-0.003774080194 -0.003492119037 -0.003073748683 -0.002749683064 -0.002562026642)
5(-0.003744311742 -0.003411317 -0.002880888947 -0.002476245042 -0.002269034446)
5(-0.003619655572 -0.003244704877 -0.00262215264 -0.002136777673 -0.001899004248)
5(-0.00340646922 -0.002991401499 -0.002300706915 -0.00176012917 -0.001495178288)
5(-0.003089194449 -0.002649461009 -0.00192484987 -0.001369690589 -0.001099409007)
5(-0.002690030437 -0.002250341599 -0.001520319332 -0.0009897130533 -0.0007494402043)
5(-0.002211135484 -0.001811471004 -0.001125690162 -0.0006522862785 -0.0004649987561)
5(-0.001724477792 -0.00136147806 -0.0007620962672 -0.0003903306978 -0.000254947188)
5(-0.001246351369 -0.0009432583844 -0.0004635908986 -0.0002038885414 -0.0001207606852)
5(-0.0008234517017 -0.0005947514 -0.0002491709134 -8.98427931e-05 -4.739485758e-05)
5(-0.0004837325516 -0.000330037388 -0.0001138241831 -3.351709063e-05 -1.572803958e-05)
5(-0.0002444552562 -0.0001559917482 -4.182380601e-05 -9.991489978e-06 -3.863608101e-06)
5(-9.615570098e-05 -5.842041568e-05 -1.221391482e-05 -2.22439418e-06 -7.060891146e-07)
5(-2.904005068e-05 -1.683081966e-05 -2.603549261e-06 -3.37609639e-07 -8.970938699e-08)
5(-6.386643585e-06 -3.534991643e-06 -3.69911853e-07 -3.16178385e-08 -6.75167245e-09)
5(-7.788853052e-07 -4.180514646e-07 -3.027247818e-08 -1.806544421e-09 -2.857564979e-10)
5(-3.478355095e-08 -1.914236757e-08 -1.796353453e-09 -4.96132693e-11 -7.703835465e-12)
5(-1.83842261e-09 -9.65123364e-10 -4.682168188e-11 -9.783934867e-13 -1.375412531e-13)
5(-1.203296301e-11 -5.458396578e-12 -1.579016438e-12 -2.033694775e-12 2.068131766e-13)
5(5.202734459e-09 5.557124298e-09 -2.583749538e-09 -5.557308379e-09 -3.560354454e-11)
)


60
(
5(-0.002648825319 0.0003205736546 0.0005931036937 -0.001239407669 -0.0003750500972)
5(-0.001137852115 -0.0004934707306 -0.000651214587 -0.001669226113 -0.001885112398)
5(-0.0004362868571 -0.0007441739774 -0.001170915237 -0.001956206457 -0.002622643539)
5(-0.0002897375849 -0.0007407029595 -0.001302865417 -0.002100603285 -0.00278714407)
5(-0.0004750679323 -0.0007347535515 -0.001321796136 -0.002145202183 -0.002641251264)
5(-0.0007305789164 -0.0007971034034 -0.00134854871 -0.002139757613 -0.002446045695)
5(-0.0008751776827 -0.000866727429 -0.001394952317 -0.002168898592 -0.002406169726)
5(-0.0008990304305 -0.0009299380801 -0.001459178195 -0.002220131669 -0.002482752679)
5(-0.0008989113603 -0.0009923264931 -0.001525304881 -0.002270196555 -0.002575524974)
5(-0.0009269649184 -0.001044573835 -0.001574686049 -0.002309125677 -0.002631062008)
5(-0.0009689031657 -0.001087694208 -0.001621246953 -0.002347783441 -0.002659558224)
5(-0.001022818863 -0.001126258251 -0.001660306076 -0.002387868407 -0.002684822299)
5(-0.001077801176 -0.001166783302 -0.001703839401 -0.002434599541 -0.002717285709)
5(-0.001110570783 -0.001207077892 -0.001750499204 -0.00248006463 -0.002762715854)
5(-0.001159495966 -0.001254299233 -0.001798646097 -0.002529408796 -0.002810627897)
5(-0.001204300615 -0.001303420673 -0.001848998889 -0.00257674697 -0.002858036892)
5(-0.001252676387 -0.001347854583 -0.001898692595 -0.002628630379 -0.002902908349)
5(-0.001305621802 -0.001398055 -0.001953761824 -0.002680750579 -0.002944465707)
5(-0.001360509924 -0.001453928508 -0.002005767424 -0.002732809737 -0.003001431717)
5(-0.001419699913 -0.00151238885 -0.002063031525 -0.002787386266 -0.003053787268)
5(-0.001481800121 -0.00157507366 -0.00212524244 -0.002844434088 -0.003106730494)
5(-0.001549503008 -0.001645270193 -0.002192276707 -0.002903384596 -0.003163253156)
5(-0.001624166727 -0.00171910705 -0.002264237425 -0.002962801232 -0.003211174987)
5(-0.001704050846 -0.001797393602 -0.002340113754 -0.003028011271 -0.003266531391)
5(-0.001794725639 -0.001883282971 -0.002418335942 -0.003092718233 -0.003320604883)
5(-0.001899692916 -0.001977456679 -0.002496050341 -0.003159441007 -0.003382001773)
5(-0.001997447707 -0.00208022204 -0.002587852463 -0.003227669182 -0.003442629809)
5(-0.00211175595 -0.002188356267 -0.002679080852 -0.003297541408 -0.003501877697)
5(-0.002236164627 -0.002305539778 -0.002776887664 -0.003369370193 -0.003559879988)
5(-0.002372955062 -0.002434153441 -0.002880375123 -0.003439560052 -0.003613721678)
5(-0.00251892835 -0.002572541667 -0.002988002142 -0.003508232072 -0.003666614844)
5(-0.002674468592 -0.002719067228 -0.003101765491 -0.003579405588 -0.003718946058)
5(-0.002843225683 -0.002876030162 -0.003217164711 -0.003641280671 -0.003757066561)
5(-0.003026455324 -0.003041516857 -0.003329691659 -0.003698765005 -0.003794725083)
5(-0.003212985977 -0.003209169366 -0.003440044829 -0.003747035804 -0.003819334705)
5(-0.003406227996 -0.003379685868 -0.003542625552 -0.003775478343 -0.003818849321)
5(-0.003599341363 -0.003551574964 -0.003634521543 -0.003775382379 -0.003785530238)
5(-0.003794473942 -0.003716170369 -0.003707176901 -0.003742625244 -0.00370876348)
5(-0.003977833835 -0.00386176145 -0.003745067072 -0.003671338576 -0.003598232073)
5(-0.004132496024 -0.003975295323 -0.003741256189 -0.003559481752 -0.003454545748)
5(-0.004251366588 -0.004046227947 -0.003683317187 -0.003394195211 -0.003262845353)
5(-0.004312864954 -0.004055761819 -0.00356151198 -0.003155514104 -0.002986662933)
5(-0.004301551781 -0.003985090052 -0.00336485765 -0.002843073855 -0.002625060734)
5(-0.004217241364 -0.003824764929 -0.003085154154 -0.002462532952 -0.002187046089)
5(-0.004014324 -0.003567104933 -0.002727572533 -0.00202583089 -0.001716402581)
5(-0.00369465152 -0.003210473838 -0.002303181666 -0.001570030145 -0.001259993114)
5(-0.003277224841 -0.002776089113 -0.001835130554 -0.001132427326 -0.000869546931)
5(-0.00276483703 -0.002275906942 -0.001373095283 -0.0007494081783 -0.0005396026448)
5(-0.002218397307 -0.001755406089 -0.0009446438158 -0.0004479601441 -0.0002990475262)
5(-0.001664828678 -0.001256346035 -0.000587320069 -0.0002364469693 -0.0001461171918)
5(-0.00114588635 -0.0008179991763 -0.0003222375545 -0.0001066809391 -5.899877142e-05)
5(-0.0007169451939 -0.0004767366944 -0.0001481694551 -3.957774679e-05 -1.934477816e-05)
5(-0.0003845344325 -0.000241122966 -5.822760541e-05 -1.178087186e-05 -4.818032442e-06)
5(-0.0001670727665 -9.956140655e-05 -1.814254333e-05 -2.537289001e-06 -8.395379649e-07)
5(-5.36694692e-05 -3.044144318e-05 -3.940585507e-06 -3.811758137e-07 -9.459777718e-08)
5(-1.490268313e-05 -8.006871171e-06 -5.86655938e-07 -3.452993173e-08 -6.807199327e-09)
5(-2.254240357e-06 -1.17588827e-06 -5.013613568e-08 -1.514940418e-09 -2.937934514e-10)
5(-1.621469774e-07 -8.381519632e-08 -2.792458113e-09 -5.369024018e-11 -5.879474916e-12)
5(-8.783949795e-09 -4.455856205e-09 -6.535708997e-11 -1.499976628e-12 -4.838825735e-14)
5(-1.21729773e-08 -6.096308529e-09 -9.819876167e-12 8.121658207e-23 -9.777360983e-19)
)


60
(
5(-0.002315631381 0.0005557653323 0.0008462740101 -0.001127105535 -0.000519597044)
5(-0.0009109706526 -0.0003307339383 -0.0004994570208 -0.001601386774 -0.00195435673)
5(-0.0002743351058 -0.0006008380845 -0.001052041513 -0.00191463966 -0.002652537358)
5(-0.0001474885149 -0.0005945700865 -0.001190624169 -0.00207642958 -0.00281326248)
5(-0.0003298134263 -0.0005942984623 -0.00121837774 -0.002128165332 -0.002678358682)
5(-0.0005753564696 -0.0006652687259 -0.001256534932 -0.002126101506 -0.00249431413)
5(-0.0007225487567 -0.0007422630083 -0.001309820068 -0.002160206437 -0.002462749999)
5(-0.0007473582249 -0.0008071216628 -0.001382258564 -0.002219206662 -0.002540781296)
5(-0.0007589995281 -0.0008764098243 -0.001452000416 -0.002273776308 -0.002637371903)
5(-0.0007871051214 -0.0009326941877 -0.001511382102 -0.002320224805 -0.002695968661)
5(-0.0008378594862 -0.0009817842239 -0.001560452313 -0.002363600606 -0.002732005548)
5(-0.0008946079586 -0.001025933679 -0.001608895463 -0.002410940005 -0.002761348484)
5(-0.0009493280472 -0.001071607479 -0.001658414241 -0.002462618339 -0.002802295106)
5(-0.001000410691 -0.001121593639 -0.001710683117 -0.002515161446 -0.002851733246)
5(-0.001044263957 -0.00117103768 -0.001765508813 -0.002569838792 -0.002906471362)
5(-0.001095069727 -0.00122304113 -0.001820544251 -0.00262469512 -0.002959314269)
5(-0.001147282038 -0.001276570237 -0.001880032587 -0.002682653046 -0.003011099351)
5(-0.001205259297 -0.001333294851 -0.001937404408 -0.002739414206 -0.003065350002)
5(-0.001268546597 -0.001395207684 -0.001999807223 -0.00280042702 -0.003123108367)
5(-0.001331154459 -0.001460271603 -0.002063937453 -0.002860930778 -0.003183375398)
5(-0.001399962472 -0.00153024203 -0.002131831849 -0.002924376308 -0.003245610505)
5(-0.001476350846 -0.001606597108 -0.002207443464 -0.002991471831 -0.003304900103)
5(-0.001552131065 -0.001686660736 -0.002287073039 -0.003058134705 -0.003363313737)
5(-0.00164089921 -0.001773544565 -0.002370542131 -0.003129330356 -0.00342376637)
5(-0.001738659109 -0.001867811509 -0.002457947624 -0.003204771788 -0.003490612238)
5(-0.001840018295 -0.001969197403 -0.002548391863 -0.003279009354 -0.003559611494)
5(-0.001949037561 -0.002076496056 -0.002643292981 -0.003357945775 -0.003633260139)
5(-0.002072675989 -0.002195495995 -0.002745167557 -0.003438803436 -0.003705587759)
5(-0.002206717558 -0.00232472739 -0.002854984958 -0.00352226346 -0.003777294227)
5(-0.002347580743 -0.00246394572 -0.002971620076 -0.003604341685 -0.003845753914)
5(-0.002501075029 -0.002612299481 -0.003093866103 -0.003689925861 -0.00391564345)
5(-0.002669134542 -0.002772217986 -0.003220504694 -0.003776254648 -0.003986801338)
5(-0.002850169224 -0.002944208675 -0.003353977935 -0.003861813094 -0.004053918444)
5(-0.003043781467 -0.003128596849 -0.00349321371 -0.0039469261 -0.004120837012)
5(-0.003247163083 -0.003321241479 -0.003633258492 -0.004025604086 -0.004180011062)
5(-0.003465347785 -0.003522002692 -0.003772102992 -0.004090168589 -0.004214788794)
5(-0.003697550587 -0.003731760144 -0.003907141093 -0.004133293709 -0.004218274933)
5(-0.003933505283 -0.003939290232 -0.004026073617 -0.00415086259 -0.004194653129)
5(-0.004167819093 -0.004144092096 -0.004127856675 -0.004139474629 -0.004143601007)
5(-0.004382127262 -0.004332322379 -0.004201471363 -0.00408973646 -0.004059047689)
5(-0.004587155961 -0.004489482281 -0.004226610914 -0.003982454727 -0.003903496226)
5(-0.00475012787 -0.004601410813 -0.004192112511 -0.003819412115 -0.003707292963)
5(-0.004853722542 -0.004639657392 -0.004089418642 -0.003563364747 -0.003373484452)
5(-0.004899923323 -0.004601848968 -0.003899236109 -0.003221434578 -0.002948171549)
5(-0.004833949759 -0.004460525956 -0.003614404258 -0.002792514718 -0.002443323073)
5(-0.004645601499 -0.00420887683 -0.003231046972 -0.002309771203 -0.001929600622)
5(-0.004371647141 -0.003864694779 -0.002764773593 -0.001803697273 -0.001435589777)
5(-0.003910965467 -0.003380557119 -0.002239289769 -0.001307942993 -0.0009874552184)
5(-0.003387571114 -0.002829756721 -0.001704415126 -0.0008785695889 -0.0006202512547)
5(-0.002833066017 -0.002264372856 -0.001208331608 -0.0005322246837 -0.0003434658468)
5(-0.002189383315 -0.001664322252 -0.0007718837148 -0.0002855684357 -0.0001666306304)