/*--------------------------------*- C++ -*----------------------------------*\
| =========                 |                                                 |
| \\      /  F ield         | OpenFOAM: The Open Source CFD Toolbox           |
|  \\    /   O peration     | Version:  2.3.1                                 |
|   \\  /    A nd           | Web:      www.OpenFOAM.org                      |
|    \\/     M anipulation  |                                                 |
\*---------------------------------------------------------------------------*/
FoamFile
{
    version     2.0;
    format      ascii;
    class       dictionary;
    location    "constant";
    object      GRPSI52;
}
// * * * * * * * * * * * * * * * * * * * * * * * * * * * * * * * * * * * * * //

GRPSI52_table
60
(

60
(
5(0.127490941 0.210319755 0.2158781501 0.1898420778 0.2410764244)
5(0.07909934609 0.200763716 0.237694164 0.1845927894 0.2162253367)
5(0.2949828002 0.2605632536 0.1860163886 0.1017793354 0.05766960049)
5(0.4211257088 0.3256290685 0.1548498086 0.1973550462 0.3151429035)
5(0.3300493026 0.2809486843 0.183886938 0.1709654952 0.2060051802)
5(0.1999726268 0.1838697898 0.1883755323 0.186537999 0.1640918861)
5(0.1626851616 0.174049207 0.1788412319 0.2057451213 0.2392210313)
5(0.2060876305 0.2118532313 0.1853245243 0.1524060858 0.1517819552)
5(0.1838020048 0.1936360931 0.1855605616 0.1736049229 0.179558904)
5(0.1943521503 0.2053434837 0.180285816 0.1683067367 0.1923766585)
5(0.1901552995 0.2023738299 0.1812089592 0.1694391738 0.1910527896)
5(0.190171689 0.1963205026 0.1812234405 0.1709198598 0.1818621548)
5(0.1993770194 0.1984984602 0.1834601543 0.1748508053 0.180401203)
5(0.1902548808 0.194043619 0.1783399089 0.1713328339 0.1838182071)
5(0.195083966 0.1962663234 0.182353432 0.172849284 0.1784403849)
5(0.1932201549 0.1959547835 0.1818979742 0.1717957706 0.1784850048)
5(0.192263075 0.1957691731 0.1822868841 0.1734798684 0.1816612399)
5(0.1921686609 0.1958081424 0.1836858339 0.1739588427 0.1799936415)
5(0.1935635538 0.196280067 0.1828376158 0.1737189316 0.1807592117)
5(0.1943633593 0.1959818685 0.1832573226 0.1715904917 0.1742667158)
5(0.1922353723 0.1946324947 0.1837606715 0.1728136356 0.1751355453)
5(0.1912021504 0.1949974607 0.1785762894 0.168450801 0.1785417942)
5(0.1892583024 0.1927725615 0.1808382123 0.1715284996 0.1776673951)
5(0.1941434477 0.1935028905 0.1787052195 0.1703295333 0.176110961)
5(0.1925931195 0.1932285332 0.17966767 0.1702199471 0.1749685011)
5(0.191499313 0.1947092025 0.1814935807 0.1674867621 0.1699054548)
5(0.1887029924 0.192028496 0.1824004463 0.1687723797 0.1680978664)
5(0.1894684565 0.1932227737 0.1819784387 0.1665768912 0.1661739959)
5(0.1873371311 0.1899669909 0.1794769267 0.1669881028 0.1676192031)
5(0.1885289561 0.188499783 0.1753514916 0.1654385631 0.1686447529)
5(0.1873356587 0.1879178518 0.1749629332 0.1632398961 0.1650539708)
5(0.1850693397 0.1852309938 0.1713984559 0.1576095463 0.1578148286)
5(0.1854986434 0.1850066077 0.1694867798 0.1606119347 0.1667648819)
5(0.1850406199 0.1846908031 0.1661808261 0.1512540348 0.1544874037)
5(0.1819188279 0.1819456975 0.1646605049 0.1503799226 0.1534114027)
5(0.1837733686 0.1839526379 0.1614862672 0.1446259554 0.1504112835)
5(0.1762852083 0.1757130099 0.1592034064 0.1492252658 0.1551845302)
5(0.1778229932 0.1737262357 0.1568091199 0.1333049929 0.1226212243)
5(0.1736009236 0.1725879657 0.1534667332 0.1424466377 0.1495348169)
5(0.1689145556 0.1713186756 0.1520465055 0.09213980703 0.05390939869)
5(0.1633378988 0.1653456268 0.1493949969 0.09878236768 0.06612809638)
5(0.162340084 0.1625034652 0.1320020272 0.1021167311 0.1028962542)
5(0.1556443818 0.1572924835 0.09783689584 0.108846587 0.1809599675)
5(0.1560933417 0.1651738365 0.09815227556 0.1039936898 0.1859371596)
5(0.150440796 0.1577450497 0.1026982194 0.1109682808 0.1815894264)
5(0.1537836137 0.1506672108 0.1057736759 0.1215303641 0.1790641844)
5(0.1456386384 0.1105146389 0.1142135999 0.1653469541 0.1776573476)
5(0.1241824461 0.1012948131 0.1309170231 0.1805347221 0.1776425783)
5(0.1274493871 0.1030029999 0.1321834547 0.1815565628 0.177302829)
5(0.03538165537 0.1085297863 0.1832553132 0.1806379128 0.1764431165)
5(0.0540998747 0.1186571393 0.1838120855 0.1795452768 0.1746807866)
5(0.1401581514 0.1607846874 0.1825540882 0.1783109742 0.1729249956)
5(0.1729536212 0.1761138371 0.1810828746 0.176832265 0.170772834)
5(0.1761358917 0.1771851848 0.1794715201 0.1752233256 0.1697380887)
5(0.1745744274 0.1758064473 0.1781225472 0.1730733769 0.1669401265)
5(0.1630921071 0.1691477261 0.1752897702 0.1701607539 0.1649453124)
5(0.1407854384 0.1564192973 0.1714912138 0.1653153775 0.1597014837)
5(0.1312647274 0.1457444332 0.1616468652 0.1567521937 0.1504347959)
5(0.1349130825 0.1444336015 0.1173993955 0.1400820085 0.1993193466)
5(0.1653554165 0.1629661702 0.1722408577 0.1460965351 0.1082882788)
)


60
(
5(0.1697771379 0.2132452635 0.2093479835 0.1924551092 0.2229276407)
5(0.1910784672 0.2072366881 0.1988140197 0.1874797331 0.2007263358)
5(0.203020731 0.2045704943 0.1936334663 0.1840003218 0.1868539688)
5(0.2063385637 0.2048702002 0.1924708424 0.1828047607 0.1840696734)
5(0.2047680934 0.2060491431 0.1931115101 0.1835739788 0.1882551303)
5(0.2009876714 0.2061419033 0.1935000014 0.1845538956 0.1934039238)
5(0.1996011374 0.2054882186 0.193601667 0.1850232034 0.1942183725)
5(0.1998782066 0.2052695032 0.19339588 0.1845776185 0.1930242769)
5(0.2002492574 0.2049292681 0.1930237426 0.1842117126 0.1919852188)
5(0.2000485691 0.2044919051 0.192802705 0.1838773621 0.1910845552)
5(0.2004157162 0.2045090776 0.1925972174 0.1838850435 0.1911780913)
5(0.199708562 0.2043471845 0.1924590349 0.1837846123 0.1916369618)
5(0.1994672407 0.2042211308 0.1922024152 0.18345561 0.1914814105)
5(0.1992795185 0.204031591 0.1921233996 0.1832148577 0.1909665796)
5(0.19901719 0.2037921658 0.1918954322 0.1829547143 0.1906857057)
5(0.1987862611 0.203565777 0.191546095 0.1825248021 0.1903027072)
5(0.1986990921 0.203468215 0.19127674 0.1820371733 0.1897582044)
5(0.1985252575 0.2032366417 0.1908594244 0.1815472633 0.1893237036)
5(0.1980602487 0.2029069188 0.1905317482 0.1810073674 0.1887048273)
5(0.1977320653 0.2025321234 0.190092525 0.1805316581 0.1882104477)
5(0.1973099872 0.2021210423 0.1895151631 0.1797765769 0.1874549248)
5(0.1969581344 0.2016249222 0.188938256 0.1790650491 0.1865452959)
5(0.1964219919 0.2010785346 0.1882388016 0.1783008564 0.1858591869)
5(0.1956862203 0.2003977856 0.1873006008 0.1773051285 0.1851184064)
5(0.194977539 0.199633651 0.186473719 0.1763711585 0.1840846421)
5(0.1940748888 0.1988935574 0.1855651275 0.1751384516 0.1828588741)
5(0.192952955 0.1979357065 0.1846458884 0.173953384 0.1815334492)
5(0.1920736094 0.1968823363 0.1834322124 0.1726534845 0.1801336076)
5(0.1910345826 0.1957796033 0.1820935228 0.1713633673 0.1790643131)
5(0.1896335331 0.1944681572 0.1807975385 0.1698773783 0.1774624608)
5(0.1881877396 0.1930914275 0.1793809996 0.1684497879 0.176132692)
5(0.1866409866 0.1915244051 0.177895115 0.1669748297 0.174567253)
5(0.1850087769 0.1899721851 0.1762947027 0.1653102121 0.1729666122)
5(0.183220114 0.1882477955 0.1746411677 0.1636579138 0.1713089692)
5(0.1814553225 0.1865138794 0.172921604 0.1619827729 0.169694774)
5(0.1793938091 0.1845889263 0.1712127768 0.160298599 0.167955688)
5(0.1774869072 0.1827623047 0.1694031903 0.1587086291 0.1666485798)
5(0.1754001146 0.1807671111 0.1676407219 0.1572342289 0.1653211215)
5(0.1731284631 0.1787876934 0.1661332426 0.155741046 0.1636625305)
5(0.17126707 0.1768799533 0.164443077 0.1541349149 0.1618765123)
5(0.1690960515 0.174882365 0.1630106327 0.1524311602 0.1595097334)
5(0.1677378559 0.1732886514 0.1613014365 0.1504992737 0.1572351213)
5(0.1659328395 0.1716505375 0.1597412512 0.1487391641 0.1553640612)
5(0.1641058352 0.1702760164 0.1583902767 0.1473395071 0.1543446584)
5(0.1631026198 0.1690323377 0.1568492302 0.1463027268 0.1538690488)
5(0.1624309009 0.1680571113 0.1555843204 0.1455169724 0.1535486258)
5(0.1619186136 0.1670929826 0.1546442765 0.1451654809 0.1533097602)
5(0.1614865854 0.1662555562 0.1540818856 0.1451466011 0.1531539581)
5(0.1612182174 0.1655043923 0.1536563495 0.1455070071 0.1534918824)
5(0.1614084559 0.1651273168 0.1535266105 0.1461486969 0.1540903505)
5(0.1613568608 0.164816889 0.1537223502 0.1470524228 0.1549370623)
5(0.161655514 0.1647046426 0.1542100312 0.1484020145 0.1561377378)
5(0.1619671374 0.1647041079 0.1548139889 0.1497134258 0.1572399523)
5(0.1622758702 0.1648630858 0.155688241 0.1515405968 0.1591550131)
5(0.1632694261 0.1652841622 0.1566884116 0.1533669947 0.1606560643)
5(0.1641878779 0.1658019713 0.157877885 0.1553089166 0.1622781278)
5(0.1653381921 0.1666637036 0.1591511747 0.1569880594 0.1636629845)
5(0.1670768485 0.1676164184 0.1602267006 0.1584654951 0.1646335773)
5(0.1697138688 0.1691078206 0.1611522351 0.1592918036 0.1647809095)
5(0.1857937576 0.1461492401 0.1485244105 0.1975184322 0.2044927659)
)


60
(
5(0.1821506053 0.2156467143 0.2103621172 0.1947186431 0.2178558751)
5(0.1974049287 0.2103177514 0.2014611461 0.1906828837 0.2016740494)
5(0.2046958417 0.2083060015 0.1975716752 0.1881417628 0.1930563366)
5(0.2067327325 0.2085361468 0.1967220498 0.1871595939 0.1912146495)
5(0.2052419049 0.2090564135 0.1970112894 0.1874745783 0.1937974998)
5(0.2030835264 0.2090060146 0.1971997587 0.1880546346 0.1966382545)
5(0.2019562829 0.208660884 0.1972003213 0.1881517004 0.1972682433)
5(0.2020393169 0.2083373118 0.1968462537 0.1878314605 0.1966057202)
5(0.2021818192 0.2079603846 0.196469067 0.1873991901 0.1955991963)
5(0.2021583678 0.2076523492 0.1961876269 0.187332375 0.1954358268)
5(0.2020404192 0.2075722237 0.1959989114 0.1870688551 0.1952439156)
5(0.2016853588 0.2074175841 0.1958088401 0.1868129751 0.1951580794)
5(0.201349099 0.2071798948 0.1955237266 0.1864687082 0.1949006536)
5(0.20116239 0.2069457337 0.1952125226 0.1860932013 0.1944904349)
5(0.2008925391 0.2067033577 0.1948501944 0.1856291403 0.1940720682)
5(0.2007437808 0.2064521776 0.1944830285 0.1851748181 0.1935441536)
5(0.2002392301 0.2061112982 0.1941366597 0.1846425493 0.1929951455)
5(0.1998827073 0.2057236151 0.1937002372 0.1840513137 0.1922666758)
5(0.1994818826 0.205361305 0.1931756476 0.1833823786 0.1916541894)
5(0.1989914651 0.2048574582 0.1926334843 0.1827221305 0.1909007438)
5(0.1986527301 0.2043951969 0.1919579012 0.1819934983 0.190208858)
5(0.1979714227 0.2036738426 0.1911667359 0.1811478482 0.1893384871)
5(0.1973556396 0.2030483033 0.1903925145 0.1801962165 0.1883483711)
5(0.1965839968 0.2022814564 0.1894736372 0.1791859959 0.1874036332)
5(0.1957796816 0.201467794 0.1885042773 0.1780973902 0.1863421321)
5(0.1947499496 0.2004578922 0.1874755686 0.176916933 0.1850485635)
5(0.1935938355 0.1993551722 0.1863752664 0.175772071 0.1839101183)
5(0.192680132 0.1983089167 0.1851552549 0.1744179212 0.1824630342)
5(0.1911857169 0.1969440114 0.1838324918 0.1731206595 0.1812786412)
5(0.1898260947 0.1956262641 0.1825056197 0.1716535477 0.1797222895)
5(0.1883782022 0.1941445257 0.1809753825 0.1702395518 0.1784391876)
5(0.1867095093 0.1925366409 0.1794580802 0.1687835585 0.1770147292)
5(0.1848871536 0.19091423 0.1779467945 0.1672240121 0.1754957415)
5(0.1832231486 0.1891852257 0.176271951 0.1656688903 0.1739411815)
5(0.1813543705 0.1873447198 0.1746402889 0.1642084683 0.172471428)
5(0.1797625443 0.1857181768 0.1729668006 0.1626899283 0.1711200648)
5(0.1777608537 0.1838529292 0.1713337881 0.1612692785 0.1698159856)
5(0.1756876096 0.1819227718 0.1697475849 0.1600049638 0.1686726919)
5(0.1737843525 0.1800876378 0.1682400092 0.1587688543 0.1674486134)
5(0.1718085995 0.1782602146 0.1668435863 0.1575682482 0.1661611536)
5(0.1701738168 0.1766546722 0.1654755005 0.1563836885 0.1649519033)
5(0.1685330789 0.1750476949 0.1642385051 0.1553635051 0.1638123109)
5(0.167043345 0.1736382763 0.1631520809 0.1545959935 0.1631210328)
5(0.1658066059 0.1724177709 0.1622428505 0.154092362 0.162727959)
5(0.1646754386 0.171369786 0.1617060601 0.1539959028 0.1626438188)
5(0.1640410647 0.1707086856 0.1613561604 0.1540054138 0.1626748131)
5(0.1638021314 0.1703450078 0.1612888653 0.1542613617 0.1628328769)
5(0.1638709219 0.1703402202 0.1615313189 0.1546427155 0.1630323115)
5(0.1643190731 0.1706636494 0.1619434317 0.1551135488 0.1633484597)
5(0.1656040274 0.1713496847 0.1622688732 0.1555988624 0.1637553206)
5(0.1672897407 0.1722275351 0.1626269748 0.1561507954 0.1642129709)
5(0.1691958337 0.1731585302 0.1629006226 0.1566365152 0.1645930118)
5(0.1708698035 0.173887706 0.1630927111 0.1571512068 0.1650225997)
5(0.1722199769 0.1743032224 0.1631502073 0.1576450618 0.1653761767)
5(0.1729071923 0.1743996376 0.1632794651 0.1582918001 0.1659167529)
5(0.173370321 0.1743458631 0.1633563438 0.1589000515 0.1664088206)
5(0.1739987121 0.1742894269 0.1635286748 0.1595919755 0.1667067429)
5(0.1751734935 0.1746698582 0.1639651253 0.1602325501 0.1667010726)
5(0.1790827183 0.1771778985 0.1658280331 0.1615194382 0.1666558888)
5(0.1914240494 0.1518838904 0.1458528304 0.1994267027 0.2194914762)
)


60
(
5(0.189054128 0.2175974856 0.2118743814 0.1967314571 0.2158549946)
5(0.2007593289 0.2125562154 0.2037702191 0.1932026049 0.2032178735)
5(0.2061941756 0.2109138087 0.200394536 0.1910237421 0.1968918541)
5(0.2074680965 0.2110668039 0.1996619281 0.1902060979 0.195753851)
5(0.2063331764 0.2113677292 0.1997993641 0.190303617 0.1974107878)
5(0.2046437206 0.2112228047 0.1999061957 0.1906813319 0.1993521613)
5(0.203826029 0.2109132549 0.1997125205 0.1906354206 0.199846281)
5(0.203738083 0.21057898 0.1993520075 0.1903143047 0.1993444714)
5(0.2038212431 0.210278645 0.1990214535 0.1899263383 0.1985458165)
5(0.2037943965 0.2099994054 0.1987055793 0.1896847258 0.1981627074)
5(0.2034739343 0.2097537584 0.1984406408 0.1893852839 0.1979228687)
5(0.2032199793 0.209545582 0.1981284644 0.1890903974 0.1977950507)
5(0.2029248473 0.2093120603 0.1978406709 0.188712143 0.1974422175)
5(0.2025769688 0.2090016539 0.1975076608 0.1882121611 0.1968353397)
5(0.2021799237 0.2086686532 0.1971057865 0.1877528046 0.196451419)
5(0.2018701232 0.2083512066 0.1966469919 0.1871749732 0.1958882525)
5(0.2015723563 0.2080122398 0.196195581 0.1865955111 0.1952519835)
5(0.2010204146 0.2075061118 0.1956379339 0.1859926089 0.1947011591)
5(0.2006613219 0.2070782906 0.1950617476 0.1852477716 0.1938673073)
5(0.2000538909 0.2064647102 0.1944013636 0.1845469233 0.1931666491)
5(0.1994080063 0.2058836801 0.1937540314 0.1836838274 0.1922189459)
5(0.1989360971 0.2052363829 0.1928739205 0.1827497431 0.1912883139)
5(0.198188215 0.2044806368 0.1920442625 0.181797744 0.1902800215)
5(0.1971565679 0.203496597 0.1911272628 0.1808027194 0.1891875394)
5(0.1961760216 0.2026110836 0.1901166429 0.1797084985 0.1882298569)
5(0.1952434827 0.2015930075 0.1889663727 0.1784891334 0.1869880536)
5(0.1941096014 0.2004607266 0.1877912585 0.1772129361 0.1856552069)
5(0.1929049566 0.1992363563 0.1865251553 0.1759499497 0.1844173449)
5(0.191567518 0.1979042326 0.185145279 0.174525655 0.1830016992)
5(0.1901277591 0.1964817559 0.1837594798 0.1731818893 0.1816805718)
5(0.188595694 0.1949664126 0.1822701094 0.1716917134 0.180180339)
5(0.186968539 0.1932939672 0.1807256848 0.17033107 0.1788301658)
5(0.185255929 0.1916906923 0.1791284746 0.1687526193 0.177373745)
5(0.1834969777 0.1899515166 0.1775180283 0.1673005296 0.1759710581)
5(0.1816430058 0.1881399767 0.1758867299 0.1657643829 0.1743922536)
5(0.1797653018 0.1862999953 0.1742468201 0.1644006136 0.1731422759)
5(0.1778454877 0.1843938203 0.1726279088 0.1630865993 0.171859534)
5(0.1759375783 0.1825722992 0.171022875 0.1617366296 0.1706345293)
5(0.1740481631 0.1807272864 0.1694685287 0.1605938465 0.1696570453)
5(0.1721893439 0.1789176007 0.1680052416 0.159451661 0.1685386965)
5(0.1704130839 0.1771934148 0.1666583759 0.1585075176 0.167672029)
5(0.1687612403 0.1755672506 0.1654123538 0.1577727875 0.1670941285)
5(0.1672726994 0.174068462 0.1643611414 0.1573181134 0.1667781686)
5(0.1659902402 0.1727770047 0.1635575271 0.1571560103 0.1667607356)
5(0.1650027188 0.1717677583 0.1630905746 0.1572734731 0.1668985948)
5(0.1643217443 0.1710607381 0.1629777213 0.1577004676 0.1672452245)
5(0.1641718607 0.1709092835 0.1632442665 0.1582964131 0.1677509995)
5(0.16441769 0.1712081393 0.1638584103 0.158987002 0.1682557718)
5(0.1656591088 0.1722242142 0.1647361345 0.1598069513 0.168930953)
5(0.1675125382 0.173637297 0.1657243961 0.1605629845 0.1694392327)
5(0.1703766767 0.1756005354 0.1667334774 0.1612812907 0.1699200207)
5(0.1738462331 0.1778931744 0.1677579247 0.1619019907 0.1702282476)
5(0.1774719501 0.1801485837 0.1685529052 0.1623452306 0.1704098681)
5(0.1806674759 0.1820912376 0.1691942546 0.1626348667 0.1703962233)
5(0.1832466844 0.1836450371 0.1697051896 0.1628632257 0.170359462)
5(0.1853587702 0.1848104862 0.1700221469 0.1630492411 0.1703163906)
5(0.1868771317 0.185729026 0.170547792 0.163167973 0.1698212824)
5(0.1885105871 0.1868301322 0.1713954275 0.1636625947 0.1696840116)
5(0.1918595613 0.189037514 0.1737912695 0.1658027414 0.1702384105)
5(0.1497090534 0.156894036 0.1850827339 0.1914482509 0.1768100527)
)


60
(
5(0.1936967785 0.21929232 0.2134463702 0.1985297828 0.2150546865)
5(0.2032296745 0.2144405588 0.2057473975 0.1953286635 0.204813975)
5(0.207542411 0.2129666482 0.2026629702 0.1933724639 0.1998098728)
5(0.2084003824 0.2130977831 0.2020213866 0.1926065922 0.198965595)
5(0.2073765024 0.2132771952 0.2020647385 0.1926084856 0.2002653821)
5(0.2060061671 0.2130522581 0.2020282546 0.1928541388 0.2017501174)
5(0.2052866214 0.2127595577 0.201809037 0.1927240455 0.2020625109)
5(0.2051616249 0.2124305839 0.201469408 0.1924005989 0.2015619248)
5(0.2051514509 0.212090047 0.2010637899 0.1920040391 0.2009091416)
5(0.2049481545 0.2117903439 0.2007700334 0.1916944839 0.2004814341)
5(0.2046990995 0.2115216412 0.2004198485 0.191349981 0.2002044479)
5(0.2043582347 0.2112709396 0.200135106 0.1909891648 0.1998917622)
5(0.2039579092 0.2109826022 0.1997719354 0.1905241961 0.1995118164)
5(0.2037919253 0.2106944161 0.1993594647 0.1900634126 0.1990048027)
5(0.2033344427 0.2102876018 0.1989062167 0.1894992798 0.198426887)
5(0.2029391323 0.2098300394 0.1984068413 0.188944616 0.197796496)
5(0.2025061275 0.2094437741 0.1978912332 0.1882966209 0.1971921961)
5(0.2020172803 0.2089710808 0.1972604652 0.1875981419 0.1966002346)
5(0.2014938304 0.2084046353 0.196675327 0.1868788271 0.1957224404)
5(0.2008924017 0.2078045087 0.1959820498 0.1860759295 0.1949043751)
5(0.2002427755 0.2071463306 0.1952110423 0.1852138119 0.1940554249)
5(0.1995149578 0.2063698168 0.1943780772 0.1842609771 0.1929904755)
5(0.1987068103 0.2055464933 0.1934593412 0.1832954252 0.1920583444)
5(0.197840094 0.2046610257 0.1924613883 0.1822016134 0.1909624077)
5(0.1968408635 0.2036734784 0.1914086069 0.1810795319 0.1898479435)
5(0.1956575767 0.2025806562 0.1903371382 0.1798809021 0.1885912636)
5(0.1946056747 0.2013788929 0.189040653 0.1786551828 0.1873811705)
5(0.1933573661 0.2001251742 0.1877526822 0.1773522365 0.1860920908)
5(0.1919907838 0.1987796321 0.1863997705 0.1759608533 0.1846906461)
5(0.1905554656 0.1973330065 0.1849611589 0.174545582 0.1832793934)
5(0.1890371081 0.1957714269 0.1834394613 0.1731169048 0.1818606326)
5(0.1874186452 0.1941283712 0.1818479509 0.1715796494 0.1803014943)
5(0.1857208007 0.1924132634 0.1802201716 0.1701618578 0.1789890986)
5(0.1838806611 0.1906362826 0.1785948438 0.1686535001 0.1775092168)
5(0.1820681258 0.1888338847 0.1769362947 0.1671607474 0.1760485489)
5(0.1802162675 0.1869959188 0.1752625054 0.1657038115 0.1746581823)
5(0.1783039122 0.1850828691 0.1735740897 0.1643187515 0.1733511495)
5(0.176387562 0.1831553058 0.1718919008 0.1629783369 0.1720959218)
5(0.1744993964 0.1812407473 0.1702489744 0.1617398227 0.1709637947)
5(0.1726388535 0.1793688561 0.1686851752 0.1605887084 0.1699059251)
5(0.1708438346 0.1775619262 0.1671881471 0.1595344575 0.1689726385)
5(0.1691590512 0.1758519054 0.1658091003 0.1587365291 0.1683996172)
5(0.1676928694 0.1742770964 0.1646210708 0.1582615926 0.1681423669)
5(0.1664141458 0.1729063167 0.1636942059 0.1580526569 0.1681153894)
5(0.1654987454 0.171803865 0.1631102313 0.1582153191 0.1683191601)
5(0.1648748827 0.1711219173 0.1629128218 0.1585785993 0.1687005069)
5(0.1646530752 0.1709468343 0.1632102267 0.1592277935 0.1692757269)
5(0.164975992 0.1713497205 0.1639173299 0.1601277845 0.1701443581)
5(0.1661336433 0.172483967 0.1651092847 0.1612272482 0.1710702179)
5(0.1682591075 0.1743761863 0.166648397 0.1623870371 0.1719705453)
5(0.1713734315 0.1769205204 0.1684584153 0.1636501353 0.1728510492)
5(0.1751051695 0.1799897257 0.1705352353 0.1648826485 0.1735691083)
5(0.1794868982 0.1835058228 0.172650622 0.1659299166 0.1740833365)
5(0.1840656337 0.1871753796 0.1748204893 0.1668678299 0.1743798066)
5(0.188632388 0.1907882012 0.1768589878 0.1675949926 0.1744160238)
5(0.1926389055 0.1939897458 0.1786994369 0.1682230106 0.1743877335)
5(0.1963875438 0.1969091477 0.1804477806 0.1688214295 0.1741780494)
5(0.1996047722 0.1991197323 0.1823983663 0.1702771058 0.1743921717)
5(0.2020961972 0.20067454 0.1855787473 0.1739882944 0.176071977)
5(0.1709248448 0.1588080361 0.1793319056 0.1900092816 0.1680459794)
)


60
(
5(0.1971324672 0.2207711163 0.2149173048 0.2001683153 0.2149117864)
5(0.2051652659 0.216052376 0.2075046326 0.1972104683 0.2063511575)
5(0.208643331 0.2146656961 0.2046206291 0.1954178209 0.2022824447)
5(0.2093163686 0.2148019837 0.2040035386 0.1946389475 0.2015584166)
5(0.2084294264 0.2149235803 0.2039764905 0.1945657758 0.2025963048)
5(0.2072204751 0.2146677866 0.2038711727 0.1947268168 0.2038263865)
5(0.2064980981 0.2143100003 0.2036229828 0.1945660643 0.2040080656)
5(0.2063919688 0.2140113758 0.2032397568 0.1941955835 0.2035424362)
5(0.2062667856 0.2136343827 0.2028527171 0.1938006884 0.2028979225)
5(0.2061037169 0.213333877 0.2024737138 0.1934380956 0.2024928007)
5(0.2057626581 0.2130223262 0.2021454617 0.1930670881 0.202125247)
5(0.2054085335 0.2127297044 0.2017768417 0.1926543692 0.2018059302)
5(0.2050472626 0.2124050118 0.201382312 0.1921660218 0.2013301806)
5(0.2046387391 0.2120193583 0.2009452481 0.1916586959 0.2008268731)
5(0.204291295 0.2116276644 0.2004540455 0.1910736801 0.2002033029)
5(0.2038498138 0.2111811503 0.19994427 0.1904814961 0.199586939)
5(0.2034013669 0.2107035596 0.1993446171 0.1897928895 0.1989022971)
5(0.2028706974 0.2101735732 0.1987604745 0.189104871 0.1981652419)
5(0.2022671689 0.2095771189 0.1980714845 0.1883179572 0.1973800142)
5(0.2016667153 0.2089327107 0.1973447792 0.1875020188 0.1965131854)
5(0.200963945 0.2082176088 0.1965625423 0.1866243908 0.1955949694)
5(0.2001747726 0.2074240825 0.1956691974 0.1856487257 0.1946324489)
5(0.1993989943 0.2065691659 0.1947200753 0.1846646628 0.1936285124)
5(0.1984664334 0.2056293431 0.1937044931 0.1835794373 0.1925421414)
5(0.197433032 0.2045978303 0.1926084826 0.1824057466 0.1913571566)
5(0.196382804 0.2034760008 0.1914447058 0.1812260357 0.1901318576)
5(0.1952258949 0.2022887 0.1902245641 0.1799584666 0.18881931)
5(0.193939283 0.2009945156 0.1888968155 0.1786081028 0.1874723228)
5(0.1925501456 0.1995946575 0.1874939547 0.1772246662 0.1861005924)
5(0.19115066 0.1981115136 0.1860265508 0.1758410982 0.1847014618)
5(0.1896220926 0.1965589637 0.1845012098 0.174373145 0.1832397052)
5(0.1879974397 0.1949333802 0.1829212267 0.1728685449 0.1817639573)
5(0.1863145971 0.193215449 0.1812682103 0.1713520846 0.1802840495)
5(0.1845363532 0.1913977611 0.1795758077 0.1698195148 0.1787465832)
5(0.1827255143 0.1895432815 0.1778681112 0.168290028 0.1772048821)
5(0.1808539201 0.1876646133 0.1761249076 0.1667739849 0.1757734612)
5(0.1789585153 0.1857535741 0.1743600318 0.1652910618 0.1744106928)
5(0.1770718507 0.1838124135 0.1726134119 0.1638599579 0.1730460683)
5(0.1752089382 0.1818585294 0.1708737189 0.1624694724 0.1716996276)
5(0.1733909341 0.1799383616 0.1691379002 0.1611754653 0.1705609192)
5(0.1716366883 0.1780810365 0.1674891682 0.1600338793 0.169614807)
5(0.1700539347 0.1763455507 0.165966706 0.1590415972 0.1687869491)
5(0.1686689904 0.1747715768 0.1646007475 0.1583301016 0.1683328715)
5(0.1674385672 0.1733579051 0.163503349 0.1578709602 0.1680124655)
5(0.1665128886 0.1721917646 0.1627391212 0.1577810593 0.1679545169)
5(0.1659434671 0.1714464504 0.1623762176 0.1579747191 0.1681464367)
5(0.1656402931 0.1711872599 0.1625352446 0.1584605112 0.1685847597)
5(0.1658755563 0.1715228774 0.163268789 0.1593838532 0.1694003269)
5(0.1666384439 0.1725597708 0.1645421096 0.1605407598 0.170478398)
5(0.1682137361 0.1741938206 0.1663223425 0.1621106859 0.1717505918)
5(0.170753374 0.1765737271 0.1686356626 0.1639674717 0.1730576985)
5(0.1740502978 0.1795792938 0.1714403534 0.1661775104 0.1745826039)
5(0.1775656461 0.1831643257 0.1748495004 0.1684641296 0.1759922636)
5(0.1814837525 0.1871348265 0.1786229528 0.1708285214 0.1771970376)
5(0.185754113 0.1914060696 0.182537189 0.1731171946 0.1782180375)
5(0.1898882374 0.195793876 0.1866157947 0.1752894272 0.1790467796)
5(0.1940312451 0.1999405152 0.1904409505 0.1775989904 0.180165865)
5(0.1979089615 0.2031942357 0.1938637744 0.18052867 0.181809301)
5(0.2011309385 0.2037030033 0.1958405111 0.1859460766 0.1864861992)
5(0.1651981245 0.1671579988 0.1869661927 0.1955428316 0.1862711508)
)


60
(
5(0.1998595073 0.2220930252 0.2162915557 0.2016336927 0.2150108174)
5(0.206740141 0.2174567651 0.2090776817 0.1988703377 0.2077587011)
5(0.2096522514 0.2161501906 0.2063253746 0.1971872171 0.2043718148)
5(0.2102012398 0.2162966866 0.2057453312 0.196456047 0.2038135652)
5(0.2093715609 0.2163551575 0.2056543943 0.1963112078 0.2046523811)
5(0.2082605317 0.2160538872 0.2055124328 0.1963884381 0.2055992531)
5(0.2075928981 0.2156860078 0.2052154855 0.1962212757 0.2057906978)
5(0.207443581 0.2153851202 0.2048398065 0.1957980348 0.205243116)
5(0.2072490281 0.214975333 0.2044118414 0.1954107823 0.2046995196)
5(0.2070696457 0.2146778637 0.2040371517 0.1949964258 0.2042046299)
5(0.2066971738 0.2143200814 0.2036528807 0.19461318 0.2038635877)
5(0.206379232 0.2140280414 0.2032580522 0.1941473671 0.2034554806)
5(0.2059298884 0.2136352838 0.2028334628 0.1936582404 0.2029902344)
5(0.2055937508 0.213257709 0.2023478369 0.1930944598 0.202414913)
5(0.2051391906 0.2128016326 0.2018430871 0.1925161302 0.2018101606)
5(0.2047011266 0.2123297474 0.2012828254 0.1918804193 0.2011535561)
5(0.2041917516 0.2118211976 0.2006916253 0.1912011514 0.2004696957)
5(0.2036040714 0.2112297598 0.200057705 0.1904716067 0.1996832518)
5(0.2030563283 0.2106388896 0.1993447894 0.1896847184 0.1989013089)
5(0.2023518595 0.2099337604 0.1986121437 0.1888457052 0.1979827842)
5(0.2017064117 0.2092216757 0.1977618548 0.1879494871 0.1971122044)
5(0.2008909591 0.2083908057 0.1968899812 0.1869877429 0.1960861757)
5(0.1999805696 0.2074802772 0.1959303798 0.1859702214 0.1950596679)
5(0.1991256022 0.2065522235 0.1948839495 0.1848745546 0.1939600553)
5(0.1980995982 0.2054996288 0.19379845 0.1837323103 0.1927673801)
5(0.1969629925 0.204359187 0.1926061007 0.182524421 0.1915920221)
5(0.1958746383 0.2031717925 0.1913422106 0.1812356128 0.1902557511)
5(0.1945809173 0.2018598079 0.1900601675 0.179921868 0.1888620996)
5(0.1931986322 0.2004547197 0.1886498093 0.1785488921 0.1875089729)
5(0.1918314091 0.1989998321 0.1871557165 0.1770965399 0.1860499021)
5(0.1903107563 0.1974456494 0.185649957 0.1756240162 0.1845286609)
5(0.1886871612 0.1957990979 0.1840678427 0.1741125686 0.1830004864)
5(0.1870049936 0.1940831729 0.1823900486 0.1725537714 0.1814887977)
5(0.1853190725 0.1923022979 0.1806926234 0.1710084936 0.1799172636)
5(0.1835662039 0.190478492 0.1789694005 0.1694406333 0.1783332458)
5(0.1817749514 0.1886185236 0.1771858633 0.1678793833 0.1768491357)
5(0.179976607 0.1867338061 0.1753613186 0.1662717157 0.1753117993)
5(0.1781717816 0.1847950558 0.173558168 0.164754612 0.1738112179)
5(0.1763997472 0.1828802339 0.1717694127 0.1632797811 0.1723814573)
5(0.1746669814 0.180996047 0.1699719848 0.1618061569 0.1709934569)
5(0.173038834 0.1791999649 0.1682511769 0.1604750676 0.1698088772)
5(0.1715248862 0.1774933711 0.1666319931 0.1593307101 0.1688592901)
5(0.1702237476 0.1759201339 0.1651764475 0.1583719158 0.1680074569)
5(0.1692154331 0.1746069272 0.1639576594 0.1576737275 0.1674305575)
5(0.1684298055 0.1735406096 0.1630816908 0.1572356972 0.1669594263)
5(0.1679016373 0.1728018434 0.1625970011 0.1571474763 0.166803)
5(0.1675511484 0.1724773121 0.1626395372 0.1574154205 0.1669552424)
5(0.1673915261 0.1726006807 0.1632732503 0.1581389223 0.1675411793)
5(0.1678009568 0.1732943099 0.1644572773 0.1593665653 0.168606239)
5(0.1687228004 0.1744755969 0.1661908798 0.1611100052 0.1700666444)
5(0.1705195205 0.1762195617 0.1684307031 0.1634573555 0.1719729077)
5(0.1728935385 0.1784950856 0.1713369872 0.1663934455 0.1742095492)
5(0.175045717 0.18102906 0.174827559 0.1699146653 0.1771866154)
5(0.177600564 0.1838054744 0.1790353258 0.173987336 0.1799144053)
5(0.1800724872 0.1871264442 0.183708026 0.178213166 0.1831906811)
5(0.1826858759 0.1906873486 0.1887674613 0.1826769912 0.186507881)
5(0.1850566782 0.1939934537 0.1938039829 0.1873464495 0.1900151623)
5(0.187343673 0.1966182665 0.1980463577 0.1921284802 0.1940571051)
5(0.1891783239 0.1963597748 0.199993842 0.1979508119 0.1994551655)
5(0.1661316186 0.1566211104 0.1704016062 0.1843135599 0.1749345095)
)


60
(
5(0.2020514643 0.2232702411 0.2175992344 0.2029857344 0.2152620177)
5(0.2081550554 0.2187418552 0.210495672 0.2003941374 0.2091255859)
5(0.2106742329 0.2174949395 0.2078371882 0.1988022669 0.2062458035)
5(0.2110181145 0.217622668 0.2072825224 0.1980559568 0.2057740904)
5(0.2101687671 0.2176258532 0.2071956218 0.1978749475 0.2064415905)
5(0.209239877 0.2172805036 0.2069485238 0.197934273 0.2072926286)
5(0.2086100422 0.2169481145 0.2066600338 0.1976851467 0.2073364126)
5(0.2083925022 0.216586885 0.2062426055 0.197292685 0.2068814267)
5(0.2082270207 0.2162328002 0.205831217 0.196843455 0.2062630558)
5(0.2079340825 0.2158396476 0.2054108371 0.1964673037 0.205858146)
5(0.207612843 0.215526254 0.2050310191 0.1960009772 0.2053795813)