/*--------------------------------*- C++ -*----------------------------------*\
| =========                 |                                                 |
| \\      /  F ield         | OpenFOAM: The Open Source CFD Toolbox           |
|  \\    /   O peration     | Version:  2.3.1                                 |
|   \\  /    A nd           | Web:      www.OpenFOAM.org                      |
|    \\/     M anipulation  |                                                 |
\*---------------------------------------------------------------------------*/
FoamFile
{
    version     2.0;
    format      ascii;
    class       dictionary;
    location    "constant";
    object      GRPSI41;
}
// * * * * * * * * * * * * * * * * * * * * * * * * * * * * * * * * * * * * * //

GRPSI41_table
60
(

60
(
5(1.560733914e-10 1.623334098e-10 4.86121873e-10 7.359427604e-10 3.303421285e-09)
5(1.461856973e-10 2.153753541e-10 3.441739581e-10 5.842129035e-10 1.507255339e-09)
5(-3.247862045e-09 2.416001227e-10 3.297376932e-10 6.221034104e-10 1.098103682e-09)
5(-1.01873444e-08 2.973813227e-10 3.966077437e-10 8.246924298e-10 1.342532655e-09)
5(-1.242941833e-08 3.950682269e-10 5.868830559e-10 1.207450266e-09 2.281041676e-09)
5(-9.66063644e-09 5.370271271e-10 9.119431816e-10 1.816747408e-09 3.908601561e-09)
5(4.118571273e-10 7.254952658e-10 1.274273194e-09 2.576506359e-09 5.696275333e-09)
5(5.559000192e-10 9.718520073e-10 1.700220148e-09 3.494983064e-09 7.658371551e-09)
5(-1.132896634e-08 1.295656633e-09 2.251605848e-09 4.665208196e-09 9.895298498e-09)
5(-1.909617001e-08 1.68391921e-09 2.974506836e-09 6.175272343e-09 1.300196035e-08)
5(-2.08251008e-08 2.217401764e-09 3.983813636e-09 8.091595672e-09 1.676044537e-08)
5(-5.803017432e-09 3.025453489e-09 5.310743902e-09 1.047787441e-08 2.124235329e-08)
5(2.172406847e-09 3.961815897e-09 6.944613782e-09 1.332043981e-08 2.655324281e-08)
5(2.84369709e-09 5.142877069e-09 8.920860096e-09 1.666122023e-08 3.220089097e-08)
5(3.736835695e-09 6.639064227e-09 1.131537388e-08 2.045713148e-08 3.833139129e-08)
5(4.105045498e-09 8.317537332e-09 1.409277939e-08 2.474814261e-08 4.488225828e-08)
5(5.627955698e-09 1.062867944e-08 1.747004709e-08 2.965819358e-08 5.175645678e-08)
5(7.889666183e-09 1.351201871e-08 2.163217234e-08 3.515597031e-08 5.874227636e-08)
5(1.052536671e-08 1.709963781e-08 2.647655861e-08 4.137471619e-08 6.595003837e-08)
5(1.351365392e-08 2.148504505e-08 3.219532159e-08 4.83402554e-08 7.333547534e-08)
5(1.74149289e-08 2.702721677e-08 3.923669489e-08 5.654026265e-08 8.172315556e-08)
5(2.245003949e-08 3.39988831e-08 4.774944825e-08 6.648326345e-08 9.112978984e-08)
5(2.880735405e-08 4.289977877e-08 5.851803604e-08 7.822942119e-08 1.019899258e-07)
5(3.714879638e-08 5.445882352e-08 7.240280671e-08 9.358676822e-08 1.16268798e-07)
5(4.838313162e-08 6.954384964e-08 9.04970998e-08 1.136704677e-07 1.351483936e-07)
5(6.326377706e-08 8.982925046e-08 1.147266157e-07 1.409369921e-07 1.613895662e-07)
5(8.385619723e-08 1.18917454e-07 1.489853875e-07 1.78950237e-07 1.980158653e-07)
5(1.124732206e-07 1.601156958e-07 1.959902875e-07 2.320892073e-07 2.492731422e-07)
5(1.524509309e-07 2.166642236e-07 2.633166891e-07 3.071683337e-07 3.207534282e-07)
5(2.090873607e-07 2.961948791e-07 3.580309017e-07 4.129395103e-07 4.211496519e-07)
5(2.904086312e-07 4.086402902e-07 4.895484535e-07 5.559571386e-07 5.557485072e-07)
5(4.067873517e-07 5.68449074e-07 6.744173614e-07 7.550910634e-07 7.406247908e-07)
5(5.716846647e-07 7.860190938e-07 9.220432939e-07 1.013329997e-06 9.671187234e-07)
5(8.001037945e-07 1.07974249e-06 1.24628665e-06 1.346224141e-06 1.259987129e-06)
5(1.114680954e-06 1.474419079e-06 1.672370447e-06 1.752214492e-06 1.594131376e-06)
5(1.536789358e-06 1.965678632e-06 2.174864911e-06 2.224775695e-06 1.960993757e-06)
5(2.088350369e-06 2.602948398e-06 2.83098006e-06 2.760037017e-06 2.335760402e-06)
5(2.776507699e-06 3.320493511e-06 3.520574385e-06 3.283670294e-06 2.701709529e-06)
5(3.595738771e-06 4.128573381e-06 4.208854995e-06 3.769350382e-06 2.910702784e-06)
5(4.501814348e-06 4.956804752e-06 4.825969526e-06 4.106456168e-06 2.987605537e-06)
5(5.477558549e-06 5.733520233e-06 5.33911754e-06 4.241711559e-06 2.795531587e-06)
5(6.404258486e-06 6.322036779e-06 5.575047775e-06 4.090772686e-06 2.395670374e-06)
5(7.13290643e-06 6.615769875e-06 5.475397301e-06 3.651217121e-06 1.872672994e-06)
5(7.513173431e-06 6.432793545e-06 4.924371213e-06 2.92612715e-06 1.323959783e-06)
5(7.41677178e-06 5.872460363e-06 4.141509096e-06 2.104568045e-06 8.367973922e-07)
5(6.834892328e-06 4.911576335e-06 3.145344856e-06 1.34486375e-06 4.631722691e-07)
5(5.774820495e-06 3.747452767e-06 2.089726564e-06 7.583983402e-07 2.2308313e-07)
5(4.3667004e-06 2.55297086e-06 1.203315059e-06 3.731098054e-07 9.495286496e-08)
5(2.973000429e-06 1.500951658e-06 5.921895712e-07 1.594188597e-07 3.822687093e-08)
5(1.731992932e-06 7.464709846e-07 2.504164054e-07 6.084920427e-08 1.724832574e-08)
5(8.557692724e-07 3.085636339e-07 9.135355928e-08 2.432301174e-08 1.027974832e-08)
5(3.398770269e-07 1.081530015e-07 3.329609507e-08 1.25180527e-08 8.101676739e-09)
5(1.165050652e-07 3.671321989e-08 1.560833673e-08 8.968853402e-09 7.483953574e-09)
5(3.565089693e-08 1.5800253e-08 1.04226036e-08 7.81934466e-09 7.309213122e-09)
5(1.509836586e-08 1.045601869e-08 8.695672534e-09 7.416963363e-09 7.452509127e-09)
5(9.666665809e-09 8.415875651e-09 7.802182849e-09 7.315634468e-09 7.814443175e-09)
5(7.150930691e-09 7.151852457e-09 7.211431398e-09 7.40933477e-09 8.428601207e-09)
5(5.354476828e-09 6.121763354e-09 6.785791145e-09 7.687975251e-09 9.298389939e-09)
5(4.117562278e-09 5.252220184e-09 6.314499909e-09 8.533201107e-09 1.060001866e-08)
5(3.081928404e-09 4.576008946e-09 6.006839509e-09 8.093799759e-09 1.087520835e-08)
)


60
(
5(2.091558822e-10 2.26754512e-10 7.343517397e-10 1.337253821e-09 5.553719139e-09)
5(2.120828318e-10 3.01786973e-10 5.853774516e-10 1.202992139e-09 3.417103601e-09)
5(-1.468914433e-09 3.805886352e-10 6.133248008e-10 1.376507811e-09 3.088865313e-09)
5(-4.90022035e-09 4.998188436e-10 8.009554582e-10 1.859807864e-09 4.005773833e-09)
5(-5.955654809e-09 6.831991299e-10 1.183860996e-09 2.692595542e-09 5.995698519e-09)
5(-4.465965256e-09 9.473777869e-10 1.771958201e-09 3.881577193e-09 9.06417291e-09)
5(7.086373619e-10 1.29960568e-09 2.486517817e-09 5.350313052e-09 1.243201783e-08)
5(9.566150269e-10 1.759329386e-09 3.338910104e-09 7.122862864e-09 1.614864147e-08)
5(-4.767048924e-09 2.358138264e-09 4.408797543e-09 9.300984939e-09 2.046328906e-08)
5(-8.342251404e-09 3.117698815e-09 5.786268184e-09 1.201971254e-08 2.564653459e-08)
5(-8.808471504e-09 4.112147784e-09 7.57825028e-09 1.534476115e-08 3.199689278e-08)
5(-7.508754239e-10 5.429354359e-09 9.828414444e-09 1.931732479e-08 3.934859257e-08)
5(3.896771133e-09 7.024269506e-09 1.255167219e-08 2.389083781e-08 4.733468124e-08)
5(5.078197272e-09 9.000972954e-09 1.577900178e-08 2.910621768e-08 5.576343437e-08)
5(6.603443516e-09 1.144013239e-08 1.960090668e-08 3.489969073e-08 6.465759148e-08)
5(8.210345607e-09 1.434136876e-08 2.40327643e-08 4.130374068e-08 7.37144186e-08)
5(1.059955891e-08 1.796580946e-08 2.921476379e-08 4.831895012e-08 8.276146727e-08)
5(1.380923801e-08 2.236184348e-08 3.525252675e-08 5.593219947e-08 9.193640206e-08)
5(1.772898023e-08 2.764671411e-08 4.216776612e-08 6.423716538e-08 1.00960851e-07)
5(2.240728316e-08 3.398235968e-08 5.012325036e-08 7.328405798e-08 1.099869362e-07)
5(2.834089843e-08 4.161477882e-08 5.941607679e-08 8.339543451e-08 1.192449338e-07)
5(3.552029493e-08 5.085540679e-08 7.024848654e-08 9.500498433e-08 1.298504237e-07)
5(4.443765156e-08 6.212137949e-08 8.317060134e-08 1.083449311e-07 1.4163587e-07)
5(5.573627143e-08 7.596221995e-08 9.889681514e-08 1.246856993e-07 1.562721773e-07)
5(6.978560292e-08 9.316407222e-08 1.184790256e-07 1.452154076e-07 1.750457564e-07)
5(8.742414746e-08 1.149668939e-07 1.434360584e-07 1.720689902e-07 2.005738895e-07)
5(1.101647121e-07 1.438269647e-07 1.76497489e-07 2.076098573e-07 2.350451075e-07)
5(1.401913381e-07 1.820651063e-07 2.199431817e-07 2.560383006e-07 2.8272891e-07)
5(1.784641317e-07 2.327943658e-07 2.796498667e-07 3.225659808e-07 3.490551253e-07)
5(2.311838737e-07 3.014854431e-07 3.61763304e-07 4.149067058e-07 4.419732201e-07)
5(3.013664502e-07 3.957479736e-07 4.735244946e-07 5.397262193e-07 5.653011501e-07)
5(3.984795824e-07 5.264672414e-07 6.285157538e-07 7.119953376e-07 7.357599455e-07)
5(5.327407454e-07 7.035778725e-07 8.370447171e-07 9.394540167e-07 9.494668876e-07)
5(7.163129401e-07 9.422291752e-07 1.113321933e-06 1.233659488e-06 1.231189417e-06)
5(9.644877051e-07 1.26128252e-06 1.475698036e-06 1.603268488e-06 1.563831503e-06)
5(1.298723963e-06 1.668253778e-06 1.920163285e-06 2.049773537e-06 1.950522721e-06)
5(1.738673927e-06 2.193687451e-06 2.491160773e-06 2.573028099e-06 2.376140972e-06)
5(2.280986445e-06 2.812166678e-06 3.129099126e-06 3.129489949e-06 2.813325616e-06)
5(2.952921938e-06 3.537519418e-06 3.810252292e-06 3.692163334e-06 3.169850883e-06)
5(3.716267058e-06 4.313149299e-06 4.488190292e-06 4.180508553e-06 3.428981727e-06)
5(4.562016993e-06 5.101079996e-06 5.121545013e-06 4.527206407e-06 3.470317689e-06)
5(5.432242223e-06 5.791575984e-06 5.560495944e-06 4.64150463e-06 3.292005019e-06)
5(6.199140563e-06 6.288943231e-06 5.733436943e-06 4.469928519e-06 2.910982923e-06)
5(6.743922768e-06 6.448160417e-06 5.526500698e-06 3.97638953e-06 2.38009042e-06)
5(6.962963219e-06 6.231914407e-06 5.002991676e-06 3.254995533e-06 1.782155245e-06)
5(6.770596207e-06 5.606274816e-06 4.164903154e-06 2.42950291e-06 1.203166098e-06)
5(6.10963479e-06 4.663629511e-06 3.12681161e-06 1.633167123e-06 7.268711552e-07)
5(5.05366986e-06 3.520772044e-06 2.0946381e-06 9.782787488e-07 3.867416902e-07)
5(3.803277711e-06 2.360135695e-06 1.231725155e-06 5.172996413e-07 1.834073227e-07)
5(2.530311476e-06 1.381312805e-06 6.300329435e-07 2.383171217e-07 8.079829893e-08)
5(1.46087487e-06 6.885963409e-07 2.783025319e-07 1.009072982e-07 3.711437322e-08)
5(7.028754453e-07 2.889053811e-07 1.092671807e-07 4.315568568e-08 2.176454008e-08)
5(2.772380697e-07 1.068023374e-07 4.48153544e-08 2.354988642e-08 1.657463581e-08)
5(9.306253075e-08 4.175143037e-08 2.436751376e-08 1.738391731e-08 1.485371295e-08)
5(3.582244871e-08 2.329502778e-08 1.846634889e-08 1.530717496e-08 1.415945773e-08)
5(2.106643477e-08 1.789345086e-08 1.601319891e-08 1.430173934e-08 1.398469005e-08)
5(1.621289938e-08 1.5200134e-08 1.442342062e-08 1.373875611e-08 1.415714913e-08)
5(1.310857704e-08 1.313499398e-08 1.319501426e-08 1.350747593e-08 1.469385794e-08)
5(1.066048134e-08 1.130741675e-08 1.220685767e-08 1.368280806e-08 1.565831778e-08)
5(8.664504081e-09 1.021424199e-08 1.201519855e-08 1.434330485e-08 1.701248987e-08)
)


60
(
5(3.356879108e-10 3.991554286e-10 1.361691091e-09 2.928046136e-09 1.097340953e-08)
5(3.78116014e-10 5.584157842e-10 1.23806511e-09 2.890648633e-09 8.454196385e-09)
5(4.45837463e-10 7.688121203e-10 1.414409621e-09 3.444060174e-09 8.586559368e-09)
5(5.644826526e-10 1.05078031e-09 1.920089264e-09 4.615507159e-09 1.089974986e-08)
5(7.691909808e-10 1.456113754e-09 2.788058357e-09 6.452347201e-09 1.522851379e-08)
5(1.085340992e-09 2.028524827e-09 4.013102078e-09 8.929063968e-09 2.120141555e-08)
5(1.495555183e-09 2.783759982e-09 5.537763375e-09 1.196948825e-08 2.780262572e-08)
5(2.010974607e-09 3.762122465e-09 7.373746495e-09 1.558094504e-08 3.494313421e-08)
5(2.682860398e-09 5.019995661e-09 9.62331844e-09 1.990264475e-08 4.319821962e-08)
5(3.590991139e-09 6.633286053e-09 1.245708143e-08 2.512578466e-08 5.278187528e-08)
5(4.761747303e-09 8.6754542e-09 1.598277781e-08 3.132800219e-08 6.402089807e-08)
5(6.300649995e-09 1.122694062e-08 2.02971105e-08 3.851121916e-08 7.635563388e-08)
5(8.264388397e-09 1.437602485e-08 2.544647028e-08 4.662846053e-08 8.944890176e-08)
5(1.067632699e-08 1.822559313e-08 3.14496766e-08 5.565704367e-08 1.032260859e-07)
5(1.373467206e-08 2.288903523e-08 3.841371245e-08 6.555455653e-08 1.168734646e-07)
5(1.758389547e-08 2.848432851e-08 4.643736824e-08 7.630477466e-08 1.307035432e-07)
5(2.241992043e-08 3.521428402e-08 5.564617715e-08 8.785979918e-08 1.442641187e-07)
5(2.820822147e-08 4.324347984e-08 6.61376836e-08 1.001969937e-07 1.574745305e-07)
5(3.566044603e-08 5.269187054e-08 7.793781711e-08 1.134095701e-07 1.70627163e-07)
5(4.430718394e-08 6.385132542e-08 9.126617762e-08 1.274262525e-07 1.83321981e-07)
5(5.507196458e-08 7.699760226e-08 1.062093439e-07 1.424393938e-07 1.960131899e-07)
5(6.867007565e-08 9.221249606e-08 1.230309605e-07 1.58791173e-07 2.102199396e-07)
5(8.458296939e-08 1.100080486e-07 1.422671972e-07 1.768322821e-07 2.250801986e-07)
5(1.023126618e-07 1.307628699e-07 1.642524833e-07 1.972100856e-07 2.424902683e-07)
5(1.245705991e-07 1.54951569e-07 1.893319227e-07 2.210290875e-07 2.623835453e-07)
5(1.506622742e-07 1.829007206e-07 2.186384659e-07 2.493855182e-07 2.883509145e-07)
5(1.813373434e-07 2.155947021e-07 2.535894934e-07 2.841440594e-07 3.218558034e-07)
5(2.172006985e-07 2.54378799e-07 2.957497125e-07 3.276782978e-07 3.649499495e-07)
5(2.597410596e-07 3.011787119e-07 3.479316707e-07 3.836900206e-07 4.237884818e-07)
5(3.105310098e-07 3.585444793e-07 4.142843048e-07 4.570635457e-07 5.014404793e-07)
5(3.71157091e-07 4.301687875e-07 5.00064743e-07 5.547791041e-07 6.095350281e-07)
5(4.462231979e-07 5.218424327e-07 6.132674015e-07 6.860347156e-07 7.536378018e-07)
5(5.403193018e-07 6.41123114e-07 7.632493628e-07 8.62741458e-07 9.461859027e-07)
5(6.600718285e-07 7.989110787e-07 9.631050489e-07 1.095126877e-06 1.197597827e-06)
5(8.153057799e-07 1.006884665e-06 1.226863182e-06 1.401454158e-06 1.525976461e-06)
5(1.015950607e-06 1.28158707e-06 1.569829782e-06 1.794465803e-06 1.922884041e-06)
5(1.276954965e-06 1.636466493e-06 2.009379972e-06 2.281609991e-06 2.404164576e-06)
5(1.622031917e-06 2.091611261e-06 2.552625801e-06 2.86265436e-06 2.950902417e-06)
5(2.055411535e-06 2.659093686e-06 3.203692072e-06 3.520854767e-06 3.521752909e-06)
5(2.593083813e-06 3.331068701e-06 3.942696153e-06 4.216872571e-06 4.067355162e-06)
5(3.248812782e-06 4.110798288e-06 4.726601092e-06 4.884899222e-06 4.490641516e-06)
5(3.996152424e-06 4.929753505e-06 5.470649281e-06 5.427206704e-06 4.724135463e-06)
5(4.812792559e-06 5.725329707e-06 6.081035425e-06 5.734066366e-06 4.670898146e-06)
5(5.616332854e-06 6.390122426e-06 6.432846501e-06 5.698318942e-06 4.317673765e-06)
5(6.326327433e-06 6.777234488e-06 6.413969673e-06 5.276955928e-06 3.687380547e-06)
5(6.7926353e-06 6.777250772e-06 5.958026795e-06 4.499960681e-06 2.864745737e-06)
5(6.878294258e-06 6.32050545e-06 5.086132e-06 3.496141769e-06 2.012867243e-06)
5(6.524066947e-06 5.4353348e-06 3.9343668e-06 2.436137791e-06 1.253409472e-06)
5(5.683236339e-06 4.225756318e-06 2.703647329e-06 1.502067866e-06 6.935423934e-07)
5(4.491748126e-06 2.913139808e-06 1.61315963e-06 8.066582035e-07 3.401842984e-07)
5(3.148900771e-06 1.735413376e-06 8.348202148e-07 3.834567427e-07 1.550450972e-07)
5(1.902095241e-06 8.662216808e-07 3.731175419e-07 1.643713284e-07 7.349112116e-08)
5(9.387602746e-07 3.671838794e-07 1.517812335e-07 7.549348835e-08 4.453213437e-08)
5(3.797779269e-07 1.407190435e-07 6.856607212e-08 4.511483781e-08 3.4775287e-08)
5(1.376335848e-07 6.298655446e-08 4.379609326e-08 3.552622931e-08 3.114792973e-08)
5(5.783771988e-08 4.189463228e-08 3.617195088e-08 3.175934329e-08 2.937616056e-08)
5(3.891666051e-08 3.511906825e-08 3.211449412e-08 2.947626148e-08 2.835345362e-08)
5(3.260933427e-08 3.073002878e-08 2.90228479e-08 2.785829483e-08 2.792498096e-08)
5(2.769792846e-08 2.816367499e-08 2.66328174e-08 2.763406902e-08 2.810772993e-08)
5(2.366125655e-08 2.499500887e-08 2.492555625e-08 2.954882752e-08 3.249861323e-08)
)


60
(
5(5.050182131e-10 6.621526104e-10 2.254280562e-09 5.283522005e-09 1.800465063e-08)
5(6.188678746e-10 9.74120641e-10 2.24335696e-09 5.481266493e-09 1.575980079e-08)
5(7.731894093e-10 1.372225466e-09 2.680273242e-09 6.577047475e-09 1.672893942e-08)
5(9.999712299e-10 1.88440357e-09 3.629945357e-09 8.616121365e-09 2.058906141e-08)
5(1.367962383e-09 2.598104708e-09 5.140139906e-09 1.161421736e-08 2.731301633e-08)
5(1.917664865e-09 3.590546254e-09 7.174692028e-09 1.5530735e-08 3.601400895e-08)
5(2.635860629e-09 4.87753038e-09 9.682125957e-09 2.02559706e-08 4.572013312e-08)
5(3.544165345e-09 6.529722056e-09 1.270012394e-08 2.584667419e-08 5.609315719e-08)
5(4.723343233e-09 8.622848518e-09 1.634295418e-08 3.243033357e-08 6.789597506e-08)
5(6.26557927e-09 1.126720105e-08 2.084509913e-08 4.020766307e-08 8.140696579e-08)
5(8.262827689e-09 1.458743362e-08 2.637076012e-08 4.92745118e-08 9.682108503e-08)
5(1.085221374e-08 1.869632909e-08 3.303142833e-08 5.966238251e-08 1.132462254e-07)
5(1.408981071e-08 2.374742055e-08 4.088261503e-08 7.132796826e-08 1.307865828e-07)
5(1.826716111e-08 2.987187459e-08 5.002997133e-08 8.424491175e-08 1.486254594e-07)
5(2.323828188e-08 3.72584863e-08 6.058938656e-08 9.840213322e-08 1.669368531e-07)
5(2.939687677e-08 4.608440802e-08 7.274278799e-08 1.138141011e-07 1.853485803e-07)
5(3.736216192e-08 5.665587387e-08 8.663425298e-08 1.304565726e-07 2.037278019e-07)
5(4.691596961e-08 6.922699966e-08 1.024246342e-07 1.482821542e-07 2.216045641e-07)
5(5.864020984e-08 8.405161763e-08 1.20292803e-07 1.67388592e-07 2.395512704e-07)
5(7.295344471e-08 1.015259356e-07 1.404668926e-07 1.878490177e-07 2.577738254e-07)
5(9.014678738e-08 1.218729395e-07 1.6311667e-07 2.09917358e-07 2.763268688e-07)
5(1.107397045e-07 1.454400112e-07 1.88544636e-07 2.3365203e-07 2.961171484e-07)
5(1.352737588e-07 1.725992409e-07 2.169202377e-07 2.595059469e-07 3.165905862e-07)
5(1.6434069e-07 2.037682168e-07 2.485095082e-07 2.877892152e-07 3.402542219e-07)
5(1.982245285e-07 2.391375926e-07 2.837073719e-07 3.191442824e-07 3.656386176e-07)
5(2.363605241e-07 2.788153251e-07 3.230645885e-07 3.540420327e-07 3.961916408e-07)
5(2.800632999e-07 3.219821973e-07 3.668184659e-07 3.940507306e-07 4.319405644e-07)
5(3.296962598e-07 3.706174956e-07 4.156999484e-07 4.398069954e-07 4.751595104e-07)
5(3.859850391e-07 4.245491136e-07 4.708326347e-07 4.941283612e-07 5.301605547e-07)
5(4.458219828e-07 4.847256527e-07 5.344326144e-07 5.594316205e-07 5.990352505e-07)
5(5.133342393e-07 5.524870322e-07 6.101674175e-07 6.408301533e-07 6.918111185e-07)
5(5.869492314e-07 6.290254217e-07 7.012261869e-07 7.461184789e-07 8.168866043e-07)
5(6.674163604e-07 7.204549807e-07 8.156668262e-07 8.8305346e-07 9.757525557e-07)
5(7.584343205e-07 8.328969462e-07 9.635906577e-07 1.066120187e-06 1.190996137e-06)
5(8.671606417e-07 9.7351763e-07 1.154945313e-06 1.308394552e-06 1.477540657e-06)
5(9.982863964e-07 1.15631514e-06 1.409372471e-06 1.627489561e-06 1.845014923e-06)
5(1.157062542e-06 1.397005185e-06 1.747273289e-06 2.04267772e-06 2.309430867e-06)
5(1.373371512e-06 1.715970496e-06 2.188072835e-06 2.572608306e-06 2.879891627e-06)
5(1.648985542e-06 2.138205496e-06 2.753191277e-06 3.219912746e-06 3.540245212e-06)
5(2.021365374e-06 2.684739233e-06 3.439691673e-06 3.973794114e-06 4.243604323e-06)
5(2.512623138e-06 3.371667691e-06 4.245316586e-06 4.798904082e-06 4.935899077e-06)
5(3.131593882e-06 4.18250099e-06 5.132189818e-06 5.612368578e-06 5.519340963e-06)
5(3.904042198e-06 5.099656836e-06 6.01253195e-06 6.303150702e-06 5.858612511e-06)
5(4.801850046e-06 6.041389575e-06 6.772968047e-06 6.735145063e-06 5.88249166e-06)
5(5.763725763e-06 6.886435426e-06 7.250806213e-06 6.772300656e-06 5.518840921e-06)
5(6.686904465e-06 7.485680786e-06 7.334234793e-06 6.350637011e-06 4.796023066e-06)
5(7.446382571e-06 7.668486035e-06 6.894109497e-06 5.496023405e-06 3.799960494e-06)
5(7.849882339e-06 7.34707242e-06 5.936342846e-06 4.326446188e-06 2.714352459e-06)
5(7.722979469e-06 6.468700347e-06 4.623614074e-06 3.046579117e-06 1.722794586e-06)
5(7.024740889e-06 5.142741086e-06 3.195334256e-06 1.901472854e-06 9.586743689e-07)
5(5.796816638e-06 3.613149686e-06 1.921674863e-06 1.029715092e-06 4.763288635e-07)
5(4.266009165e-06 2.178714764e-06 9.876564561e-07 4.902640009e-07 2.23374594e-07)
5(2.70906335e-06 1.127196585e-06 4.380377727e-07 2.13517619e-07 1.091000908e-07)
5(1.433171594e-06 4.934899046e-07 1.823003799e-07 1.039643904e-07 7.028662589e-08)
5(6.023363489e-07 1.920024286e-07 9.248837299e-08 6.832418467e-08 5.696642476e-08)
5(2.386484496e-07 9.214313255e-08 6.664855617e-08 5.749347289e-08 5.184715114e-08)
5(9.769741833e-08 6.588780419e-08 5.795251291e-08 5.244598751e-08 4.89458153e-08)
5(6.309452101e-08 5.735502379e-08 5.256863327e-08 4.891605845e-08 4.704081407e-08)
5(5.367969126e-08 5.240904414e-08 4.840395927e-08 4.701528171e-08 4.624349792e-08)
5(4.772645384e-08 4.84400542e-08 4.956695005e-08 4.847599249e-08 5.159761017e-08)
)


60
(
5(7.178050672e-10 1.022216554e-09 3.4154271e-09 8.38674293e-09 2.621061035e-08)
5(9.407317737e-10 1.544604285e-09 3.615499865e-09 8.94081833e-09 2.481876116e-08)
5(1.201778035e-09 2.186379045e-09 4.410735406e-09 1.064380737e-08 2.668057329e-08)
5(1.580696149e-09 2.987265136e-09 5.902494777e-09 1.360551931e-08 3.243501944e-08)
5(2.166891621e-09 4.073967613e-09 8.131562643e-09 1.781886427e-08 4.12174858e-08)
5(3.006225651e-09 5.560077931e-09 1.10647952e-08 2.320517247e-08 5.215529271e-08)
5(4.109966498e-09 7.469333113e-09 1.464431931e-08 2.959350921e-08 6.456301e-08)
5(5.500194861e-09 9.901530779e-09 1.893112755e-08 3.708843394e-08 7.765006772e-08)
5(7.29731178e-09 1.296014004e-08 2.407836016e-08 4.586085328e-08 9.246364254e-08)
5(9.594314933e-09 1.678497609e-08 3.037692488e-08 5.610671794e-08 1.092063697e-07)
5(1.262267356e-08 2.153729613e-08 3.800734142e-08 6.79614524e-08 1.278895759e-07)
5(1.633769365e-08 2.738306867e-08 4.711934551e-08 8.145104332e-08 1.479287423e-07)
5(2.114243409e-08 3.451488017e-08 5.78109825e-08 9.659442151e-08 1.692239157e-07)
5(2.704907686e-08 4.313534772e-08 7.025800176e-08 1.134134649e-07 1.908400493e-07)
5(3.454790011e-08 5.355507631e-08 8.468780462e-08 1.319409884e-07 2.139146333e-07)
5(4.364157994e-08 6.605827559e-08 1.013291991e-07 1.521896227e-07 2.367185411e-07)
5(5.47640919e-08 8.095798826e-08 1.204069408e-07 1.742621125e-07 2.607109711e-07)
5(6.880286942e-08 9.868194707e-08 1.421800193e-07 1.983272296e-07 2.844736467e-07)
5(8.525774145e-08 1.196500997e-07 1.670446765e-07 2.244536877e-07 3.090996972e-07)
5(1.062428741e-07 1.442739006e-07 1.952358766e-07 2.528881008e-07 3.343758743e-07)
5(1.311988686e-07 1.730473514e-07 2.2706625e-07 2.837695364e-07 3.606946063e-07)
5(1.593348543e-07 2.064104697e-07 2.627384597e-07 3.172604174e-07 3.886090465e-07)
5(1.945912818e-07 2.447411601e-07 3.02661236e-07 3.535913801e-07 4.184177592e-07)
5(2.36918639e-07 2.882796839e-07 3.467609175e-07 3.931891146e-07 4.506781009e-07)
5(2.834639487e-07 3.369407492e-07 3.954702982e-07 4.361321985e-07 4.874677363e-07)
5(3.375595982e-07 3.911170071e-07 4.488835048e-07 4.824273441e-07 5.255229247e-07)
5(3.991739065e-07 4.508892757e-07 5.062022799e-07 5.324471424e-07 5.681745898e-07)
5(4.667598515e-07 5.153485945e-07 5.676470422e-07 5.865475797e-07 6.178129839e-07)
5(5.385734372e-07 5.832051208e-07 6.328201997e-07 6.451386796e-07 6.728831363e-07)
5(6.166343701e-07 6.543500532e-07 7.02461734e-07 7.097688218e-07 7.381461738e-07)
5(7.002337236e-07 7.288565538e-07 7.766955101e-07 7.830113226e-07 8.186112928e-07)
5(7.839072099e-07 8.05433492e-07 8.574689765e-07 8.675853539e-07 9.190736822e-07)
5(8.670250396e-07 8.85210928e-07 9.484664777e-07 9.707601731e-07 1.046376049e-06)
5(9.476526315e-07 9.678654227e-07 1.054153776e-06 1.104248846e-06 1.223234991e-06)
5(1.030945143e-06 1.059481123e-06 1.184313705e-06 1.27827053e-06 1.447799463e-06)
5(1.118691663e-06 1.169796195e-06 1.354821335e-06 1.512319417e-06 1.758542361e-06)
5(1.20997995e-06 1.314500039e-06 1.584878949e-06 1.833276643e-06 2.160485492e-06)
5(1.318795413e-06 1.509489094e-06 1.901112182e-06 2.260041085e-06 2.679787599e-06)
5(1.464728948e-06 1.781041281e-06 2.327864338e-06 2.821172091e-06 3.337905025e-06)
5(1.678518985e-06 2.162049156e-06 2.897103379e-06 3.530676864e-06 4.104411207e-06)
5(1.976654173e-06 2.687465955e-06 3.627937779e-06 4.382817574e-06 4.926528017e-06)
5(2.427151072e-06 3.387355488e-06 4.523180677e-06 5.331947791e-06 5.78020282e-06)
5(3.038730188e-06 4.273275408e-06 5.539139107e-06 6.298371127e-06 6.48871512e-06)
5(3.857664339e-06 5.325947263e-06 6.596925527e-06 7.154546419e-06 6.950993746e-06)
5(4.882937576e-06 6.473112081e-06 7.543724447e-06 7.717691662e-06 7.02374773e-06)
5(6.060172553e-06 7.590344365e-06 8.224402504e-06 7.833321585e-06 6.650358996e-06)
5(7.231915575e-06 8.485905526e-06 8.430369079e-06 7.401572334e-06 5.801389126e-06)
5(8.370345232e-06 8.938622053e-06 8.010403416e-06 6.445637963e-06 4.628213688e-06)
5(9.138460142e-06 8.78787133e-06 6.992074187e-06 5.095372678e-06 3.306981789e-06)
5(9.297813755e-06 7.946629937e-06 5.515260379e-06 3.593925662e-06 2.092860221e-06)
5(8.79380133e-06 6.509426239e-06 3.843511356e-06 2.22539419e-06 1.163574579e-06)
5(7.570070289e-06 4.777099516e-06 2.320042706e-06 1.195223401e-06 5.802315699e-07)
5(5.799880317e-06 2.990778264e-06 1.209880094e-06 5.544479186e-07 2.691734668e-07)
5(3.956033469e-06 1.606010145e-06 5.34062398e-07 2.506247244e-07 1.416534888e-07)
5(2.217416849e-06 7.288480002e-07 2.264862311e-07 1.315041468e-07 9.703814809e-08)
5(1.128609114e-06 2.949613587e-07 1.211338022e-07 9.583294252e-08 8.365074748e-08)
5(4.579612979e-07 1.445974949e-07 9.648502827e-08 8.492209053e-08 7.752821451e-08)
5(1.922922208e-07 9.77235174e-08 8.691401396e-08 7.920918299e-08 7.396201013e-08)
5(1.066498278e-07 8.521418033e-08 8.07991225e-08 7.472287994e-08 7.209090559e-08)
5(1.066582559e-07 8.190687861e-08 8.584619073e-08 7.763059722e-08 7.789290503e-08)
)


60
(
5(9.759435972e-10 1.4816754e-09 4.849534936e-09 1.214366859e-08 3.537947914e-08)
5(1.341687372e-09 2.276220472e-09 5.344950604e-09 1.321291846e-08 3.516024409e-08)
5(1.751383519e-09 3.221390582e-09 6.577936099e-09 1.557185026e-08 3.811043064e-08)
5(2.316451803e-09 4.362702778e-09 8.693019126e-09 1.944890787e-08 4.506424635e-08)
5(3.172677514e-09 5.884315856e-09 1.172180154e-08 2.481250401e-08 5.575717401e-08)
5(4.358658285e-09 7.938607063e-09 1.559114282e-08 3.158101671e-08 6.868987076e-08)
5(5.918419722e-09 1.055120073e-08 2.028935058e-08 3.95820446e-08 8.291985048e-08)
5(7.901710855e-09 1.385465175e-08 2.590373905e-08 4.893258355e-08 9.853797868e-08)
5(1.037243735e-08 1.799361573e-08 3.261610677e-08 5.976005863e-08 1.157392265e-07)
5(1.364891997e-08 2.311397513e-08 4.075784197e-08 7.237927839e-08 1.355913001e-07)
5(1.771111194e-08 2.942038658e-08 5.053681416e-08 8.68457307e-08 1.568559992e-07)
5(2.287018091e-08 3.712586281e-08 6.216062266e-08 1.033283591e-07 1.801395369e-07)
5(2.941202658e-08 4.649478624e-08 7.580597223e-08 1.21818792e-07 2.04513184e-07)
5(3.74455967e-08 5.786655909e-08 9.168196158e-08 1.424670115e-07 2.305988194e-07)
5(4.757998252e-08 7.157791354e-08 1.101072409e-07 1.65386998e-07 2.575434684e-07)
5(5.993238603e-08 8.801032543e-08 1.314510465e-07 1.906846145e-07 2.859331599e-07)
5(7.506237207e-08 1.076129588e-07 1.56163463e-07 2.186136316e-07 3.154697845e-07)
5(9.33628804e-08 1.309796387e-07 1.845335824e-07 2.495674391e-07 3.465731733e-07)
5(1.1677109e-07 1.587637039e-07 2.171156963e-07 2.837050526e-07 3.785051772e-07)
5(1.436467944e-07 1.913362571e-07 2.540808344e-07 3.212551708e-07 4.133018663e-07)
5(1.769454898e-07 2.294390998e-07 2.961277829e-07 3.624865771e-07 4.4894453e-07)
5(2.17286478e-07 2.739055742e-07 3.437330777e-07 4.075984054e-07 4.882680921e-07)
5(2.624886025e-07 3.250063954e-07 3.971290388e-07 4.568537337e-07 5.301587091e-07)
5(3.19147528e-07 3.829486041e-07 4.564420931e-07 5.105515884e-07 5.752663304e-07)
5(3.817826386e-07 4.482384022e-07 5.218208956e-07 5.685718527e-07 6.250525289e-07)
5(4.528695438e-07 5.199828814e-07 5.923071476e-07 6.308775536e-07 6.752819286e-07)
5(5.371831157e-07 6.000008569e-07 6.681453074e-07 6.96666197e-07 7.332318916e-07)
5(6.267933657e-07 6.85542654e-07 7.489312883e-07 7.652361475e-07 7.929836791e-07)
5(7.179277857e-07 7.746217577e-07 8.315350913e-07 8.361010883e-07 8.542324715e-07)
5(8.236028479e-07 8.66175623e-07 9.158275439e-07 9.096976113e-07 9.240560548e-07)
5(9.300955661e-07 9.590293771e-07 1.000230316e-06 9.835027718e-07 1.001005956e-06)
5(1.033421872e-06 1.050081108e-06 1.084004455e-06 1.05946124e-06 1.081672617e-06)
5(1.131192053e-06 1.13538414e-06 1.1660219e-06 1.142425122e-06 1.18540559e-06)
5(1.226754653e-06 1.213040342e-06 1.248608236e-06 1.237458213e-06 1.315707814e-06)
5(1.309800767e-06 1.285177883e-06 1.341037117e-06 1.355418409e-06 1.488424566e-06)
5(1.377464049e-06 1.354420728e-06 1.445872722e-06 1.512700796e-06 1.717658103e-06)
5(1.43367405e-06 1.432129907e-06 1.581574631e-06 1.733076157e-06 2.042979724e-06)
5(1.484659185e-06 1.529111422e-06 1.776164547e-06 2.036482165e-06 2.471672934e-06)
5(1.53832013e-06 1.669416726e-06 2.058861065e-06 2.463737343e-06 3.034539537e-06)
5(1.616194579e-06 1.89211327e-06 2.474029082e-06 3.051980378e-06 3.773473102e-06)
5(1.758733468e-06 2.236663153e-06 3.05193903e-06 3.823914554e-06 4.647118463e-06)
5(2.003254105e-06 2.753675383e-06 3.831513395e-06 4.777026114e-06 5.610273876e-06)
5(2.397353618e-06 3.482167916e-06 4.830624462e-06 5.883540389e-06 6.62664552e-06)
5(3.022631939e-06 4.458099523e-06 6.005481885e-06 7.01977808e-06 7.482592923e-06)
5(3.905445456e-06 5.667453921e-06 7.291583744e-06 8.063452744e-06 8.079064787e-06)
5(5.063568297e-06 7.03631113e-06 8.482403661e-06 8.787418741e-06 8.182465491e-06)
5(6.425246264e-06 8.411314618e-06 9.388721688e-06 8.994087852e-06 7.76165501e-06)
5(7.878668651e-06 9.616336028e-06 9.772348401e-06 8.576452893e-06 6.779429863e-06)
5(9.30568257e-06 1.037524671e-05 9.457150627e-06 7.52567589e-06 5.418859261e-06)
5(1.034628263e-05 1.041487773e-05 8.404120626e-06 5.98131285e-06 3.861688494e-06)
5(1.082399443e-05 9.68163435e-06 6.762385574e-06 4.241692201e-06 2.429761927e-06)
5(1.052759184e-05 8.2144913e-06 4.827981647e-06 2.640956793e-06 1.323661077e-06)
5(9.48782529e-06 6.224890762e-06 3.021482335e-06 1.408789813e-06 6.580743175e-07)