/*--------------------------------*- C++ -*----------------------------------*\
| =========                 |                                                 |
| \\      /  F ield         | OpenFOAM: The Open Source CFD Toolbox           |
|  \\    /   O peration     | Version:  2.3.1                                 |
|   \\  /    A nd           | Web:      www.OpenFOAM.org                      |
|    \\/     M anipulation  |                                                 |
\*---------------------------------------------------------------------------*/
FoamFile
{
    version     2.0;
    format      ascii;
    class       dictionary;
    location    "constant";
    object      GRPSI10;
}
// * * * * * * * * * * * * * * * * * * * * * * * * * * * * * * * * * * * * * //

GRPSI10_table
60
(

60
(
5(-4.620093971e-05 -5.298309735e-05 -9.605226693e-05 -7.657803361e-05 -0.0001659013969)
5(-5.748864369e-05 -1.688889447e-05 -6.826427956e-05 -6.077345008e-05 -0.0001732340926)
5(-5.347289511e-05 1.198210097e-05 -1.776091421e-05 -3.750820333e-05 -2.916609535e-05)
5(-8.85238468e-06 -8.505059785e-07 5.001120579e-07 -2.153048306e-06 4.564006199e-05)
5(3.129145148e-05 -6.746251385e-06 -1.98107705e-05 1.210007143e-05 -2.462464133e-05)
5(2.792999488e-05 -6.121919533e-06 -1.620480191e-05 -8.700148245e-06 5.84329571e-06)
5(-1.405225354e-06 -3.678375434e-06 7.520908873e-06 -5.910680522e-06 -8.993110559e-06)
5(-6.989276122e-06 -1.344281109e-06 1.781736601e-06 1.766283832e-06 -1.687419603e-05)
5(-1.716309487e-06 -6.173243547e-07 -1.768277283e-06 -3.017583713e-06 7.564374058e-06)
5(-3.315049424e-06 -1.695984704e-06 5.767320161e-07 -3.684172137e-06 -4.772077643e-07)
5(1.038410778e-06 -2.455376856e-06 -5.48864045e-06 -2.104367934e-06 -4.356732067e-06)
5(-2.330574566e-07 -2.134674041e-06 -5.694143734e-06 -1.221394306e-06 -3.434718991e-06)
5(-1.066017249e-06 -2.034415473e-06 -3.046207118e-06 -3.316896502e-06 -2.641681677e-06)
5(-1.805102188e-06 -2.883097613e-06 -3.293350008e-06 -3.780440135e-06 -4.271850968e-06)
5(-2.958260292e-06 -3.022316612e-06 -3.169848407e-06 -1.868072428e-06 -2.909535437e-06)
5(-1.679270819e-06 -2.466060557e-06 -2.419459304e-06 -2.783572139e-06 -2.000200265e-06)
5(-2.133038261e-06 -2.586617771e-06 -2.956872852e-06 -2.401135784e-06 -2.021169236e-06)
5(-2.268163582e-06 -2.427173508e-06 -2.926450253e-06 -2.641254149e-06 -2.779848608e-06)
5(-1.819405549e-06 -1.833874984e-06 -2.467118098e-06 -2.314539228e-06 -3.170241229e-06)
5(-1.793714322e-06 -2.271905564e-06 -2.966418557e-06 -2.416232472e-06 -3.313440306e-06)
5(-2.124143312e-06 -2.860568774e-06 -3.149038241e-06 -4.627028744e-06 -4.017213614e-06)
5(-1.636653592e-06 -2.2807529e-06 -2.72319177e-06 -3.46049924e-06 -3.02917493e-06)
5(-1.832008619e-06 -1.826384367e-06 -2.86087708e-06 -2.026033919e-06 -2.218876508e-06)
5(-2.010770057e-06 -1.958989237e-06 -2.552911971e-06 -2.533905866e-06 -2.736697152e-06)
5(-1.826893863e-06 -2.389697929e-06 -2.198767676e-06 -2.134405601e-06 -2.657670968e-06)
5(-1.89773986e-06 -2.54198118e-06 -2.711472759e-06 -2.353721867e-06 -2.90376547e-06)
5(-1.99968427e-06 -2.463062472e-06 -2.872305443e-06 -2.707526329e-06 -2.884066511e-06)
5(-1.817309649e-06 -2.161516998e-06 -2.659096265e-06 -2.946733184e-06 -2.837717587e-06)
5(-1.664588728e-06 -1.934488724e-06 -2.855387137e-06 -3.205927213e-06 -2.873201257e-06)
5(-1.718329627e-06 -1.870687437e-06 -2.389446672e-06 -2.710589727e-06 -2.757388419e-06)
5(-1.65755307e-06 -2.00346678e-06 -2.382562493e-06 -2.602616676e-06 -3.133096156e-06)
5(-1.739059286e-06 -1.922950479e-06 -2.31982503e-06 -2.616404106e-06 -2.381484679e-06)
5(-1.57749075e-06 -1.60665759e-06 -1.782038046e-06 -2.135688163e-06 -2.066837798e-06)
5(-1.357948316e-06 -1.558059148e-06 -1.770990794e-06 -1.942477212e-06 -2.25445282e-06)
5(-1.26999883e-06 -1.326132013e-06 -1.415229835e-06 -1.612358706e-06 -1.441009201e-06)
5(-1.177891197e-06 -1.391518059e-06 -1.702081292e-06 -1.632858131e-06 -1.491202495e-06)
5(-1.074793648e-06 -1.292705433e-06 -1.868618224e-06 -1.400686476e-06 -2.09316096e-06)
5(-9.23344931e-07 -9.6069876e-07 -1.058960572e-06 -1.118463747e-06 -1.101019248e-06)
5(-6.730806103e-07 -9.619300198e-07 -7.762514071e-07 -1.008069315e-06 -2.848986763e-06)
5(-6.726401334e-07 -9.573560293e-07 -1.027557219e-06 -8.893199008e-07 -3.050157519e-06)
5(-8.426979556e-07 -9.364284958e-07 -1.155383893e-06 -1.547161326e-06 9.400774504e-09)
5(-7.779245656e-07 -8.761522312e-07 -9.446574218e-07 -2.911376697e-06 -1.789337924e-08)
5(-6.196707802e-07 -7.008611956e-07 -3.237432711e-07 -1.828721636e-06 2.773756758e-07)
5(-5.513407457e-07 -5.82411288e-07 -3.187006251e-07 7.12346908e-08 1.068495532e-07)
5(-6.74426276e-07 -5.757569789e-07 -9.960352916e-07 7.931758543e-08 -1.282443872e-07)
5(-7.394773264e-07 -5.884353175e-07 -1.785690421e-06 1.074966464e-07 5.861731579e-08)
5(-6.161206166e-07 -9.942437995e-07 -1.678626121e-06 9.854801031e-08 1.008152216e-07)
5(-5.937710895e-07 -7.017871533e-07 -4.156186538e-07 9.236697067e-08 1.115905656e-07)
5(-5.874918158e-07 -1.21043762e-06 5.173060149e-08 1.16014816e-07 1.200796244e-07)
5(-5.851477243e-07 -1.090512955e-06 1.156081752e-07 1.271775687e-07 1.301144933e-07)
5(-1.257591201e-06 1.007272249e-07 1.292715801e-07 1.385918099e-07 1.414421749e-07)
5(-1.243045971e-06 1.294161947e-07 1.396638242e-07 1.481844357e-07 1.514187219e-07)
5(-2.75345886e-07 1.38476927e-07 1.513733945e-07 1.588087783e-07 1.642260209e-07)
5(9.075419732e-08 1.476693808e-07 1.62919876e-07 1.710543249e-07 1.774494769e-07)
5(1.550254301e-07 1.586863528e-07 1.741496716e-07 1.824556734e-07 1.891286871e-07)
5(1.902419678e-07 1.713541042e-07 1.864490979e-07 1.936737916e-07 2.032523563e-07)
5(2.060031348e-07 1.945948835e-07 2.010319109e-07 2.086135679e-07 2.109220146e-07)
5(1.999642455e-07 2.223268783e-07 2.295364744e-07 1.801155874e-07 2.311159915e-07)
5(2.03274658e-07 2.601651917e-07 2.914147983e-07 3.240807071e-07 3.154979202e-07)
5(2.101303189e-07 2.867350144e-07 3.331618999e-07 5.045116697e-07 3.794716115e-07)
)


60
(
5(-2.804898789e-05 2.614558012e-06 -6.73053881e-05 -4.496085176e-05 -0.0001157718413)
5(-2.071793612e-05 2.140953008e-06 -4.836214661e-05 -3.24542193e-05 -8.578094448e-05)
5(-7.852938423e-06 1.608280634e-06 -1.64699708e-05 -1.183614377e-05 -3.315267667e-05)
5(1.148276448e-06 1.75411988e-06 2.695651381e-06 -1.532002557e-07 6.826483956e-07)
5(5.286873044e-06 1.530578869e-06 8.0163917e-06 2.48424935e-06 1.115848652e-05)
5(3.954947152e-06 1.010402684e-07 3.065938461e-06 -9.617085817e-07 3.328036383e-06)
5(1.916525217e-07 -1.736058885e-06 -3.283592616e-06 -5.530557824e-06 -8.306864585e-06)
5(-2.19895312e-06 -3.13387752e-06 -6.620593633e-06 -8.677371397e-06 -1.413669201e-05)
5(-2.726065314e-06 -3.89073343e-06 -7.44046186e-06 -9.76935901e-06 -1.51111449e-05)
5(-2.711196581e-06 -4.369515346e-06 -7.229481782e-06 -1.011944498e-05 -1.449850834e-05)
5(-2.917309188e-06 -5.053971307e-06 -7.459341706e-06 -1.0999227e-05 -1.465067405e-05)
5(-3.393383127e-06 -5.798227695e-06 -8.29939294e-06 -1.214512395e-05 -1.604338966e-05)
5(-4.147792116e-06 -6.510682661e-06 -9.504887305e-06 -1.306165714e-05 -1.742824888e-05)
5(-4.827956837e-06 -7.216353204e-06 -1.048185906e-05 -1.38154321e-05 -1.810265045e-05)
5(-5.308704391e-06 -7.729276748e-06 -1.103913178e-05 -1.441182758e-05 -1.841125041e-05)
5(-5.77027454e-06 -8.138494843e-06 -1.138672199e-05 -1.459725404e-05 -1.837922329e-05)
5(-6.176636192e-06 -8.523084845e-06 -1.172425281e-05 -1.465962804e-05 -1.79892679e-05)
5(-6.475812477e-06 -8.828478791e-06 -1.193860849e-05 -1.452961334e-05 -1.740552577e-05)
5(-6.762724366e-06 -8.987039036e-06 -1.196297833e-05 -1.415220756e-05 -1.660437872e-05)
5(-6.988625198e-06 -9.010083922e-06 -1.181355046e-05 -1.366991633e-05 -1.564065083e-05)
5(-7.133243673e-06 -8.954834726e-06 -1.154205856e-05 -1.299087139e-05 -1.451498879e-05)
5(-7.14405732e-06 -8.779073976e-06 -1.1084936e-05 -1.215933653e-05 -1.319199175e-05)
5(-7.038894836e-06 -8.508245375e-06 -1.045131099e-05 -1.129660703e-05 -1.18894161e-05)
5(-6.921756245e-06 -8.122364996e-06 -9.779231115e-06 -1.028262944e-05 -1.058781053e-05)
5(-6.676645501e-06 -7.650773731e-06 -8.98772164e-06 -9.211534429e-06 -9.323800065e-06)
5(-6.327748488e-06 -7.147326948e-06 -8.187881373e-06 -8.236719097e-06 -8.167526427e-06)
5(-5.973334192e-06 -6.575379143e-06 -7.460265687e-06 -7.349736066e-06 -7.169047351e-06)
5(-5.553190953e-06 -5.972739665e-06 -6.700999318e-06 -6.562607218e-06 -6.294161857e-06)
5(-5.089727278e-06 -5.441091079e-06 -6.005292553e-06 -5.863419621e-06 -5.604046005e-06)
5(-4.633371354e-06 -4.943476768e-06 -5.404565442e-06 -5.273413089e-06 -5.074574279e-06)
5(-4.209606107e-06 -4.475156103e-06 -4.897116357e-06 -4.802344572e-06 -4.65344194e-06)
5(-3.807297764e-06 -4.062971956e-06 -4.45255673e-06 -4.421745567e-06 -4.353895614e-06)
5(-3.447413361e-06 -3.714133482e-06 -4.07937617e-06 -4.116034926e-06 -4.10701764e-06)
5(-3.143512609e-06 -3.41954604e-06 -3.786528785e-06 -3.857208803e-06 -3.885326689e-06)
5(-2.8700383e-06 -3.172095197e-06 -3.531390542e-06 -3.624951904e-06 -3.676607814e-06)
5(-2.654438804e-06 -2.966521379e-06 -3.309096723e-06 -3.420269587e-06 -3.452760368e-06)
5(-2.470209182e-06 -2.77766234e-06 -3.107755209e-06 -3.214176912e-06 -3.211067028e-06)
5(-2.294293725e-06 -2.620320309e-06 -2.923496677e-06 -2.989412901e-06 -3.003768336e-06)
5(-2.172279812e-06 -2.464411727e-06 -2.748134428e-06 -2.794495443e-06 -2.849675777e-06)
5(-2.059814753e-06 -2.327767931e-06 -2.596817498e-06 -2.621072656e-06 -2.738001905e-06)
5(-1.963653773e-06 -2.19049144e-06 -2.427271573e-06 -2.472241547e-06 -2.612045949e-06)
5(-1.861201559e-06 -2.067152228e-06 -2.254229997e-06 -2.37007159e-06 -2.430237321e-06)
5(-1.774316072e-06 -2.01526478e-06 -2.113000202e-06 -2.293652738e-06 -2.204447998e-06)
5(-1.731210578e-06 -1.923593271e-06 -2.005604021e-06 -2.207083809e-06 -1.967670383e-06)
5(-1.707529091e-06 -1.823836064e-06 -1.954927108e-06 -2.076759341e-06 -1.752512781e-06)
5(-1.697600111e-06 -1.761989573e-06 -1.949309661e-06 -1.901738863e-06 -1.552439103e-06)
5(-1.695361751e-06 -1.734754899e-06 -1.943297768e-06 -1.709258222e-06 -1.357725738e-06)
5(-1.699480412e-06 -1.750777468e-06 -1.882733801e-06 -1.521582776e-06 -1.163979239e-06)
5(-1.734466058e-06 -1.803513182e-06 -1.768504862e-06 -1.340128273e-06 -9.75525207e-07)
5(-1.790448226e-06 -1.851523668e-06 -1.616218026e-06 -1.160553475e-06 -8.026534335e-07)
5(-1.860443809e-06 -1.819870241e-06 -1.445900977e-06 -9.821459752e-07 -6.477526251e-07)
5(-1.937976628e-06 -1.700886155e-06 -1.263229566e-06 -8.138983842e-07 -5.143236968e-07)
5(-1.977638378e-06 -1.535569732e-06 -1.079801131e-06 -6.623279662e-07 -3.939950838e-07)
5(-1.951641947e-06 -1.347340783e-06 -9.065869558e-07 -5.199615207e-07 -2.846714289e-07)
5(-1.831590313e-06 -1.15916815e-06 -7.451175368e-07 -3.907468369e-07 -1.883004387e-07)
5(-1.645359087e-06 -9.892019378e-07 -5.967430441e-07 -2.779283797e-07 -1.000883792e-07)
5(-1.422450102e-06 -8.213376927e-07 -4.608805712e-07 -1.745701699e-07 -1.834353129e-08)
5(-1.172431732e-06 -6.615426678e-07 -3.374883089e-07 -7.039961906e-08 6.978414182e-08)
5(-8.126611452e-07 -3.821148975e-07 -5.128903262e-08 2.35673228e-07 2.808707276e-07)
5(-5.837888116e-07 -1.787529987e-07 1.753714039e-07 4.876060034e-07 4.443385819e-07)
)


60
(
5(-1.410576872e-05 1.725377711e-05 -5.035086259e-05 -3.08002884e-05 -9.17759562e-05)
5(-9.985912136e-06 1.308516709e-05 -3.498017161e-05 -2.195319166e-05 -6.701227757e-05)
5(-2.377387989e-06 6.630058559e-06 -9.692366653e-06 -7.6981817e-06 -2.569269601e-05)
5(3.820298774e-06 3.675978683e-06 4.22527533e-06 -5.274904931e-07 -1.65203141e-06)
5(6.706775986e-06 2.192363902e-06 6.51408108e-06 -5.265145556e-07 3.880862015e-06)
5(4.548930956e-06 -2.150027234e-07 7.185011737e-07 -5.356376022e-06 -4.781645051e-06)
5(2.078314693e-07 -2.915166099e-06 -6.13707385e-06 -1.086691222e-05 -1.599824522e-05)
5(-2.657366041e-06 -4.894323533e-06 -1.020081391e-05 -1.460645304e-05 -2.220003051e-05)
5(-3.800286347e-06 -6.417479543e-06 -1.187427678e-05 -1.660657441e-05 -2.398976609e-05)
5(-4.40684548e-06 -7.697998934e-06 -1.255894097e-05 -1.79336844e-05 -2.453015325e-05)
5(-5.229038349e-06 -8.981133632e-06 -1.35286721e-05 -1.935447769e-05 -2.56905084e-05)
5(-6.231325334e-06 -1.018674747e-05 -1.493737767e-05 -2.081013461e-05 -2.713539283e-05)
5(-7.338053078e-06 -1.13232814e-05 -1.641824208e-05 -2.201467891e-05 -2.831554715e-05)
5(-8.46039241e-06 -1.238569615e-05 -1.76366501e-05 -2.288493212e-05 -2.897978809e-05)
5(-9.420865091e-06 -1.325419652e-05 -1.846227993e-05 -2.334686847e-05 -2.895874546e-05)
5(-1.009953996e-05 -1.393359347e-05 -1.893500312e-05 -2.34147617e-05 -2.837668782e-05)
5(-1.06510445e-05 -1.441096409e-05 -1.915022776e-05 -2.314089717e-05 -2.749944383e-05)
5(-1.120591518e-05 -1.467896859e-05 -1.914716255e-05 -2.260165258e-05 -2.627754289e-05)
5(-1.160285573e-05 -1.476920856e-05 -1.89149873e-05 -2.175673478e-05 -2.473823076e-05)
5(-1.184098061e-05 -1.464149194e-05 -1.842465006e-05 -2.06499296e-05 -2.292825581e-05)
5(-1.187968252e-05 -1.431060438e-05 -1.765850354e-05 -1.938435969e-05 -2.098229306e-05)
5(-1.172886203e-05 -1.382951946e-05 -1.665715647e-05 -1.788272952e-05 -1.888189442e-05)
5(-1.148681617e-05 -1.317698825e-05 -1.547057769e-05 -1.621610291e-05 -1.670956323e-05)
5(-1.106134997e-05 -1.237668508e-05 -1.420705756e-05 -1.452134656e-05 -1.459615097e-05)
5(-1.043219933e-05 -1.143923108e-05 -1.285411904e-05 -1.282662456e-05 -1.260464496e-05)
5(-9.724536791e-06 -1.043757717e-05 -1.149204635e-05 -1.121247202e-05 -1.076447479e-05)
5(-8.96368011e-06 -9.376592677e-06 -1.013021175e-05 -9.708837459e-06 -9.122046814e-06)
5(-8.092192802e-06 -8.329507136e-06 -8.843739189e-06 -8.376604901e-06 -7.760496667e-06)
5(-7.22320395e-06 -7.35996631e-06 -7.701336028e-06 -7.228354322e-06 -6.644351162e-06)
5(-6.394516705e-06 -6.44056773e-06 -6.692607383e-06 -6.270796299e-06 -5.76309202e-06)
5(-5.60090053e-06 -5.647883408e-06 -5.85906892e-06 -5.521052933e-06 -5.101170167e-06)
5(-4.921314101e-06 -4.992177952e-06 -5.16896053e-06 -4.93170617e-06 -4.635552669e-06)
5(-4.317683033e-06 -4.423013049e-06 -4.623244681e-06 -4.490138257e-06 -4.302729376e-06)
5(-3.828594774e-06 -3.975788471e-06 -4.224187293e-06 -4.16617677e-06 -4.057590697e-06)
5(-3.4647675e-06 -3.643169528e-06 -3.899439209e-06 -3.914083717e-06 -3.854576528e-06)
5(-3.136716617e-06 -3.376494813e-06 -3.639898093e-06 -3.704421994e-06 -3.677619504e-06)
5(-2.856403555e-06 -3.161394085e-06 -3.439820812e-06 -3.512558835e-06 -3.498829205e-06)
5(-2.671891297e-06 -2.974623912e-06 -3.262328689e-06 -3.330111422e-06 -3.32908019e-06)
5(-2.527749164e-06 -2.822946536e-06 -3.096979878e-06 -3.157595828e-06 -3.201431687e-06)
5(-2.41005071e-06 -2.678930431e-06 -2.925147854e-06 -2.991807473e-06 -3.087320581e-06)
5(-2.275256127e-06 -2.528340935e-06 -2.759548157e-06 -2.840707523e-06 -2.961421142e-06)
5(-2.156729731e-06 -2.400959173e-06 -2.603162287e-06 -2.723873681e-06 -2.801671418e-06)
5(-2.066522141e-06 -2.293828423e-06 -2.452406731e-06 -2.636061752e-06 -2.611927332e-06)
5(-1.977483878e-06 -2.200201961e-06 -2.338052666e-06 -2.543838966e-06 -2.411295574e-06)
5(-1.909992037e-06 -2.101605353e-06 -2.265064768e-06 -2.431621448e-06 -2.224305824e-06)
5(-1.862280931e-06 -2.011751787e-06 -2.237171714e-06 -2.295737492e-06 -2.051540563e-06)
5(-1.840405855e-06 -1.976352806e-06 -2.233943595e-06 -2.147529307e-06 -1.879417389e-06)
5(-1.841683457e-06 -2.002762116e-06 -2.209511234e-06 -2.004852066e-06 -1.703723212e-06)
5(-1.866838554e-06 -2.066222779e-06 -2.148080018e-06 -1.860771337e-06 -1.518706127e-06)
5(-1.930356299e-06 -2.137263329e-06 -2.057010292e-06 -1.706688352e-06 -1.333301484e-06)
5(-2.041492465e-06 -2.175763547e-06 -1.942817752e-06 -1.542096454e-06 -1.154222719e-06)
5(-2.185887647e-06 -2.143312854e-06 -1.807406676e-06 -1.370007871e-06 -9.860599697e-07)
5(-2.318501365e-06 -2.053244715e-06 -1.652189113e-06 -1.193546072e-06 -8.261542536e-07)
5(-2.389090214e-06 -1.929669398e-06 -1.479690118e-06 -1.017629913e-06 -6.713907464e-07)
5(-2.370291212e-06 -1.77670424e-06 -1.298555075e-06 -8.48113628e-07 -5.266533401e-07)
5(-2.26341075e-06 -1.597400899e-06 -1.114426997e-06 -6.855277215e-07 -3.925342642e-07)
5(-2.072116984e-06 -1.401061187e-06 -9.300973891e-07 -5.262033518e-07 -2.62954823e-07)
5(-1.786839184e-06 -1.172748527e-06 -7.326649647e-07 -3.62377644e-07 -1.258759499e-07)
5(-1.168432166e-06 -6.3535813e-07 -1.043141771e-07 2.493915752e-07 2.802307187e-07)
5(-7.158149391e-07 -2.235420469e-07 4.18849696e-07 7.767222719e-07 6.140070381e-07)
)


60
(
5(-6.796644379e-07 3.066192235e-05 -3.590651916e-05 -1.97411773e-05 -7.472728507e-05)
5(1.561917111e-07 2.296621129e-05 -2.386316721e-05 -1.395729575e-05 -5.459973036e-05)
5(2.547809355e-06 1.089152647e-05 -4.582715403e-06 -5.021384079e-06 -2.162097925e-05)
5(5.972200234e-06 4.969718056e-06 4.806385831e-06 -1.615081027e-06 -3.939160937e-06)
5(7.547828309e-06 2.150197933e-06 4.541900073e-06 -3.761284182e-06 -1.933003656e-06)
5(4.590141007e-06 -1.104668662e-06 -2.150583603e-06 -9.85434934e-06 -1.164005179e-05)
5(-3.19883945e-07 -4.606211451e-06 -9.50999415e-06 -1.621154406e-05 -2.31305186e-05)
5(-3.729321334e-06 -7.356651648e-06 -1.42305791e-05 -2.051725225e-05 -2.985110615e-05)
5(-5.497080416e-06 -9.523098423e-06 -1.659657611e-05 -2.318610372e-05 -3.255153182e-05)
5(-6.697121692e-06 -1.138653746e-05 -1.799094689e-05 -2.518024939e-05 -3.38105594e-05)
5(-7.994243353e-06 -1.315185504e-05 -1.954982277e-05 -2.705973082e-05 -3.525156368e-05)
5(-9.490378119e-06 -1.482053961e-05 -2.138313639e-05 -2.872704729e-05 -3.686810088e-05)
5(-1.098055257e-05 -1.634354088e-05 -2.308438412e-05 -3.002354517e-05 -3.805241901e-05)
5(-1.236364139e-05 -1.761703148e-05 -2.43757701e-05 -3.087312421e-05 -3.840007741e-05)
5(-1.355649566e-05 -1.858707751e-05 -2.518541995e-05 -3.123742354e-05 -3.805111851e-05)
5(-1.452269003e-05 -1.934649536e-05 -2.563234159e-05 -3.11085034e-05 -3.714548268e-05)
5(-1.525426255e-05 -1.993108549e-05 -2.580543237e-05 -3.058742285e-05 -3.573779568e-05)
5(-1.585889289e-05 -2.014232805e-05 -2.555350233e-05 -2.965940114e-05 -3.395534789e-05)
5(-1.621551922e-05 -2.005712815e-05 -2.497140103e-05 -2.834024419e-05 -3.183596444e-05)
5(-1.631312383e-05 -1.978957694e-05 -2.40884644e-05 -2.670338492e-05 -2.933186869e-05)
5(-1.639785942e-05 -1.919064683e-05 -2.287757075e-05 -2.484227503e-05 -2.671977475e-05)
5(-1.610348686e-05 -1.835435526e-05 -2.146109466e-05 -2.278895924e-05 -2.392348683e-05)
5(-1.537923981e-05 -1.736765886e-05 -1.987187279e-05 -2.055385644e-05 -2.105283787e-05)
5(-1.464979764e-05 -1.615740928e-05 -1.806575551e-05 -1.828581087e-05 -1.827400389e-05)
5(-1.382062349e-05 -1.477004203e-05 -1.615732431e-05 -1.604476553e-05 -1.565755511e-05)
5(-1.274871394e-05 -1.331061085e-05 -1.430274702e-05 -1.389328166e-05 -1.32750969e-05)
5(-1.157213716e-05 -1.185624645e-05 -1.248510764e-05 -1.189042244e-05 -1.108884059e-05)
5(-1.035326094e-05 -1.04188643e-05 -1.077400508e-05 -1.009147664e-05 -9.24205064e-06)
5(-9.155016523e-06 -9.061073429e-06 -9.220459326e-06 -8.531881522e-06 -7.710640884e-06)
5(-7.968144808e-06 -7.822851042e-06 -7.861923758e-06 -7.232379824e-06 -6.492972955e-06)
5(-6.865867533e-06 -6.721720344e-06 -6.727807938e-06 -6.190161391e-06 -5.572306593e-06)
5(-5.90029691e-06 -5.784085692e-06 -5.782979745e-06 -5.382934773e-06 -4.887511074e-06)
5(-5.075148801e-06 -5.020487076e-06 -5.04362205e-06 -4.778572433e-06 -4.419772718e-06)
5(-4.389414247e-06 -4.41442262e-06 -4.507530589e-06 -4.337599893e-06 -4.104880975e-06)
5(-3.849118805e-06 -3.952723084e-06 -4.102203994e-06 -4.019838971e-06 -3.874245767e-06)
5(-3.432955633e-06 -3.611233793e-06 -3.802600344e-06 -3.785856213e-06 -3.69064479e-06)
5(-3.112065067e-06 -3.351166318e-06 -3.5676114e-06 -3.60173922e-06 -3.550642457e-06)
5(-2.8761102e-06 -3.145189466e-06 -3.37519952e-06 -3.438807118e-06 -3.413725778e-06)
5(-2.70031078e-06 -2.976929795e-06 -3.210042318e-06 -3.284051335e-06 -3.303556613e-06)
5(-2.548513681e-06 -2.819811368e-06 -3.055919862e-06 -3.133419352e-06 -3.206708459e-06)
5(-2.417744613e-06 -2.673865728e-06 -2.905771997e-06 -2.993545481e-06 -3.092513266e-06)
5(-2.296170692e-06 -2.543507717e-06 -2.750088734e-06 -2.875040495e-06 -2.959443953e-06)
5(-2.177497179e-06 -2.420626041e-06 -2.596047303e-06 -2.778229227e-06 -2.794141738e-06)
5(-2.067276917e-06 -2.299744911e-06 -2.465028867e-06 -2.685407639e-06 -2.624018207e-06)
5(-1.970884906e-06 -2.185078788e-06 -2.381655992e-06 -2.580726291e-06 -2.464503044e-06)
5(-1.89814335e-06 -2.088609036e-06 -2.339394787e-06 -2.464631141e-06 -2.317449199e-06)
5(-1.840204053e-06 -2.022754632e-06 -2.322564726e-06 -2.344836608e-06 -2.180227833e-06)
5(-1.813547049e-06 -2.01340921e-06 -2.304753166e-06 -2.233899018e-06 -2.034535489e-06)
5(-1.800824356e-06 -2.071245815e-06 -2.269008123e-06 -2.132239847e-06 -1.879221525e-06)
5(-1.830435639e-06 -2.160485686e-06 -2.231221286e-06 -2.029301834e-06 -1.718338981e-06)
5(-1.934990394e-06 -2.231007281e-06 -2.184348837e-06 -1.908598076e-06 -1.55202904e-06)
5(-2.078355477e-06 -2.267620511e-06 -2.116879027e-06 -1.769952589e-06 -1.38312499e-06)
5(-2.252935702e-06 -2.27319647e-06 -2.023477793e-06 -1.615772484e-06 -1.211676034e-06)
5(-2.424148684e-06 -2.243254217e-06 -1.896460418e-06 -1.441952431e-06 -1.037071777e-06)
5(-2.535820266e-06 -2.168946087e-06 -1.739456784e-06 -1.258330631e-06 -8.59464752e-07)
5(-2.562696432e-06 -2.044503437e-06 -1.556865047e-06 -1.068767496e-06 -6.906265069e-07)
5(-2.485702728e-06 -1.861286698e-06 -1.345965026e-06 -8.711353338e-07 -5.223424265e-07)
5(-2.251315319e-06 -1.594554741e-06 -1.080795089e-06 -6.472371336e-07 -3.299292204e-07)
5(-1.397955796e-06 -5.43969967e-07 5.950514643e-08 2.762343268e-07 4.647899511e-07)
5(-7.095177716e-07 3.488798038e-07 1.047657845e-06 1.076777661e-06 1.154133107e-06)
)


60
(
5(1.206218659e-05 4.304127187e-05 -2.316282791e-05 -1.028813298e-05 -6.103480146e-05)
5(9.689402379e-06 3.201630085e-05 -1.416923843e-05 -7.160027945e-06 -4.469361244e-05)
5(6.999291643e-06 1.460108296e-05 -3.691090291e-07 -2.891885498e-06 -1.85144674e-05)
5(7.759971052e-06 5.866172028e-06 5.006540587e-06 -2.725942559e-06 -5.916206524e-06)
5(8.072672978e-06 1.804990761e-06 2.466513312e-06 -6.786693779e-06 -6.756508967e-06)
5(4.296053114e-06 -2.330404454e-06 -5.12989209e-06 -1.394690906e-05 -1.762539544e-05)
5(-1.224879731e-06 -6.613747871e-06 -1.296061583e-05 -2.104135065e-05 -2.979609326e-05)
5(-5.151386283e-06 -9.947354723e-06 -1.821931317e-05 -2.609137189e-05 -3.715886113e-05)
5(-7.428626872e-06 -1.269644433e-05 -2.120224124e-05 -2.93914382e-05 -4.044624299e-05)
5(-9.157640544e-06 -1.509888668e-05 -2.321414056e-05 -3.184004092e-05 -4.235874851e-05)
5(-1.098766353e-05 -1.730262149e-05 -2.52250668e-05 -3.404051987e-05 -4.422992667e-05)
5(-1.282503159e-05 -1.935782932e-05 -2.727144842e-05 -3.596028208e-05 -4.582641059e-05)
5(-1.466958288e-05 -2.110077952e-05 -2.915020765e-05 -3.738242939e-05 -4.691563477e-05)
5(-1.629223718e-05 -2.253916625e-05 -3.054547134e-05 -3.818630049e-05 -4.71228391e-05)
5(-1.756707255e-05 -2.365138715e-05 -3.137485155e-05 -3.844938514e-05 -4.655495843e-05)
5(-1.874070762e-05 -2.445749034e-05 -3.176523581e-05 -3.814508252e-05 -4.534420358e-05)
5(-1.961099123e-05 -2.49863069e-05 -3.170432862e-05 -3.734054576e-05 -4.348350833e-05)
5(-2.018114392e-05 -2.512064826e-05 -3.128051255e-05 -3.603032797e-05 -4.115655464e-05)
5(-2.053631181e-05 -2.495089761e-05 -3.047442638e-05 -3.433169977e-05 -3.849785671e-05)
5(-2.061005889e-05 -2.44658465e-05 -2.926779508e-05 -3.23467243e-05 -3.547423615e-05)
5(-2.036572318e-05 -2.363022026e-05 -2.773544406e-05 -3.001513392e-05 -3.223191976e-05)
5(-1.987481439e-05 -2.253577875e-05 -2.59213685e-05 -2.744895938e-05 -2.87826752e-05)
5(-1.91398204e-05 -2.121181243e-05 -2.385992493e-05 -2.477367765e-05 -2.539314591e-05)
5(-1.816296025e-05 -1.966257961e-05 -2.16516057e-05 -2.201701601e-05 -2.207311913e-05)
5(-1.693108591e-05 -1.7963273e-05 -1.936619149e-05 -1.926319522e-05 -1.884265456e-05)
5(-1.553891105e-05 -1.612872855e-05 -1.706426117e-05 -1.662356095e-05 -1.589054861e-05)
5(-1.410234892e-05 -1.426935798e-05 -1.482559609e-05 -1.415991825e-05 -1.323025978e-05)
5(-1.253509253e-05 -1.249520695e-05 -1.272043762e-05 -1.192634125e-05 -1.092964977e-05)
5(-1.099032301e-05 -1.078640604e-05 -1.078725259e-05 -9.969706828e-06 -8.993747219e-06)
5(-9.506699497e-06 -9.204641643e-06 -9.087399318e-06 -8.327713999e-06 -7.405532728e-06)
5(-8.106056842e-06 -7.812945089e-06 -7.653882635e-06 -6.982236406e-06 -6.187452809e-06)
5(-6.891743234e-06 -6.626879816e-06 -6.469087468e-06 -5.916611863e-06 -5.258898333e-06)
5(-5.838118708e-06 -5.637419516e-06 -5.520627267e-06 -5.116168404e-06 -4.602075195e-06)
5(-4.953286487e-06 -4.855121372e-06 -4.80683957e-06 -4.531483425e-06 -4.172086399e-06)
5(-4.250633197e-06 -4.254240659e-06 -4.282435962e-06 -4.120413313e-06 -3.870230979e-06)
5(-3.704359841e-06 -3.805915905e-06 -3.899867695e-06 -3.832058404e-06 -3.662931988e-06)
5(-3.302861497e-06 -3.475280289e-06 -3.624224014e-06 -3.619454209e-06 -3.510915702e-06)
5(-3.002796924e-06 -3.222155883e-06 -3.416773062e-06 -3.449960051e-06 -3.394718219e-06)
5(-2.774169584e-06 -3.029494063e-06 -3.249151606e-06 -3.304455421e-06 -3.300790197e-06)
5(-2.601507876e-06 -2.872811245e-06 -3.097762018e-06 -3.168551723e-06 -3.220811666e-06)
5(-2.459198238e-06 -2.731405725e-06 -2.948500289e-06 -3.040984373e-06 -3.136390703e-06)
5(-2.336414811e-06 -2.598060628e-06 -2.797803833e-06 -2.925901741e-06 -3.010829328e-06)
5(-2.221765022e-06 -2.461383913e-06 -2.644538494e-06 -2.826238152e-06 -2.859621062e-06)
5(-2.108996566e-06 -2.326586887e-06 -2.501213439e-06 -2.728066021e-06 -2.70841198e-06)
5(-1.990902077e-06 -2.196377758e-06 -2.396439494e-06 -2.619750921e-06 -2.565872157e-06)
5(-1.898979346e-06 -2.07118027e-06 -2.334445513e-06 -2.507325708e-06 -2.440881287e-06)
5(-1.824726299e-06 -1.980221432e-06 -2.293501934e-06 -2.400921588e-06 -2.32390171e-06)
5(-1.753671205e-06 -1.94417072e-06 -2.261688777e-06 -2.305684715e-06 -2.209079331e-06)
5(-1.708256467e-06 -1.966703081e-06 -2.235879162e-06 -2.231016356e-06 -2.093019881e-06)
5(-1.69437255e-06 -2.024415707e-06 -2.217427601e-06 -2.169507901e-06 -1.969743421e-06)
5(-1.733081888e-06 -2.082392591e-06 -2.207762422e-06 -2.098794417e-06 -1.835635458e-06)
5(-1.826468114e-06 -2.137645595e-06 -2.200827964e-06 -2.01080024e-06 -1.694126453e-06)
5(-1.968163222e-06 -2.192682236e-06 -2.177961191e-06 -1.902564437e-06 -1.54035562e-06)
5(-2.129129707e-06 -2.238357962e-06 -2.12555439e-06 -1.769469831e-06 -1.369613555e-06)
5(-2.296585268e-06 -2.260962636e-06 -2.035919585e-06 -1.607021753e-06 -1.185298375e-06)
5(-2.429185617e-06 -2.241606656e-06 -1.894999075e-06 -1.418093694e-06 -9.931708482e-07)
5(-2.477283897e-06 -2.142776744e-06 -1.690523924e-06 -1.195364376e-06 -7.881819537e-07)
5(-2.391201352e-06 -1.911492513e-06 -1.375629935e-06 -9.039935781e-07 -5.35686044e-07)
5(-1.416376865e-06 -5.768815212e-07 2.305294712e-07 3.788453028e-07 6.795728188e-07)
5(-5.323607166e-07 6.015562657e-07 1.641048208e-06 1.491849951e-06 1.750175839e-06)
)


60
(
5(2.407774336e-05 5.458034135e-05 -1.169678079e-05 -1.558812792e-06 -4.850339163e-05)
5(1.869689717e-05 4.039993867e-05 -5.538549713e-06 -8.689490914e-07 -3.562623822e-05)
5(1.108645979e-05 1.793798464e-05 3.261409579e-06 -8.626676876e-07 -1.602363755e-05)
5(9.156119174e-06 6.540803199e-06 5.138603465e-06 -3.686126796e-06 -7.915704449e-06)
5(8.308229189e-06 1.313571313e-06 5.837446381e-07 -9.587402818e-06 -1.089891749e-05)
5(3.789587153e-06 -3.636054666e-06 -7.935714899e-06 -1.775309172e-05 -2.30946747e-05)
5(-2.299713847e-06 -8.637444001e-06 -1.61882526e-05 -2.552358022e-05 -3.598688067e-05)
5(-6.717748687e-06 -1.262680767e-05 -2.200759805e-05 -3.121973981e-05 -4.393739609e-05)
5(-9.500899752e-06 -1.589646929e-05 -2.561354245e-05 -3.511127204e-05 -4.809472995e-05)
5(-1.175430678e-05 -1.871936057e-05 -2.813700462e-05 -3.804980046e-05 -5.047141359e-05)
5(-1.390697378e-05 -2.129003645e-05 -3.049326434e-05 -4.057982048e-05 -5.254716863e-05)
5(-1.609366217e-05 -2.359251807e-05 -3.278075133e-05 -4.269574408e-05 -5.435498796e-05)
5(-1.821363955e-05 -2.556332024e-05 -3.47942592e-05 -4.423164472e-05 -5.542435695e-05)
5(-2.00570841e-05 -2.714659567e-05 -3.624147123e-05 -4.503644295e-05 -5.553273954e-05)
5(-2.160005475e-05 -2.83971433e-05 -3.707554892e-05 -4.514552272e-05 -5.467208413e-05)
5(-2.272909945e-05 -2.924285524e-05 -3.736115613e-05 -4.468874081e-05 -5.311714466e-05)
5(-2.362904989e-05 -2.972182859e-05 -3.722487272e-05 -4.369633386e-05 -5.092379323e-05)
5(-2.422594364e-05 -2.978846378e-05 -3.663474173e-05 -4.215552062e-05 -4.817502061e-05)
5(-2.459047183e-05 -2.944567732e-05 -3.558747767e-05 -4.015023208e-05 -4.496679798e-05)
5(-2.45869696e-05 -2.87972645e-05 -3.413244149e-05 -3.773346364e-05 -4.138435848e-05)
5(-2.415422525e-05 -2.779481041e-05 -3.227936846e-05 -3.500413456e-05 -3.776560734e-05)
5(-2.350031531e-05 -2.644986238e-05 -3.012101881e-05 -3.205024339e-05 -3.382289059e-05)
5(-2.259784687e-05 -2.483735945e-05 -2.772822907e-05 -2.893196734e-05 -2.977059135e-05)
5(-2.134285849e-05 -2.298940952e-05 -2.514039022e-05 -2.571253277e-05 -2.58615323e-05)
5(-1.986186528e-05 -2.096145172e-05 -2.247149063e-05 -2.252754412e-05 -2.216814643e-05)
5(-1.823073062e-05 -1.887846081e-05 -1.982629678e-05 -1.946312597e-05 -1.873476118e-05)
5(-1.647794689e-05 -1.674601816e-05 -1.722181944e-05 -1.657188737e-05 -1.557592459e-05)
5(-1.465551614e-05 -1.460302205e-05 -1.47461057e-05 -1.393281132e-05 -1.282111876e-05)
5(-1.281724151e-05 -1.257353235e-05 -1.248687355e-05 -1.159744909e-05 -1.047174663e-05)
5(-1.106365582e-05 -1.070059264e-05 -1.045586615e-05 -9.582830672e-06 -8.514706059e-06)
5(-9.413826089e-06 -9.01666368e-06 -8.703878967e-06 -7.926217997e-06 -6.976078104e-06)
5(-7.927745749e-06 -7.546062547e-06 -7.241529312e-06 -6.60406371e-06 -5.794014061e-06)
5(-6.63212404e-06 -6.327195711e-06 -6.084173476e-06 -5.567200968e-06 -4.901982913e-06)
5(-5.542027918e-06 -5.351904979e-06 -5.197584864e-06 -4.80159063e-06 -4.304582922e-06)
5(-4.671470149e-06 -4.59188136e-06 -4.516544956e-06 -4.257807478e-06 -3.918639261e-06)