/*--------------------------------*- C++ -*----------------------------------*\
| =========                 |                                                 |
| \\      /  F ield         | OpenFOAM: The Open Source CFD Toolbox           |
|  \\    /   O peration     | Version:  2.3.1                                 |
|   \\  /    A nd           | Web:      www.OpenFOAM.org                      |
|    \\/     M anipulation  |                                                 |
\*---------------------------------------------------------------------------*/
FoamFile
{
    version     2.0;
    format      ascii;
    class       dictionary;
    location    "constant";
    object      GRPSI23;
}
// * * * * * * * * * * * * * * * * * * * * * * * * * * * * * * * * * * * * * //

GRPSI23_table
60
(

60
(
5(-1541.54478 -3396.962216 -345.5714399 -912.908882 445.8325448)
5(1371.809666 2647.658321 2920.501168 2154.639161 4190.457119)
5(7858.03927 1318.172329 4867.227066 4787.055699 14955.10457)
5(12196.2789 1055.719918 4220.044833 7352.950198 3723.020728)
5(9525.14185 1842.983297 5128.785027 5379.708617 7662.292088)
5(5579.094928 2674.810816 9138.021693 5857.97967 10691.06356)
5(4849.820712 3220.124823 8831.867363 7392.308797 8321.49831)
5(6644.807533 3355.834973 7337.75406 6808.247788 12347.28975)
5(5539.348163 3261.113487 7746.310279 6561.293226 10519.01008)
5(5771.091852 3156.320129 6880.832064 6877.18831 10107.73247)
5(5700.394636 3279.713239 6995.457373 6853.166934 10146.95562)
5(5979.603591 3389.629849 7621.747061 6904.193245 10717.71096)
5(6513.316833 3431.581469 7816.15449 6649.50892 10501.74004)
5(6189.581079 3452.194705 7743.360051 7142.478865 10789.9567)
5(6619.820834 3695.28619 7935.834736 6948.654728 10856.96239)
5(6581.136629 3733.136723 7827.495824 6950.919725 10819.21621)
5(6689.724821 3880.506923 7876.489764 7009.329418 10659.15571)
5(6844.47618 4029.861204 7944.308548 6946.735874 10643.11509)
5(7046.344325 4157.4189 8012.552771 7101.743458 10698.29867)
5(7080.898906 4143.628208 7956.154499 6940.182233 10843.98617)
5(7319.41103 4473.772521 8244.759316 7164.498639 10961.00663)
5(7521.360328 4714.370114 8303.441967 7855.514849 11432.7632)
5(7625.262462 4894.344944 8506.100648 7670.174601 11216.16203)
5(7973.578106 5013.465831 8682.992096 7844.142461 11418.79827)
5(8215.237642 5300.42765 8817.290156 7898.112131 11440.58436)
5(8560.856289 5665.998967 8881.801099 7933.309703 11646.84433)
5(8921.47846 6127.208227 9376.246276 8144.157829 11828.81141)
5(9417.887446 6578.96036 9586.352478 8422.847901 12081.96269)
5(9771.747156 6991.074293 10094.59743 8877.614028 12319.18941)
5(10316.46447 7409.028946 10587.89674 9515.264203 12720.17209)
5(10842.89295 7914.816418 10924.0823 9769.786735 12991.57285)
5(11533.18026 8644.776668 11646.23412 10614.38948 14059.38087)
5(12344.77854 9320.42642 12171.64801 11138.80913 13738.13272)
5(13158.64323 10014.48371 12635.33864 11815.4192 14894.15692)
5(14056.05094 10951.74732 13463.33093 12427.4231 15220.26585)
5(15099.48944 11644.04896 13696.73862 12959.88732 15556.50526)
5(16210.84924 13035.10536 15415.83419 13972.69015 15824.20101)
5(17446.77583 13870.02787 16279.71438 14373.30369 17882.006)
5(18650.93853 15011.86453 16852.64427 15144.48117 16336.02911)
5(19681.08084 16044.97684 17208.61906 15388.82003 22015.0369)
5(21037.56749 17391.50371 18504.64209 15961.69587 20926.74005)
5(22489.07994 18475.34794 19322.83252 17904.41872 19579.67573)
5(23741.56473 19736.42575 20212.80162 21878.95546 17722.41607)
5(24709.08661 20016.91068 18611.18606 20578.2622 15540.69289)
5(25414.99411 20678.90591 19204.03385 18714.65598 13733.75614)
5(26257.0935 20581.01437 19843.30322 16498.04696 11623.17979)
5(26567.79779 20978.70066 23265.75226 14145.63274 9396.302648)
5(26510.14763 22371.86898 22717.06095 11792.99715 7143.560932)
5(25859.46573 20693.51696 20167.99122 9355.522629 4971.618814)
5(24785.80694 23516.98972 17204.00379 6890.039445 2954.732004)
5(23606.38977 20503.86197 14126.16287 4455.944888 1055.257129)
5(25137.88419 16996.78905 11006.75244 2144.609581 -689.1213363)
5(23209.91181 13389.15382 7936.568642 -100.5181096 -2376.535903)
5(19213.1397 9745.759208 4886.363937 -2277.85213 -3973.373787)
5(14490.02152 6170.056618 1888.662822 -4331.140891 -5472.771489)
5(9188.517923 2531.120168 -1137.593275 -6283.258122 -6860.560318)
5(3170.321685 -1233.280696 -4221.033 -8214.351777 -7979.291012)
5(-2519.47878 -5732.151333 -7536.458719 -10091.9519 -8834.700947)
5(-7719.884588 -10674.90568 -12215.45341 -8809.778701 -9382.912855)
5(-13404.40363 -16826.40386 -21272.83694 -23145.7615 -20308.11314)
)


60
(
5(-1331.152269 -3516.249861 -201.6892074 -948.4135557 544.071669)
5(1038.426307 383.1773432 2281.779695 1244.732392 3398.79957)
5(4748.110274 159.6583328 3797.582587 2973.099616 9410.587063)
5(7097.714387 224.640983 3722.025589 4476.779123 4055.218225)
5(5854.291974 741.0311914 4255.796776 3601.041073 6077.962634)
5(3930.130095 1268.270385 6287.662528 3932.481942 7605.266122)
5(3609.406415 1623.04903 6202.72643 4777.471151 6482.196)
5(4553.966132 1771.791663 5517.220288 4564.146121 8582.773413)
5(4046.242178 1801.976772 5785.056672 4527.489823 7753.281689)
5(4184.914974 1809.814704 5394.506898 4751.062987 7627.898826)
5(4173.750004 1925.103893 5491.418109 4800.397317 7691.800402)
5(4323.038938 2030.390733 5829.17318 4885.593418 8010.356963)
5(4603.97598 2100.55647 5955.186218 4815.154605 7950.577753)
5(4454.480147 2159.708403 5949.49263 5111.163168 8138.519767)
5(4682.536833 2333.04441 6081.110372 5068.728062 8216.224245)
5(4671.725287 2398.580496 6054.286595 5129.351994 8242.222627)
5(4741.62048 2520.067258 6108.857061 5214.492713 8209.370278)
5(4832.750834 2644.423604 6172.713244 5244.781548 8246.485767)
5(4950.044219 2762.523043 6245.222018 5382.610392 8329.809626)
5(4987.921073 2813.358806 6258.056746 5368.363253 8451.772431)
5(5126.730515 3040.939836 6445.557987 5552.505091 8576.964716)
5(5259.940727 3228.311351 6524.649886 5971.164394 8877.640843)
5(5346.90677 3391.930949 6684.1848 5966.271291 8837.199906)
5(5561.543015 3528.051205 6833.426382 6149.214085 9020.489864)
5(5728.211146 3759.359073 6975.526768 6272.18565 9115.385311)
5(5957.362311 4035.411744 7080.206017 6399.258636 9309.674964)
5(6200.833559 4373.314321 7417.139032 6614.975056 9508.828625)
5(6521.946389 4710.738751 7619.147164 6886.997909 9752.147048)
5(6785.354621 5038.958432 7979.519721 7253.62782 9994.622697)
5(7151.800845 5383.944038 8355.021633 7727.806483 10340.66145)
5(7520.218442 5788.889357 8656.308842 8017.52618 10628.29832)
5(7983.277091 6316.552199 9172.087861 8621.687601 11333.32143)
5(8522.28682 6831.30453 9599.086969 9088.932421 11353.53705)
5(9075.817162 7373.704319 10024.16115 9639.865691 12141.28943)
5(9683.025763 8050.702731 10638.47625 10182.30434 12521.71595)
5(10354.84206 8627.197286 10978.549 10708.48533 12931.55717)
5(11106.65204 9564.254306 12087.42323 11498.29174 13316.88413)
5(11905.57264 10235.76877 12778.6218 11991.25632 14601.76354)
5(12704.31561 11105.1575 13338.65311 12680.25511 14088.10822)
5(13417.69324 11898.88762 13816.62482 13116.87331 17198.60101)
5(14276.2063 12873.23716 14799.57245 13722.87667 16931.9734)
5(15219.48771 13711.62997 15501.5224 15010.09498 16524.64411)
5(16003.89299 14636.40278 16237.38634 17296.81651 15809.45042)
5(16631.10906 15080.33354 15692.59713 16929.66274 14833.58723)
5(17104.68687 15617.79045 16202.70413 16223.40581 13974.1584)
5(17618.93796 15760.97203 16688.83269 15243.26802 12882.06976)
5(17802.97494 16071.1541 18523.72641 14090.98498 11625.62289)
5(17738.57218 16804.58183 18291.21755 12817.03019 10255.1787)
5(17286.75231 15889.23149 16940.21178 11386.91851 8828.45553)
5(16590.45261 17201.94346 15262.12891 9845.029981 7410.566437)
5(15757.57948 15514.48372 13408.37831 8220.66227 6022.143633)
5(16257.98866 13478.53367 11435.3109 6557.481785 4637.321283)
5(14968.27024 11269.37658 9360.066745 4877.965681 3263.259194)
5(12624.00275 8975.910744 7223.406351 3201.905333 1906.011888)
5(9877.70745 6569.450585 5037.11645 1533.157762 597.4458042)
5(6752.262454 4082.923144 2796.890125 -116.9137319 -673.0734914)
5(3188.000599 1489.862856 476.701245 -1767.458336 -1825.145828)
5(-302.0852362 -1544.649067 -2001.898961 -3395.451622 -2864.299367)
5(-3682.300102 -4833.689931 -5157.445434 -3527.559115 -3826.360554)
5(-7859.538028 -9220.697287 -10927.25411 -11930.64557 -10338.809)
)


60
(
5(-778.2304492 -3142.457291 272.4654684 -579.0866916 974.1910658)
5(943.426539 -1458.731375 1823.441272 607.5955097 2724.993044)
5(1794.376101 -617.2837143 2789.468238 1346.365919 3810.416108)
5(2119.390127 -254.0384378 3247.941254 1748.990424 4286.880459)
5(2278.230902 -32.49187937 3402.76163 1958.889978 4402.000699)
5(2372.890895 165.8047758 3465.456415 2127.636309 4453.508704)
5(2445.885596 315.2778583 3580.538403 2270.797244 4569.320688)
5(2514.457103 450.0097032 3687.31061 2412.054195 4721.30702)
5(2570.805909 570.2669574 3783.896213 2553.935508 4865.254132)
5(2596.490524 667.6381825 3850.686015 2666.627196 4981.568242)
5(2618.254053 748.9607074 3901.469332 2764.312956 5055.811787)
5(2617.180946 825.8086444 3935.634326 2857.962401 5116.087743)
5(2615.373224 894.6529713 3970.58146 2948.009943 5188.838332)
5(2613.346136 962.187843 4008.282048 3029.306385 5254.101572)
5(2609.902158 1031.326046 4048.307239 3116.21357 5325.161369)
5(2602.041474 1092.806702 4083.204087 3203.581958 5393.146889)
5(2597.556933 1159.525152 4116.874919 3290.504931 5463.995497)
5(2595.555864 1227.117879 4155.672265 3378.82255 5538.679246)
5(2594.800722 1301.330355 4198.527346 3477.453191 5616.666626)
5(2599.504627 1378.272808 4249.841355 3577.969172 5696.150791)
5(2608.763138 1465.285941 4307.344086 3690.298247 5790.905063)
5(2629.183876 1557.939311 4372.658385 3807.881797 5895.383902)
5(2660.772091 1660.86375 4450.55748 3942.823599 6005.737689)
5(2694.871802 1768.735077 4536.222161 4092.909522 6135.659725)
5(2745.762872 1896.757986 4639.702947 4249.44189 6280.112504)
5(2805.212007 2034.774805 4749.230513 4416.481775 6432.828476)
5(2879.633347 2189.237503 4883.654328 4606.933836 6603.955429)
5(2968.563203 2355.159785 5031.483457 4817.374525 6806.961006)
5(3075.539229 2541.267074 5197.97552 5050.090743 7006.982929)
5(3197.273973 2750.019989 5391.626434 5305.523577 7259.285512)
5(3333.665452 2978.112993 5601.347307 5584.203505 7516.687323)
5(3489.853896 3226.6684 5846.248641 5887.612656 7817.244721)
5(3665.47282 3497.727431 6108.740233 6237.59798 8143.355799)
5(3853.552652 3801.354601 6408.822513 6597.423377 8511.73365)
5(4064.300004 4115.360448 6736.415901 7006.435784 8904.695828)
5(4278.979771 4472.50255 7091.227774 7460.676051 9340.183205)
5(4513.31577 4837.914654 7491.951818 7947.59427 9798.69185)
5(4751.250106 5234.318827 7911.317179 8464.636701 10272.58369)
5(4985.259221 5667.216697 8378.622423 9011.369355 10781.4504)
5(5220.99735 6086.814476 8883.92478 9582.586635 11308.51901)
5(5450.849599 6566.718396 9414.674759 10171.07589 11871.53896)
5(5661.280211 7010.714306 9923.867463 10770.71184 12425.45084)
5(5826.166675 7460.219624 10424.4299 11359.07633 12897.28495)
5(5952.643761 7902.952818 10872.38679 11915.09201 13239.87535)
5(6049.377183 8258.207766 11265.9775 12397.20123 13450.08741)
5(6095.780524 8531.210173 11568.38557 12729.75009 13504.22316)
5(6057.72797 8661.178133 11816.955 12870.13817 13359.97448)
5(5959.617362 8711.993655 11905.79145 12815.12419 13015.92843)
5(5718.009673 8631.882975 11835.96213 12551.09513 12492.27777)
5(5471.734142 8446.625133 11563.98465 12081.99582 11798.03793)
5(5091.502627 8143.721589 11053.89617 11392.60352 10987.55521)
5(4659.671892 7686.847609 10345.01289 10526.65342 10056.45774)
5(4167.369816 7040.557537 9425.752097 9504.883912 9056.162431)
5(3619.444159 6227.156818 8336.222089 8388.609937 7963.319104)
5(2993.067959 5207.732885 7099.248429 7156.000352 6839.562687)
5(2227.824656 4080.457547 5760.90233 5852.096598 5682.433283)
5(1338.286616 2850.296239 4325.989476 4508.695944 4443.652475)
5(286.4670473 1508.216352 2808.002557 3079.290862 3139.562155)
5(-1022.346127 56.09375635 1234.00462 1515.689262 1724.578159)
5(-3236.720627 -2584.066438 -776.4705912 -836.811185 -444.9915375)
)


60
(
5(-71.31305965 -2086.269731 979.8272764 321.8082602 1705.782338)
5(1495.170292 -518.6320715 2295.655208 1297.842631 3126.484587)
5(2227.850314 242.408672 3076.819593 1893.33417 3952.571135)
5(2487.957703 538.4500997 3454.745607 2213.964398 4331.228844)
5(2603.41511 701.0515746 3582.384516 2377.644085 4442.901967)
5(2677.767875 842.2144542 3626.502919 2493.603633 4499.792546)
5(2714.384836 937.9264097 3686.118388 2589.544818 4577.792351)
5(2732.825202 1009.575409 3739.079414 2677.688935 4669.207339)
5(2734.068491 1059.516377 3768.093253 2745.670578 4747.940799)
5(2715.6937 1091.740281 3777.920555 2797.505168 4787.656524)
5(2683.865435 1112.750199 3768.186929 2833.714599 4816.23179)
5(2638.465791 1123.607439 3751.739844 2864.256063 4833.54839)
5(2584.731353 1125.477164 3728.158634 2887.7991 4847.284989)
5(2527.40163 1124.324768 3703.387362 2909.455365 4861.545916)
5(2467.00687 1119.371784 3673.336337 2931.590434 4871.394919)
5(2405.697965 1110.889615 3644.133971 2949.793198 4882.187678)
5(2340.389671 1103.552783 3614.077923 2966.310474 4893.516777)
5(2276.693414 1095.674876 3588.524328 2982.64156 4908.793658)
5(2213.248571 1089.703889 3558.273113 3009.025792 4921.453227)
5(2151.833739 1086.916027 3536.864141 3033.080323 4940.894963)
5(2096.465636 1085.648881 3519.672278 3067.051678 4965.90364)
5(2039.952625 1090.297609 3509.246818 3107.791323 4998.63238)
5(1992.229482 1098.81277 3499.844442 3153.258193 5040.37258)
5(1947.273774 1116.544642 3499.690177 3206.035562 5094.410718)
5(1914.907832 1141.126131 3510.479946 3274.676611 5157.101756)
5(1879.458405 1178.466856 3533.780081 3343.960549 5236.515248)
5(1858.494315 1211.825947 3565.630563 3441.154427 5327.680982)
5(1847.460189 1264.241014 3608.583894 3539.802735 5437.86933)
5(1840.746226 1322.079683 3666.633489 3668.937478 5559.141277)
5(1836.307081 1397.870174 3731.955408 3802.175795 5702.630275)
5(1845.036514 1487.119159 3822.435565 3962.866629 5866.434854)
5(1861.251763 1578.294916 3920.541522 4144.423257 6056.308283)
5(1876.671525 1689.703519 4045.130911 4347.631406 6283.610989)
5(1894.432443 1806.229714 4190.992765 4579.230629 6534.193693)
5(1913.671401 1936.751444 4343.731531 4838.429782 6821.979377)
5(1946.43551 2087.494174 4527.89543 5125.555278 7138.010848)
5(1948.877382 2234.948295 4735.123109 5440.35987 7485.588713)
5(1950.855797 2393.644255 4964.957016 5801.671212 7862.463695)
5(1931.007155 2571.093473 5237.520283 6192.74159 8294.001615)
5(1895.242808 2744.108711 5506.026274 6613.96833 8768.378785)
5(1847.493276 2939.679047 5804.81524 7075.221535 9289.06734)
5(1743.869971 3098.425234 6125.177821 7553.415442 9819.337492)
5(1622.260523 3265.681584 6431.351036 8061.831247 10342.83456)
5(1468.837636 3430.451586 6715.166828 8565.306946 10808.1182)
5(1295.242932 3571.251296 6990.908202 9038.479271 11174.33173)
5(1136.911298 3648.964114 7223.889692 9446.732162 11413.65648)
5(971.3125118 3672.749556 7409.316353 9701.433604 11502.44572)
5(826.4826201 3642.967095 7513.028855 9813.346009 11419.81501)
5(662.2338098 3597.762697 7500.402215 9777.422693 11155.60399)
5(484.8111313 3451.600677 7351.440041 9519.77008 10689.10617)
5(293.4597417 3263.0319 7024.917919 9065.075815 10034.05173)
5(69.08054591 2981.108387 6507.963734 8411.792685 9239.650873)
5(-195.5482337 2572.942508 5838.939916 7576.381147 8316.133448)
5(-522.3792996 2014.617888 5009.838036 6604.919665 7276.702036)
5(-919.9314094 1354.653343 4037.573025 5489.857031 6130.168656)
5(-1408.827268 570.8942826 2927.606132 4259.492451 4905.15552)
5(-1989.712726 -318.452549 1723.235363 2932.43785 3579.037975)
5(-2705.997196 -1306.515159 427.5670311 1500.257896 2154.920663)
5(-3635.925725 -2470.884614 -984.0231539 -19.31193733 626.4387196)
5(-5133.407882 -4349.498886 -3054.135863 -2449.045304 -1914.746616)
)


60
(
5(651.5712206 -962.502588 1738.816459 1326.041182 2522.010351)
5(2150.069182 539.1919062 2926.745548 2185.057928 3764.418005)
5(2835.145873 1241.61561 3611.564238 2691.461148 4461.921013)
5(3059.678258 1485.134998 3928.642378 2947.09336 4764.392118)
5(3153.23796 1596.595177 4017.979246 3058.160416 4851.025569)
5(3206.089825 1686.190722 4022.19252 3118.782808 4877.744674)
5(3217.197879 1726.273083 4029.608196 3159.938001 4910.324239)
5(3204.023024 1743.926711 4027.115819 3186.183634 4943.580411)
5(3176.033649 1739.699629 3999.721404 3193.149055 4961.216414)
5(3126.293733 1715.388276 3952.960394 3181.174309 4952.704685)
5(3060.196299 1679.111596 3890.225985 3158.200217 4927.761247)
5(2982.329131 1630.701822 3818.763014 3126.977279 4892.545484)
5(2897.400897 1576.063058 3739.528245 3087.526459 4850.171075)
5(2805.560272 1513.142043 3655.218127 3043.793621 4814.317006)
5(2708.409017 1447.976525 3567.788725 3000.854619 4765.556215)
5(2607.22573 1379.369088 3476.773351 2953.777549 4722.02697)
5(2504.824101 1306.607559 3385.292527 2902.538243 4672.743023)
5(2399.371804 1232.621824 3291.788922 2858.623378 4625.402818)
5(2294.167024 1159.002226 3201.682214 2808.573834 4584.430851)
5(2190.472129 1086.198857 3113.033964 2764.132369 4539.8634)
5(2087.703948 1014.619965 3025.658196 2722.623586 4504.948719)
5(1982.021932 943.8668236 2941.367455 2685.425568 4473.249318)
5(1881.48993 878.1014475 2863.557579 2648.680376 4447.967429)
5(1786.309477 818.2059831 2788.249797 2622.983085 4430.611872)
5(1690.411889 753.1616235 2716.635086 2606.162715 4417.58573)
5(1598.697007 698.3822784 2656.547654 2594.091261 4418.183692)
5(1509.232757 653.3973869 2593.976075 2590.278225 4431.534809)
5(1426.576822 609.7240764 2549.554542 2598.450633 4447.654725)
5(1344.250058 566.3347608 2505.674335 2619.800618 4496.635796)
5(1261.234216 533.576295 2473.262254 2651.481991 4544.263957)
5(1183.772664 505.7899963 2449.555236 2697.435934 4620.18573)
5(1099.096628 474.2567868 2439.753217 2762.589804 4707.607892)
5(1011.337558 465.5020429 2432.130898 2831.694651 4822.271085)
5(922.9385778 434.3991222 2443.461205 2941.842235 4954.969497)
5(817.3736321 417.7806641 2452.32071 3055.680123 5130.973423)
5(705.178776 395.0711436 2482.654697 3185.9158 5324.195192)
5(565.0846148 378.2181153 2525.318264 3352.768307 5548.94725)
5(403.4262974 358.8204587 2579.521854 3535.457074 5812.972176)
5(212.3279357 333.1680866 2647.674111 3754.598545 6114.2072)
5(-8.94455475 291.9229713 2728.559897 4007.479109 6483.639345)
5(-274.5163101 239.6622424 2815.42825 4301.367649 6879.485216)
5(-562.5383312 172.5253316 2932.272794 4607.720091 7338.639139)
5(-890.9108835 90.69225375 3016.070307 4956.325673 7804.667926)
5(-1219.846347 31.99704018 3127.486545 5345.561055 8256.968004)
5(-1540.880577 -58.68313794 3218.586159 5725.598887 8652.301272)
5(-1823.285564 -144.0401044 3322.925404 6074.874149 8986.352861)
5(-2068.071479 -214.2086878 3381.957218 6355.506132 9206.347246)
5(-2247.990537 -315.1022071 3429.81759 6496.766609 9284.446472)
5(-2354.202267 -407.7247079 3421.529541 6517.325569 9194.427015)
5(-2495.806151 -507.503461 3292.090111 6391.233114 8919.757383)
5(-2553.946277 -585.7532456 3059.007439 6083.722084 8420.346538)
5(-2626.499123 -771.622007 2693.897564 5580.291498 7776.787909)
5(-2731.131691 -998.9421065 2184.725413 4927.143031 6941.780575)
5(-2915.457321 -1354.571471 1570.46407 4083.729683 5953.987155)
5(-3149.785324 -1797.269454 830.643415 3114.143211 4820.156698)
5(-3498.176419 -2345.180336 -22.37855339 2007.158568 3541.54955)
5(-3929.524 -3000.7738 -996.8007497 755.5091202 2192.863691)
5(-4493.705504 -3772.664629 -2080.146692 -577.0630934 737.4451949)
5(-5202.722893 -4729.018437 -3339.616018 -2014.346476 -873.5182912)
5(-6281.458827 -5911.861896 -5414.580486 -4326.264066 -3415.120075)
)


60
(
5(1349.992448 130.447151 2490.650393 2328.877949 3346.226347)
5(2842.818319 1612.040786 3610.430478 3115.025314 4474.522265)
5(3530.026382 2298.190673 4248.209945 3560.351039 5088.960751)
5(3761.981207 2527.18622 4533.76645 3768.817178 5339.766583)
5(3867.986233 2623.640522 4601.374452 3838.47194 5390.35317)
5(3932.746974 2696.238501 4580.90519 3856.966536 5383.236594)
5(3954.038142 2720.575544 4560.40733 3853.320366 5376.847894)
5(3948.904431 2719.67602 4526.833725 3831.468274 5360.529638)
5(3926.570196 2697.384192 4468.269952 3791.047972 5330.91487)
5(3883.765135 2655.910187 4389.548933 3734.761114 5277.455992)
5(3823.380445 2598.218723 4295.412721 3661.97223 5205.498065)
5(3750.73271 2530.119113 4190.484623 3580.300624 5124.006279)
5(3669.898668 2453.338374 4078.225851 3493.56048 5037.142256)
5(3583.108462 2369.061977 3960.066386 3400.23854 4946.87059)
5(3488.852915 2280.382318 3838.708403 3305.5388 4855.945482)
5(3390.037632 2186.333343 3713.185045 3203.620534 4762.506601)
5(3286.857466 2089.05415 3584.945112 3103.248786 4662.555921)
5(3181.528325 1988.275886 3450.523305 3003.622927 4566.19612)
5(3076.184504 1890.037282 3323.702124 2900.014033 4467.647545)
5(2967.240465 1786.467628 3190.115248 2797.872598 4373.516172)
5(2858.787932 1684.327696 3058.605068 2699.781234 4278.268896)
5(2750.866382 1582.742409 2930.997149 2599.370799 4190.923297)
5(2642.551956 1482.618081 2806.326378 2505.785998 4105.813505)
5(2538.04466 1381.22495 2682.409509 2416.538591 4024.339563)
5(2426.188993 1287.429995 2561.979077 2326.85359 3951.802456)
5(2323.978905 1177.38057 2438.91226 2249.739641 3886.049339)
5(2218.807908 1095.267948 2322.010673 2173.327783 3823.416632)
5(2115.283891 1003.293115 2229.256389 2104.184602 3771.601518)
5(1999.045049 917.1670357 2110.265217 2035.669417 3734.234146)
5(1894.404855 822.425114 2008.368496 2002.010709 3702.478675)
5(1774.679631 730.4010803 1909.602367 1941.283281 3693.818715)
5(1658.053163 646.7667806 1824.792032 1904.749994 3688.981387)
5(1525.960275 546.54492 1727.883339 1877.257193 3704.364139)
5(1379.965935 451.3090496 1630.077155 1869.370765 3735.659398)
5(1220.644925 346.4482163 1566.149448 1865.87714 3799.835676)
5(1035.644151 213.1569341 1467.08353 1878.902505 3882.969437)
5(816.6833171 105.1225644 1383.163504 1920.028742 3988.089264)
5(568.6418463 -44.49495031 1305.753703 1954.573409 4122.48877)
5(276.8668195 -216.6095603 1218.841156 2004.437539 4289.495684)
5(-58.56134265 -393.3452615 1153.385648 2085.580274 4508.379621)
5(-428.548211 -607.4209865 1063.01744 2204.933684 4781.367811)
5(-831.3839024 -826.7582394 977.1638318 2338.182107 5101.351338)
5(-1253.26152 -1077.664353 913.2912664 2522.505215 5453.140169)
5(-1672.711403 -1332.403401 826.2318808 2725.037162 5816.20735)
5(-2061.33635 -1557.493043 744.1755207 2955.434291 6167.763175)
5(-2424.126969 -1772.371814 676.7218781 3187.014283 6493.846861)
5(-2702.60276 -1991.650062 626.5759967 3388.661183 6731.562804)
5(-2922.682168 -2119.720722 607.6905737 3508.112059 6867.021982)
5(-3058.029586 -2216.330036 558.9096896 3536.959553 6874.509128)
5(-3148.267596 -2267.276739 450.3995712 3441.559512 6729.644909)
5(-3173.037033 -2282.351909 282.5824794 3218.485318 6395.693288)
5(-3182.424334 -2335.003398 40.86495061 2845.819932 5877.206235)
5(-3164.254516 -2442.558919 -327.9347946 2328.745582 5176.431466)
5(-3188.134243 -2649.206726 -756.4644825 1658.012975 4290.218062)
5(-3278.812708 -2950.551225 -1318.534881 851.7089908 3250.866525)
5(-3453.133705 -3335.0952 -1950.588882 -78.8668757 2053.825915)
5(-3764.37185 -3833.221119 -2700.101674 -1138.59794 736.7339254)
5(-4186.168484 -4457.529252 -3580.905158 -2314.405463 -703.4792403)
5(-4736.273964 -5242.603451 -4692.276462 -3662.247891 -2283.840953)
5(-5532.23804 -6289.524642 -6230.770383 -5751.733765 -4773.291304)
)


60
(
5(2005.944745 1155.428265 3209.44875 3289.850179 4144.728743)
5(3528.996893 2652.860394 4304.400669 4025.97037 5186.802182)
5(4249.314024 3356.200985 4929.173378 4431.624706 5732.537067)
5(4516.367839 3598.959227 5209.451793 4605.102455 5933.004337)
5(4659.005231 3709.835693 5275.887207 4644.243008 5943.759938)
5(4760.745575 3798.532875 5254.159874 4629.605213 5896.873703)
5(4815.751802 3836.471336 5232.085559 4595.259843 5844.426933)
5(4844.969633 3848.25522 5191.815136 4537.743585 5782.915412)
5(4855.186908 3837.324416 5128.751203 4463.891784 5704.38982)
5(4845.202462 3806.267683 5040.520215 4370.065832 5602.809793)
5(4817.125633 3761.929982 4942.690079 4264.599025 5483.428352)
5(4777.571262 3704.651509 4829.655059 4145.796575 5353.64086)
5(4727.013691 3636.301785 4708.949536 4021.401701 5218.536447)
5(4668.715638 3564.415994 4584.207404 3890.814011 5077.714009)
5(4604.429821 3482.452604 4451.140592 3755.086571 4933.572887)
5(4535.061828 3396.188774 4314.979329 3618.029277 4786.294057)
5(4463.066633 3306.759507 4175.580319 3475.329568 4636.873811)
5(4384.226116 3213.611537 4035.769101 3333.853718 4488.190023)
5(4306.302918 3117.328491 3887.470484 3185.429512 4334.577169)
5(4221.688336 3024.621506 3744.822523 3043.219138 4184.402579)
5(4136.233915 2919.737033 3596.40516 2895.24677 4032.297803)
5(4053.219305 2822.137569 3454.044316 2752.095077 3883.681834)
5(3967.493875 2723.252972 3307.777728 2614.269841 3739.009266)
5(3881.972578 2619.138737 3160.22255 2472.157468 3597.742109)
5(3792.960875 2521.895421 3027.505861 2335.202195 3455.418407)
5(3708.360603 2418.068382 2875.389987 2195.72692 3321.536236)
5(3617.24337 2324.60394 2741.118329 2061.048696 3194.757139)
5(3522.335265 2226.785678 2599.404744 1933.497365 3077.492943)
5(3422.828965 2118.803545 2458.861511 1815.43128 2961.815768)
5(3324.674811 2009.285227 2320.805862 1694.502204 2852.147565)
5(3211.296835 1908.251259 2184.429572 1568.923377 2750.210226)
5(3091.440668 1794.739911 2037.252835 1459.846996 2654.479816)
5(2952.894515 1664.947987 1914.241867 1358.784739 2576.306771)
5(2793.976621 1546.536149 1755.720917 1243.38244 2504.545501)
5(2617.358543 1392.368314 1609.559617 1150.487457 2449.830086)
5(2404.421768 1233.864384 1462.070241 1060.952802 2416.310413)
5(2163.54998 1055.344856 1284.737276 963.3091485 2389.511939)
5(1871.961849 835.1555609 1131.040577 890.4293727 2399.792104)
5(1538.863969 588.8044089 948.9456014 823.3828403 2420.336339)
5(1154.757733 330.7656829 743.9921128 772.0038744 2482.512432)
5(730.4904542 12.45428896 541.4556374 703.5543379 2629.169785)
5(283.0256822 -315.7708715 300.4629504 683.3379817 2776.520159)
5(-172.9429239 -665.1574659 95.04485161 686.7059391 2982.384164)
5(-631.5142839 -1036.568949 -158.0334172 717.5534107 3208.516955)
5(-1054.927904 -1373.348359 -377.2262626 783.4527257 3449.257771)
5(-1432.257662 -1686.124525 -573.1725045 855.8717305 3643.288246)
5(-1728.322816 -1943.508535 -716.5120524 905.5383811 3845.304073)
5(-1995.067763 -2126.801667 -848.0513048 951.2745204 3969.922019)
5(-2162.075447 -2241.433947 -909.5962754 936.7408241 3988.952122)
5(-2238.19808 -2267.523105 -991.0205631 844.8817828 3900.869582)
5(-2285.683668 -2251.932706 -1092.257491 665.3855493 3660.591804)
5(-2254.383761 -2239.781565 -1238.227053 394.2745258 3222.796783)
5(-2214.249097 -2264.51924 -1444.576703 -4.255598689 2654.959007)
5(-2122.792195 -2309.719083 -1766.389131 -490.2973709 1924.282637)
5(-2090.3383 -2462.16018 -2129.215059 -1140.32281 1011.637957)
5(-2131.822632 -2714.851221 -2630.267038 -1877.97672 -32.18737645)
5(-2250.003537 -3069.709852 -3243.096056 -2732.183551 -1233.414632)
5(-2486.809164 -3554.0642 -3992.678256 -3732.331784 -2580.098668)
5(-2882.162172 -4190.639083 -4909.528935 -4949.833213 -4097.694806)
5(-3448.314187 -4964.862425 -6328.383529 -6996.989329 -6319.02637)
)


60
(
5(2610.953888 2097.235209 3882.594686 4186.984118 4902.187055)
5(4171.077073 3630.986733 4997.993794 4917.542154 5897.668712)
5(4928.646028 4368.15538 5648.939538 5326.133816 6411.327551)
5(5233.197268 4643.571725 5959.905371 5505.545376 6589.653573)
5(5412.219718 4787.500077 6058.672421 5551.379399 6586.071366)
5(5552.236002 4908.361957 6071.513733 5544.26654 6524.133393)
5(5643.769042 4977.888099 6080.761097 5513.697505 6451.667914)
5(5707.913468 5020.527521 6070.195237 5461.150826 6371.225809)
5(5753.079808 5038.758788 6036.750379 5390.778644 6272.193204)
5(5777.056557 5039.574409 5978.982925 5301.037236 6146.994629)
5(5784.186293 5023.123947 5908.655943 5199.718899 6008.876635)
5(5778.303501 4996.104822 5825.561854 5084.86973 5857.735598)
5(5761.53049 4957.58592 5733.026105 4961.167552 5699.778044)
5(5735.709261 4912.789473 5634.405317 4832.36315 5538.551669)
5(5704.501257 4857.50596 5530.703279 4698.198464 5371.115381)
5(5665.101185 4801.068182 5424.847607 4563.157895 5198.661643)
5(5622.644042 4740.09932 5306.16003 4419.885882 5023.526554)
5(5576.395106 4671.262377 5196.088153 4274.569702 4846.877852)
5(5523.673284 4600.217234 5070.613936 4126.114091 4670.237201)
5(5472.245005 4528.304341 4952.39125 3978.644637 4488.886502)
5(5416.681799 4454.526527 4828.681844 3830.647165 4308.105454)
5(5358.103859 4380.129173 4709.207203 3687.790787 4132.579854)
5(5300.759539 4297.078172 4578.955372 3534.607938 3957.42895)
5(5235.273934 4222.322501 4459.88047 3388.782243 3780.108472)
5(5175.71468 4128.195649 4333.50498 3242.9486 3608.096252)
5(5112.629548 4067.45401 4209.150553 3094.606077 3434.457414)
5(5038.192777 3969.88496 4084.602291 2943.01941 3264.560531)
5(4957.29388 3884.729669 3949.239256 2808.136564 3109.31622)
5(4883.416776 3793.706569 3832.509843 2674.962847 2939.65787)
5(4792.947023 3700.277626 3699.529184 2505.514184 2787.544799)
5(4693.975454 3613.28583 3586.638409 2391.288782 2628.877974)
5(4578.215339 3485.454034 3429.199898 2257.951037 2487.715957)
5(4443.130709 3372.033271 3291.380634 2101.42577 2345.124274)
5(4285.529744 3233.758986 3146.489002 1959.944801 2211.118176)
5(4093.259017 3086.306341 2970.357432 1829.692618 2082.098731)
5(3871.8893 2905.073823 2814.605406 1674.377606 1959.854973)
5(3602.693778 2696.991522 2615.926197 1534.649685 1851.202972)
5(3290.352521 2460.677712 2401.623181 1366.295728 1745.380693)
5(2936.027488 2163.903176 2172.851715 1240.135907 1668.903236)
5(2534.612377 1838.469511 1907.958755 1087.854722 1614.932232)
5(2094.160704 1456.525232 1637.0497 910.6059901 1602.064953)
5(1629.642203 1080.575885 1329.519546 771.9695372 1622.354053)