/*--------------------------------*- C++ -*----------------------------------*\
| =========                 |                                                 |
| \\      /  F ield         | OpenFOAM: The Open Source CFD Toolbox           |
|  \\    /   O peration     | Version:  2.3.1                                 |
|   \\  /    A nd           | Web:      www.OpenFOAM.org                      |
|    \\/     M anipulation  |                                                 |
\*---------------------------------------------------------------------------*/
FoamFile
{
    version     2.0;
    format      ascii;
    class       dictionary;
    location    "constant";
    object      GRPSI48;
}
// * * * * * * * * * * * * * * * * * * * * * * * * * * * * * * * * * * * * * //

GRPSI48_table
60
(

60
(
5(-0.0005896343784 0.001868286539 0.002293506174 0.003515351697 0.006769898502)
5(-0.0007955743155 0.0009273337421 0.001606380378 0.001759923435 0.002957327915)
5(0.0009774714883 0.0008813949929 0.0005577683241 -0.0008813949929 -0.002093008137)
5(0.001106713047 0.0009485542246 -4.696296952e-05 0.001283475317 0.003451271975)
5(0.001010222672 0.0009608203317 0.0005225833177 0.0006261464183 0.001118544193)
5(0.0002039128122 0.0001430528255 0.0006044559041 0.0007290037354 0.0003312885013)
5(4.984312877e-05 0.0001980755523 0.0003866887523 0.001369428732 0.002311787935)
5(0.0003648759169 0.0005763363364 0.0005061372177 8.050113805e-05 -6.34754033e-05)
5(1.610454413e-05 0.0002839734793 0.0005176171417 0.0005625612704 0.000641730672)
5(1.886091005e-05 0.0003824350515 0.0004278615137 0.0005210267394 0.0009323396446)
5(-3.606625705e-05 0.0003414214184 0.0004484646036 0.0005519866514 0.0009259531895)
5(0.0001404416414 0.0003508866218 0.0004619577554 0.0005346777708 0.0007067716329)
5(0.0003746686358 0.0004400878535 0.0005236466493 0.0006330720432 0.000724357859)
5(0.0003148065543 0.0004180835044 0.0004268017366 0.000549256341 0.0007662696633)
5(0.0003454814298 0.0004243354765 0.0005001944767 0.0005688680053 0.0006405365804)
5(0.0003433277557 0.0004330344403 0.0004978516632 0.0005616166736 0.0006502711458)
5(0.0003347640934 0.0004415061075 0.0005114216929 0.000618311619 0.0007620279737)
5(0.0003488746202 0.000450863416 0.0005544906846 0.0006528689156 0.000749608674)
5(0.0003730595466 0.0004705329423 0.0005559939641 0.0006693503736 0.0007947191569)
5(0.0004008305624 0.0004932129921 0.0006112928029 0.0006394993188 0.0006420084536)
5(0.0003833814909 0.0004791362709 0.0006253798899 0.0006707112677 0.0006655538066)
5(0.0003869412726 0.000507190661 0.0005149587091 0.0005604966729 0.0007185159769)
5(0.0003919418736 0.0005003716664 0.000605651252 0.0006913889583 0.0007802768717)
5(0.0004783962661 0.0005317087015 0.000600280453 0.0006887422635 0.0007619447579)
5(0.0004958679225 0.0005636558075 0.0006627361274 0.000742131906 0.0007902352498)
5(0.0005261574917 0.0006353042933 0.0007533492884 0.0007206738485 0.0006791002152)
5(0.0005163741438 0.0006224960624 0.0008319269966 0.0008027731229 0.0006703102335)
5(0.000549136789 0.0006954925673 0.0008940888003 0.0007985149155 0.0006507005759)
5(0.0005736594811 0.0006878223648 0.0008935902834 0.0008747541947 0.0007643130713)
5(0.0006567222309 0.0007137472941 0.000839959675 0.0008790611091 0.0008489752257)
5(0.0007089684901 0.0007828676958 0.0009212697555 0.0008906060489 0.0007954394884)
5(0.0007286413317 0.000780439984 0.0008579608075 0.0006728647229 0.0004620464671)
5(0.0008173041922 0.000856716055 0.0008782425952 0.0009315473688 0.001002737465)
5(0.0009045109461 0.0009517231722 0.0008389576513 0.0005310694998 0.0003831590953)
5(0.0009139798664 0.0009587245757 0.0008567010879 0.0005187456353 0.0003275583798)
5(0.001089497506 0.00116306725 0.0008216383528 0.0003080001514 0.0002093605919)
5(0.0009232099668 0.000907107873 0.0007553154294 0.0005977844241 0.0005759437686)
5(0.001095114655 0.0009196161577 0.0007376257298 -0.0002512469358 -0.001233627671)
5(0.001031151352 0.0009835262956 0.0006276710612 0.0003480121171 0.0003765833508)
5(0.000934733242 0.001038375658 0.0006218935966 -0.002889681836 -0.005881132791)
5(0.0007290295995 0.0007755561455 0.0005066004896 -0.002718427079 -0.005627972446)
5(0.0007387174429 0.0006850434329 -0.0004951899362 -0.002807628333 -0.003993507371)
5(0.0003911582759 0.0004590394425 -0.002539745545 -0.002687211798 0.0002319881029)
5(0.0004318532783 0.00107428076 -0.002702942912 -0.003287988506 0.0005466170521)
5(7.081740541e-05 0.0006973368171 -0.002638318841 -0.003073334826 0.0004538242596)
5(0.0003750987184 0.0002296497325 -0.002683807744 -0.002457157974 0.0005375002864)
5(4.02564513e-05 -0.001832888744 -0.002378050582 -0.0001873935065 0.0006752802104)
5(-0.001309056552 -0.002403711653 -0.001456835599 0.0007472804732 0.0009098653921)
5(-0.001022098999 -0.002351550774 -0.001361510929 0.0010669035 0.001175826309)
5(-0.004869265026 -0.002081201226 0.0009639017967 0.001358891723 0.001496842426)
5(-0.00411227248 -0.001561498885 0.001266468521 0.001712689947 0.001881717562)
5(-0.0005237585226 0.0003621742856 0.001587172083 0.002137901796 0.00234956652)
5(0.0009820393848 0.001271527117 0.001974001734 0.002648000208 0.002909011797)
5(0.001447984711 0.001701003763 0.002437116657 0.003262262698 0.003604314898)
5(0.001775597883 0.002099856454 0.002994433135 0.003982527153 0.004400303061)
5(0.001939543725 0.002462597656 0.003633716243 0.004815843239 0.005349905579)
5(0.001817691502 0.002731826727 0.004369987252 0.005704325063 0.006314637574)
5(0.002380764425 0.003230302816 0.004998129767 0.00663115061 0.007345882892)
5(0.003436977286 0.004293796172 0.004620121553 0.007269709132 0.01044979022)
5(0.005182126253 0.006255284726 0.009222242757 0.01073685177 0.01035766123)
)


60
(
5(0.0005183310326 0.002897807297 0.003775511209 0.005249920209 0.00822610156)
5(0.001260379531 0.002217976193 0.00300008729 0.003906998149 0.004989394575)
5(0.001651823872 0.001924099262 0.002635404076 0.003281274832 0.003488116165)
5(0.001795967616 0.001932099606 0.002590601103 0.003181277597 0.003249584585)
5(0.001788757626 0.002063261072 0.002691191813 0.003398859432 0.003753099755)
5(0.001730698211 0.00216802061 0.002802558846 0.003671260551 0.00434274642)
5(0.001727089451 0.002212716332 0.002869716809 0.003786355914 0.004531621424)
5(0.001772016018 0.002234672839 0.00289832893 0.003788321562 0.004477314921)
5(0.001826390753 0.002248230424 0.002916572795 0.003778388309 0.004393701123)
5(0.001871747716 0.002272254791 0.002950023578 0.00381210644 0.004396927589)
5(0.001914270976 0.002314649566 0.00299639892 0.003877323025 0.004476876366)
5(0.001948549696 0.002365847738 0.003048623564 0.003948591018 0.004583080689)
5(0.001989373313 0.00241741976 0.003101443894 0.004004444907 0.004651468234)
5(0.002036569701 0.002467733155 0.003158346467 0.004057350491 0.004696904657)
5(0.002087528969 0.002519452503 0.003213576193 0.004112377835 0.004748979322)
5(0.002143861186 0.002577538007 0.003272239192 0.004170628319 0.004807993081)
5(0.002204288119 0.002642446467 0.003338808139 0.004235489797 0.004873968131)
5(0.002270569668 0.002712247823 0.00341027673 0.004305985447 0.004945343412)
5(0.002339666371 0.002786887223 0.003491437535 0.004383767471 0.005018767948)
5(0.002419623917 0.002868726453 0.003579359793 0.004472939926 0.005104989256)
5(0.002507228642 0.002958486252 0.003672829994 0.004562062815 0.005188209504)
5(0.002604223615 0.003056115379 0.003774311193 0.00466092349 0.005281231737)
5(0.002713122365 0.00316615665 0.003880521559 0.004771042137 0.005400232091)
5(0.002831978871 0.003286406777 0.00399247825 0.004882126913 0.005520132011)
5(0.002961306851 0.003416586873 0.004121402998 0.005006912336 0.005642885571)
5(0.003104545955 0.003565898424 0.004265974455 0.005132525001 0.005760351984)
5(0.003255512491 0.003723862471 0.004423039177 0.005264589663 0.005875313422)
5(0.003428954458 0.00389399648 0.004581163724 0.0053934373 0.005983585653)
5(0.003611945815 0.004076857449 0.004741312418 0.005529370114 0.006117884476)
5(0.00380452774 0.004269532409 0.004906842758 0.005647835553 0.006216522667)
5(0.004005315779 0.004469252515 0.005070514588 0.005761105331 0.006314370737)
5(0.00421553725 0.004671315279 0.005228573786 0.005848758413 0.006367462563)
5(0.004429010516 0.004877544725 0.005372070092 0.005902526255 0.00638699126)
5(0.004643647514 0.005078780494 0.005493652007 0.005902208896 0.006331027251)
5(0.004852598472 0.00526911834 0.005581980359 0.005849354191 0.006220385873)
5(0.005037496419 0.005436760067 0.005630645214 0.005732246087 0.006039225461)
5(0.005200045491 0.005576618201 0.005621446617 0.005567814021 0.005845925719)
5(0.005319380384 0.005663963335 0.005555516967 0.005348173749 0.005593859851)
5(0.005373758354 0.005690080317 0.005426136073 0.00499103656 0.005136203253)
5(0.005386806621 0.005644840676 0.005192115067 0.004407589829 0.004333824256)
5(0.005297700698 0.005501127813 0.004852444812 0.003548386915 0.003096439135)
5(0.005175071779 0.005299444937 0.004329652059 0.00245122812 0.001666970216)
5(0.004866924618 0.004988765465 0.003607152844 0.00123080811 0.0003579168446)
5(0.004409301999 0.004598486349 0.002681152276 1.485618559e-05 -0.0005449214818)
5(0.003924837381 0.004088364055 0.001559524632 -0.001114309676 -0.001095777887)
5(0.003408130797 0.00339836773 0.0003657521563 -0.002046807766 -0.001436515181)
5(0.002883558725 0.002496942995 -0.0007847429092 -0.002663854573 -0.001647896062)
5(0.002227376444 0.001448070626 -0.001755352223 -0.002949342252 -0.00171921525)
5(0.001359187294 0.0003765717704 -0.002439244671 -0.002914406242 -0.001556366895)
5(0.0002456571554 -0.0005709851042 -0.002722238324 -0.002591921273 -0.001126993263)
5(-0.0009366617826 -0.001276777475 -0.002592233087 -0.002029091705 -0.0004906104034)
5(-0.001789182838 -0.00160420531 -0.002111228965 -0.001244442355 0.0003143454378)
5(-0.002018194208 -0.001473182168 -0.001391194768 -0.0003057001608 0.001242819087)
5(-0.001580167383 -0.0008997225763 -0.00047905043 0.0008103887762 0.002359600643)
5(-0.0005590514291 4.681696531e-05 0.0006192994947 0.00207932212 0.00357273061)
5(0.0007720185726 0.001232376455 0.001894439878 0.003528916381 0.004961687345)
5(0.002255732786 0.002591662984 0.003343527689 0.005146263233 0.006533064271)
5(0.003788359424 0.004027401535 0.004944269079 0.006955225752 0.008288356993)
5(0.005196795515 0.005440654019 0.006726353061 0.009030347266 0.01029250093)
5(0.006746182187 0.006381426513 0.008751901462 0.01213242131 0.01277771053)
)


60
(
5(0.001335941965 0.00384231244 0.005137335842 0.006787376941 0.009648765111)
5(0.002138183614 0.003285421318 0.004430211454 0.005641250828 0.00685473777)
5(0.002585050185 0.00304561637 0.004099317765 0.005186395738 0.005680338501)
5(0.002758409279 0.003094317974 0.004089462552 0.005144275657 0.005539852879)
5(0.002771942528 0.003240237422 0.004215312227 0.005365844872 0.006009597606)
5(0.002742149055 0.003362960844 0.004345498059 0.005626403227 0.006545582969)
5(0.002760289539 0.003437617526 0.00443210621 0.005747820728 0.006746374549)
5(0.002827830733 0.003481193695 0.004480474851 0.005781498748 0.006736604451)
5(0.002906668638 0.00351735835 0.004521908917 0.00580337447 0.006690979167)
5(0.002974304778 0.003563772294 0.004576931241 0.005873446202 0.006746269731)
5(0.003036401333 0.003629146759 0.004646672326 0.00595647943 0.006841506392)
5(0.003094300383 0.003701860617 0.004722359315 0.006043880984 0.006952464188)
5(0.003159000067 0.00377696294 0.004798137067 0.006122861772 0.007044375222)
5(0.003232260773 0.00385279567 0.004874469001 0.006197112161 0.007118616887)
5(0.003309483641 0.003931833541 0.004952980391 0.006274031811 0.00719628628)
5(0.003391920166 0.004015550847 0.005037879743 0.006357634986 0.007278692015)
5(0.003477354372 0.004107055691 0.005131921138 0.006450245519 0.007373405773)
5(0.003572502333 0.004205284631 0.00523268577 0.0065468757 0.007466446788)
5(0.00367476165 0.004312758068 0.005341740075 0.006654385355 0.007576045045)
5(0.003786213521 0.004427416985 0.005461702882 0.006772044772 0.007689304227)
5(0.003912560305 0.004553963365 0.005588803251 0.006901897354 0.00782155463)
5(0.004044952392 0.004687932767 0.005724122753 0.007039605774 0.007961879183)
5(0.004195927645 0.004840759147 0.005874014054 0.0071860642 0.008109690941)
5(0.004355465999 0.005005541421 0.006034543427 0.007343899844 0.008274329677)
5(0.004534744819 0.005188431713 0.006211286648 0.007512433116 0.008444411542)
5(0.004726026214 0.005384344816 0.006406258874 0.007688806282 0.008607758233)
5(0.004934000088 0.005597050618 0.006614727168 0.007882015612 0.008794678037)
5(0.005168357332 0.005830124006 0.006834041338 0.008068441388 0.008960690779)
5(0.005408891916 0.00607468693 0.007059868336 0.008269499964 0.0091597452)
5(0.005668966962 0.0063383802 0.007296354607 0.008458742197 0.009332568619)
5(0.005952193467 0.006615563356 0.0075304993 0.008641078657 0.00950009196)
5(0.006242448191 0.006900855545 0.00776680518 0.00880835468 0.009642361901)
5(0.006535411681 0.007195220281 0.007999918718 0.008933872034 0.009722935513)
5(0.006845762244 0.007490781318 0.008209695021 0.009025095711 0.009766601773)
5(0.007154300609 0.0077791604 0.008395044092 0.009058595345 0.009731122696)
5(0.007468415122 0.008067798563 0.008545756057 0.009036565576 0.009648801044)
5(0.00772020306 0.00831045551 0.008652380194 0.0089596022 0.009515151973)
5(0.007989249928 0.008533520219 0.008698313255 0.008812755183 0.009306674365)
5(0.008192495585 0.008687548662 0.008666648774 0.008514671912 0.008878648015)
5(0.008347270032 0.008784323911 0.008542979562 0.007992045843 0.008119510352)
5(0.008460803228 0.008818772826 0.008292415571 0.007171675548 0.006935262379)
5(0.008444344263 0.008730699374 0.007864862831 0.006110768624 0.005508866071)
5(0.008355057361 0.008572166038 0.007208835481 0.004855192026 0.004081987805)
5(0.008113254096 0.008295725608 0.006302822454 0.003500901046 0.002874354305)
5(0.007748820347 0.007865686947 0.005183125409 0.002151538313 0.001919379357)
5(0.007310924737 0.007221308483 0.003891045855 0.0008843980308 0.001118396581)
5(0.006827246247 0.006338471775 0.002543209543 -0.0001921203612 0.0003790374942)
5(0.006170438683 0.005237409979 0.001263884104 -0.001004851493 -0.0002330899197)
5(0.005230785911 0.00401836863 0.0001799335988 -0.00152803613 -0.0006099881083)
5(0.003978542032 0.002790808476 -0.0006081859316 -0.001742529559 -0.0006656123354)
5(0.002551226862 0.001701845674 -0.001020158793 -0.001636388422 -0.0003799947711)
5(0.001254630232 0.0008795617087 -0.001072069409 -0.001243147722 0.0001623365603)
5(0.0004475754272 0.0004533307588 -0.0007994254963 -0.0005573068034 0.000943323476)
5(0.0002594280608 0.0004760059223 -0.0002339693781 0.0004092598865 0.001979042313)
5(0.0006182378986 0.0009337396084 0.0006497952626 0.001648405577 0.003246461947)
5(0.001436960448 0.00176604491 0.001812574859 0.003141168093 0.00475231584)
5(0.002597824872 0.002893084636 0.003234591729 0.004874303539 0.006467768019)
5(0.003915162045 0.004204327855 0.004911809706 0.006857106685 0.008384087623)
5(0.005323588409 0.005655392504 0.006793339655 0.009084153788 0.01056882486)
5(0.007054298593 0.006771983219 0.008967590083 0.01249994492 0.01355437752)
)


60
(
5(0.002087116037 0.00472999578 0.006393529112 0.008189030141 0.01096387758)
5(0.002941437222 0.004239317103 0.005709404711 0.007208074392 0.008534536346)
5(0.003444242448 0.004063556986 0.005407276019 0.006842101541 0.007552522567)
5(0.003648093837 0.004150956204 0.0054227562 0.006840391416 0.007489089004)
5(0.00367879194 0.004311149612 0.00556440397 0.007062774882 0.007940249107)
5(0.003665603216 0.004443190151 0.00570818063 0.007324100823 0.008452617471)
5(0.003704391674 0.004535298862 0.005806492566 0.007455537207 0.008664295332)
5(0.003788866894 0.004599072269 0.005871460136 0.007508836787 0.008684030946)
5(0.003883383355 0.004654772496 0.005931458305 0.007552578125 0.008668401277)
5(0.003968714256 0.004719260891 0.006002315106 0.007634908495 0.008734994306)
5(0.004046040725 0.004798848613 0.006084814478 0.007731150586 0.008844328716)
5(0.004123336482 0.004887411833 0.006172678953 0.007832424788 0.008970978853)
5(0.004204500626 0.004978813588 0.0062640959 0.007925668223 0.009076271196)
5(0.004293224658 0.005071658617 0.006356951762 0.008010128106 0.009156445264)
5(0.004386522946 0.005168027624 0.006451344184 0.008104673957 0.00925619185)
5(0.004486919626 0.00527138215 0.006551589259 0.008201568353 0.009355802863)
5(0.00459345538 0.005381711436 0.006661342626 0.008310068267 0.009467418773)
5(0.004705706193 0.005498399712 0.006778165597 0.008428293294 0.009591348624)
5(0.004828798777 0.005625315861 0.006906887585 0.008552237478 0.009712532732)
5(0.004962596301 0.005761920345 0.007046061249 0.008692474939 0.00985407177)
5(0.005106673462 0.005911480358 0.0071984498 0.008840388638 0.01000016493)
5(0.005265155044 0.006071768662 0.00735720756 0.009000912266 0.01016579169)
5(0.005437021822 0.006247798351 0.007533728881 0.009175305346 0.01034172781)
5(0.00562643523 0.006440788297 0.007726181384 0.009364708317 0.01053219523)
5(0.005828066808 0.006653133332 0.007934559039 0.009572537609 0.010754157)
5(0.006057264494 0.006886297382 0.008160535959 0.009783569689 0.01096139773)
5(0.006300295228 0.007137359827 0.008407478077 0.01000718281 0.01117383389)
5(0.006567863567 0.007410229831 0.008669076589 0.01025039975 0.01141524242)
5(0.006850011473 0.007700134622 0.008941545881 0.01048123021 0.01162962642)
5(0.007154466166 0.008011263223 0.009229434839 0.01073806274 0.01188531609)
5(0.00748166712 0.008340931256 0.009524764401 0.01097515338 0.01210097334)
5(0.007824009723 0.008682355107 0.009825206093 0.01121861231 0.01232751292)
5(0.008179746391 0.009044398674 0.01012679659 0.01142296203 0.01250138183)
5(0.008558925759 0.009417420216 0.01041980444 0.01160263544 0.01264157667)
5(0.008936103924 0.009787265839 0.01069899954 0.01172982841 0.01270008548)
5(0.009324242975 0.01015732885 0.01095616885 0.01182150503 0.01272108708)
5(0.009701723779 0.01051449988 0.01117999511 0.01186242522 0.01269213619)
5(0.01005538775 0.01084887885 0.01135299638 0.0118166683 0.01256971379)
5(0.01039951955 0.01115630229 0.01146158091 0.01164924884 0.01228842089)
5(0.01070817286 0.01141470995 0.01148556729 0.01124361776 0.01163734797)
5(0.01096036022 0.01159624314 0.01138941905 0.01058892594 0.01063113983)
5(0.01118502479 0.01171844872 0.01112668024 0.009680747779 0.009360007719)
5(0.01128828993 0.01174143245 0.01064511425 0.008538899861 0.007982146185)
5(0.01129825717 0.01167034255 0.009905740885 0.007258860291 0.006748666739)
5(0.0111788318 0.01143291129 0.008921679745 0.005903024559 0.005649680411)
5(0.01098414892 0.01098739074 0.00774058738 0.004551771825 0.004613001441)
5(0.01069338997 0.01029121297 0.00643612395 0.003259732463 0.003536252981)
5(0.01025417298 0.009334959328 0.005087784587 0.002125461072 0.002491098647)
5(0.009549561377 0.008216288137 0.003811128758 0.00118150995 0.001623777281)
5(0.008391550176 0.006967408553 0.002719937906 0.0004714747092 0.001046340537)
5(0.006987557956 0.00571944043 0.001873730646 6.959731346e-05 0.0008430562391)
5(0.005558617237 0.004575526459 0.001307978795 -1.896107962e-06 0.0009726858746)
5(0.004310581277 0.003637938605 0.001028780251 0.0002756611135 0.001459057658)
5(0.003466694271 0.00304126079 0.001093262393 0.0009143275531 0.002257957629)
5(0.003045216198 0.002837697867 0.001542411805 0.001929332834 0.003404021592)
5(0.003108935096 0.003056977864 0.00237962969 0.003313987496 0.004873736245)
5(0.003598150809 0.003687522303 0.003588661945 0.004994016178 0.006587602261)
5(0.004527034125 0.004705228158 0.00512459496 0.006978364907 0.008590962085)
5(0.005762999309 0.00603923312 0.006990081925 0.009278275003 0.01089185309)
5(0.006755633159 0.007287963614 0.009804299255 0.01274389463 0.01369948483)
)


60
(
5(0.002797964213 0.005573236267 0.007567188563 0.009479797268 0.01217372573)
5(0.003698482321 0.00513260794 0.006889340141 0.008631670881 0.01005139504)
5(0.004253550599 0.005011513305 0.006605555497 0.008330308225 0.009218981468)
5(0.004484338114 0.005131810129 0.006640714208 0.008354861198 0.009207576122)
5(0.00452963676 0.005305682875 0.00679387308 0.008579765729 0.009653514286)
5(0.004530910459 0.005444638579 0.006944717868 0.008839809871 0.0101485507)
5(0.004584171708 0.005549717477 0.007054269449 0.008977384459 0.01036149326)
5(0.004682944676 0.005628836012 0.007132599042 0.009044666335 0.01039886194)
5(0.004790460814 0.005698696394 0.007202909937 0.009102740907 0.01040659392)
5(0.004886072784 0.00577648262 0.007285095934 0.009193448063 0.01048359671)
5(0.004977388368 0.005868303992 0.007376795732 0.009298581167 0.01060279049)
5(0.005065748346 0.005968603811 0.007476159435 0.009406037597 0.0107312156)
5(0.005158248801 0.006072176544 0.007575959024 0.009504570675 0.01084332759)
5(0.005261892987 0.00617695396 0.007677227498 0.009602956092 0.01094347212)
5(0.005368268897 0.006284526482 0.007781947775 0.009702421039 0.0110417306)
5(0.005480870389 0.006397691477 0.007893216899 0.009811205244 0.01115048925)
5(0.005597440409 0.006521048108 0.008012663929 0.009929639665 0.01127860728)
5(0.005724022902 0.006653087587 0.008139590437 0.01005521223 0.01141339586)
5(0.005859535681 0.006792395281 0.008282415266 0.0101946223 0.01154966895)
5(0.006005583673 0.006943766766 0.008435242202 0.01034432338 0.01170011222)
5(0.006164518597 0.007108300326 0.008599981422 0.01050974913 0.01187161748)
5(0.006336664165 0.007285145774 0.008777839659 0.01068446782 0.01204688371)
5(0.00652686712 0.00747996437 0.00896878726 0.01087870969 0.01225290649)
5(0.006732017852 0.007692362984 0.009176748217 0.01108970204 0.01247861576)
5(0.006951642083 0.007923799508 0.009407009868 0.01131284354 0.01270762428)
5(0.007195229625 0.008179457784 0.00966079 0.0115522227 0.01294655134)
5(0.007459885505 0.008452805457 0.009930642945 0.01181413253 0.01321270458)
5(0.007743299598 0.008749724076 0.01022216871 0.01208469268 0.0134811965)
5(0.00804185778 0.009067131206 0.01053277773 0.01236551411 0.0137578774)
5(0.008381903694 0.009414611317 0.01085731901 0.01265322896 0.01403913885)
5(0.008734959998 0.009777228055 0.01119522638 0.0129472342 0.01432351176)
5(0.009107580627 0.01016002596 0.01154552902 0.01323327323 0.01458795973)
5(0.009508671385 0.01056832742 0.01190491495 0.01351950611 0.01485716579)
5(0.009924386466 0.01099484008 0.01226769484 0.01377294554 0.01507579508)
5(0.01036060039 0.01143253475 0.01262424371 0.01399616312 0.01524830793)
5(0.01080307759 0.01187581929 0.01296713911 0.01418246667 0.01537921612)
5(0.01124062263 0.01231603418 0.01328993748 0.01433284028 0.01547725132)
5(0.01169665395 0.01275614183 0.01358045844 0.01442015026 0.01549501335)
5(0.0121423669 0.01317332217 0.01381952277 0.01439584611 0.01535692413)
5(0.01257388436 0.01356117605 0.01399561083 0.01418134233 0.01491993073)
5(0.01298135184 0.01390982808 0.01407644722 0.01371940918 0.01412422824)
5(0.01334817395 0.01420924614 0.0140166563 0.01299970427 0.01303641428)
5(0.01366814769 0.01444804952 0.013759834 0.01209023093 0.01188874522)
5(0.01395129369 0.01462313158 0.01326015424 0.0109999888 0.0107746386)
5(0.0141599619 0.01467525282 0.01252525084 0.009776276616 0.009692595298)
5(0.01428394789 0.01453273845 0.01157803124 0.008471249729 0.008567965986)
5(0.01438554214 0.01417487304 0.01046349292 0.007168686689 0.007374591484)
5(0.01430486386 0.01355623977 0.009254230114 0.005916015657 0.006131186767)
5(0.01396244455 0.01273514731 0.008039163249 0.004753723472 0.004936970511)
5(0.01322640304 0.01175222425 0.006877731535 0.003721225987 0.003965034369)
5(0.01216912879 0.01064693802 0.005814261659 0.002884105498 0.003264434939)
5(0.01097697535 0.00949522927 0.004876454684 0.002309914603 0.002880403029)
5(0.0097978325 0.008376669041 0.004114596831 0.002078781652 0.002883875224)
5(0.008744282566 0.007384176003 0.003605991194 0.002215729881 0.003243546816)
5(0.007818680839 0.006561799547 0.003431885669 0.002804866144 0.004050879206)
5(0.007188521266 0.006074511699 0.003676803758 0.00385002554 0.005306945696)
5(0.006814284882 0.00594939236 0.004398569329 0.005302002072 0.006891365324)
5(0.006856787563 0.006286525205 0.00561725791 0.007165812248 0.008813371524)
5(0.007442550309 0.007235372127 0.00740765249 0.009432714768 0.0110783185)
5(0.008509777094 0.008104373103 0.009814010894 0.01292651841 0.01392398414)
)


60
(
5(0.003478730575 0.00637846046 0.008670867447 0.01067827688 0.01329300921)
5(0.004417866633 0.00597557314 0.007989751483 0.009939227632 0.01143223195)
5(0.00501943797 0.005901792782 0.007717634512 0.009687473484 0.01072382554)
5(0.005278341756 0.006052639133 0.007766677853 0.00972878393 0.01075114866)
5(0.005336563082 0.006237979355 0.007928383497 0.009952756565 0.01118814176)
5(0.00534755132 0.006382200261 0.008084721005 0.01021134191 0.01167009101)
5(0.00541145967 0.006495635237 0.00820154658 0.01035397054 0.01188465871)
5(0.005522279696 0.00658766518 0.008288130293 0.01042895411 0.01193469829)
5(0.005639097444 0.006668250544 0.008367433151 0.01049591866 0.01195437466)
5(0.005746315159 0.006756497299 0.008455485274 0.01059361654 0.01204294198)
5(0.005844810959 0.006856394111 0.008554620213 0.010702218 0.01216317284)
5(0.005943816447 0.00696543714 0.008658737407 0.01081458338 0.01229874979)
5(0.006045481847 0.007076523083 0.008764710829 0.01091644357 0.0124110298)
5(0.006154132359 0.007189364705 0.008872463675 0.01102040763 0.01252048496)
5(0.006269850449 0.007306045139 0.008983619339 0.01112460574 0.01262421264)
5(0.006390723314 0.007429050588 0.009101602445 0.01124122285 0.01274661868)
5(0.00651776246 0.007559684287 0.00922677437 0.01136314872 0.01287435481)
5(0.006650577267 0.007698680447 0.009364105353 0.01149792387 0.01301442066)
5(0.006793279479 0.007847817257 0.009511611688 0.01164443074 0.01316799313)
5(0.006947858163 0.008007813851 0.009672421777 0.01180200648 0.01332693894)
5(0.007112563189 0.008180256572 0.009846377343 0.01197682383 0.01350884292)
5(0.007295940533 0.00836987754 0.01003228436 0.01216402744 0.0137073007)
5(0.007492527068 0.00857395802 0.01023425765 0.01237085987 0.01392859341)
5(0.007703919967 0.008797285042 0.01045569681 0.01259398706 0.01416723063)
5(0.0079339369 0.009041597855 0.01069892056 0.01283633604 0.01442408976)
5(0.008187448968 0.009308106506 0.01096603991 0.01309447219 0.01468562861)
5(0.008459784362 0.009596908244 0.01125616083 0.01337231542 0.0149663413)
5(0.008755980451 0.009910539356 0.01156507185 0.01366265179 0.01526025814)
5(0.00907157761 0.01024628097 0.01189513761 0.01397534656 0.01558140222)
5(0.009419821235 0.0106095414 0.01224613018 0.01430049573 0.01590799266)
5(0.009781027708 0.01099391577 0.01261633092 0.01463314372 0.01624042943)
5(0.01017479267 0.01140875763 0.01300412879 0.01496934468 0.01657315438)
5(0.01059629282 0.01184556311 0.01340421763 0.01530417142 0.016894741)
5(0.01103775696 0.01230328053 0.01381626569 0.01562489826 0.01718606926)
5(0.01149741201 0.0127791987 0.01423427054 0.01593293633 0.01745831698)
5(0.01196474265 0.01326755523 0.01464978475 0.01620998534 0.01769076898)
5(0.01247121646 0.013781073 0.01505734067 0.01646133625 0.01789892071)
5(0.01297444195 0.01428796749 0.01544621978 0.01667363862 0.01805633073)
5(0.01350527082 0.01480415461 0.01580596391 0.01678815784 0.01806742627)
5(0.01402398235 0.0153067303 0.01612088133 0.0167462464 0.0178402084)
5(0.01455718964 0.01579527952 0.01636764423 0.01646281381 0.01722370856)
5(0.01508762026 0.0162679729 0.01650307759 0.01600426058 0.01645069152)
5(0.01561079339 0.01671926328 0.01647560432 0.01531699221 0.01551050895)
5(0.01613365551 0.01714621361 0.01624751219 0.01447919116 0.01462212965)
5(0.0166353122 0.01749573455 0.01582132893 0.01347936109 0.01367222123)
5(0.01710107282 0.01770438513 0.01521078843 0.01239662611 0.01267937279)
5(0.01757939352 0.01774967599 0.01445076295 0.01125192543 0.01152228343)
5(0.01782386425 0.01753229678 0.01358085051 0.01006548124 0.01020999076)
5(0.01785347281 0.01715958388 0.01266265937 0.008879862267 0.008900100728)
5(0.01757355776 0.01662471262 0.01173808618 0.007727446326 0.007654587756)
5(0.01692598311 0.01588890195 0.01078339259 0.00664350371 0.006572043033)
5(0.0161649943 0.0150719345 0.009828218107 0.005706835947 0.005736110386)
5(0.01540217586 0.01414743163 0.008840922016 0.004989979414 0.005190802202)
5(0.01472988436 0.01325166726 0.007929052488 0.004552185978 0.005019717135)
5(0.01397413665 0.01230856356 0.00721025549 0.004535549482 0.005293578462)
5(0.01339088528 0.01151175711 0.006789985917 0.005000923773 0.006054504655)
5(0.01260091056 0.01076978059 0.006849512499 0.006026347985 0.007292321584)
5(0.01218426466 0.01042471551 0.007430116066 0.007605134102 0.009015202428)
5(0.01184836835 0.01051088455 0.008818808715 0.009875838705 0.01128746073)
5(0.0122939155 0.01126890908 0.01143894667 0.013594889 0.01455578733)
)


60
(
5(0.004134729866 0.007150534844 0.009714857726 0.01179428759 0.01432519955)
5(0.005105449911 0.006776463018 0.009022684657 0.01114656688 0.01269524058)
5(0.005749383341 0.006743350666 0.008756222101 0.01093345076 0.0120917753)
5(0.006034722706 0.006922108623 0.008816160286 0.01098751086 0.01215219568)
5(0.006103945491 0.00711684915 0.008983499555 0.01120762456 0.01257800282)
5(0.006123329008 0.00726453832 0.009143406301 0.01146137406 0.01304168315)
5(0.006196694127 0.00738494375 0.009264404059 0.01160975107 0.01326388739)
5(0.006315639015 0.007486235815 0.009357156958 0.01168732718 0.01331717306)
5(0.006439713299 0.007575222652 0.00944140741 0.01176262066 0.0133531585)
5(0.00655358452 0.007670826197 0.009534749341 0.01186223559 0.01344304037)
5(0.006659419754 0.007776898734 0.009636673198 0.01197416273 0.01356935679)
5(0.006765185941 0.007891991136 0.009743962401 0.01208578198 0.0137024355)
5(0.006871686132 0.008007707243 0.00985282906 0.01219201 0.01382209024)
5(0.006987671843 0.008126207229 0.009962986407 0.01229557045 0.01392991071)
5(0.007107580357 0.008247417028 0.01007730137 0.01240518765 0.01404302627)
5(0.007233293469 0.00837534596 0.01019806883 0.01252271424 0.01416668928)
5(0.007363458828 0.008510690432 0.01032739283 0.01264983305 0.01430280247)