/*--------------------------------*- C++ -*----------------------------------*\
| =========                 |                                                 |
| \\      /  F ield         | OpenFOAM: The Open Source CFD Toolbox           |
|  \\    /   O peration     | Version:  2.3.1                                 |
|   \\  /    A nd           | Web:      www.OpenFOAM.org                      |
|    \\/     M anipulation  |                                                 |
\*---------------------------------------------------------------------------*/
FoamFile
{
    version     2.0;
    format      ascii;
    class       dictionary;
    location    "constant";
    object      GRPSI25;
}
// * * * * * * * * * * * * * * * * * * * * * * * * * * * * * * * * * * * * * //

GRPSI25_table
60
(

60
(
5(-0.02394947373 -0.02692085946 -0.03095137909 -0.0356275623 -0.03721030566)
5(-0.02879912049 -0.03170127524 -0.03464276135 -0.03839334823 -0.04056778292)
5(-0.03157781114 -0.03443975251 -0.03725385645 -0.04042534446 -0.04283240022)
5(-0.03318519666 -0.03599753508 -0.038987315 -0.04187462211 -0.04433957034)
5(-0.0344616206 -0.03721116697 -0.04020399307 -0.04299175212 -0.04542451386)
5(-0.03562103588 -0.03835162635 -0.04118421876 -0.04396841387 -0.04636033986)
5(-0.03664765193 -0.03935078369 -0.04212438883 -0.04486610269 -0.04724213999)
5(-0.03759274313 -0.04027179332 -0.04302112449 -0.04569994116 -0.0480735909)
5(-0.03847841299 -0.04111971363 -0.04383625121 -0.04647061424 -0.04884617462)
5(-0.03929765461 -0.04190988605 -0.04459199307 -0.04719274668 -0.04955725484)
5(-0.04006003705 -0.0426494531 -0.04529880825 -0.04786622376 -0.05021778926)
5(-0.04077710869 -0.04334403959 -0.04596713382 -0.0485018106 -0.05083927287)
5(-0.04145611107 -0.04400342522 -0.04659740817 -0.04910425245 -0.05143142652)
5(-0.04210236957 -0.04462993805 -0.04719964423 -0.04968151765 -0.05199777553)
5(-0.04271888877 -0.04522630331 -0.04777476154 -0.05023042911 -0.052539116)
5(-0.04330778753 -0.04579797652 -0.04832612736 -0.05075726041 -0.05305655951)
5(-0.04387142968 -0.04634409897 -0.0488539725 -0.05126364475 -0.0535524789)
5(-0.04441218215 -0.04686962565 -0.0493602669 -0.05174823252 -0.05402883774)
5(-0.04493205999 -0.04737317405 -0.04984795165 -0.05221545789 -0.05448730571)
5(-0.04543276633 -0.04785948093 -0.05031751903 -0.05266580228 -0.05492923114)
5(-0.04591570191 -0.04832773157 -0.05077199883 -0.05309960617 -0.05535574623)
5(-0.04638207576 -0.04878053769 -0.05121004058 -0.05352145503 -0.05576777019)
5(-0.04683295585 -0.04921691616 -0.05163359803 -0.05392869832 -0.05616606754)
5(-0.0472692889 -0.04964003405 -0.05204516996 -0.05432023327 -0.05655123531)
5(-0.04769191886 -0.05004717079 -0.05244026821 -0.05469855892 -0.05692384438)
5(-0.04810160349 -0.05044468017 -0.05282675096 -0.05506547871 -0.05728434409)
5(-0.04849898997 -0.05082977023 -0.05319897611 -0.05542380652 -0.05763310664)
5(-0.04888469165 -0.0512054629 -0.05356064313 -0.05577154626 -0.05797059362)
5(-0.04925926393 -0.05156964642 -0.05391226138 -0.05610852454 -0.05829712784)
5(-0.04962315654 -0.0519227856 -0.05425215915 -0.05643491206 -0.05861242556)
5(-0.04997676498 -0.05226628692 -0.05458326929 -0.05675151632 -0.05891620636)
5(-0.05032051049 -0.05260019188 -0.05490292207 -0.05705743639 -0.0592096502)
5(-0.05065429351 -0.05292412631 -0.0552143984 -0.05735439836 -0.05949473989)
5(-0.05097804105 -0.05323759677 -0.0555133594 -0.05764147896 -0.05977178529)
5(-0.05129378178 -0.05354417727 -0.05580416602 -0.05791883132 -0.06003943449)
5(-0.05160227762 -0.05383871 -0.05608201539 -0.05818464324 -0.06029632508)
5(-0.05190183915 -0.05412502902 -0.05635075046 -0.05844413988 -0.06054150332)
5(-0.05219243216 -0.05440548795 -0.05661818535 -0.05869433245 -0.06077614475)
5(-0.05247422241 -0.05467069451 -0.05687214852 -0.05893051553 -0.06100576045)
5(-0.05274698014 -0.05493058318 -0.05711479612 -0.05916128111 -0.06123653286)
5(-0.0530104891 -0.05517838057 -0.05734652894 -0.05938224061 -0.06147179732)
5(-0.05326413192 -0.0554148928 -0.05756935441 -0.0596065247 -0.06170626928)
5(-0.05350663805 -0.05564777509 -0.05778270361 -0.05983271205 -0.06193255171)
5(-0.0537388907 -0.05586842942 -0.05798338137 -0.06004135737 -0.06214566479)
5(-0.05396259331 -0.0560770647 -0.0581758365 -0.06024550315 -0.06234695963)
5(-0.05417573935 -0.05626732593 -0.05837316082 -0.06044618221 -0.06253790799)
5(-0.05437685397 -0.05645304023 -0.05857044989 -0.06063842222 -0.06271746165)
5(-0.05456600572 -0.05663728669 -0.05874861497 -0.06081750834 -0.06288245199)
5(-0.05474269285 -0.056814409 -0.05891998353 -0.06098087049 -0.06302958901)
5(-0.05490659418 -0.05698548115 -0.05908346335 -0.06112677452 -0.06315569893)
5(-0.05506038908 -0.05713715506 -0.05923429637 -0.06125735266 -0.06325818507)
5(-0.0552085525 -0.05728737584 -0.05936600691 -0.06136881717 -0.06333442365)
5(-0.0553548847 -0.05742985022 -0.05948291013 -0.06145623485 -0.06338103828)
5(-0.05549804059 -0.05754856017 -0.05957841693 -0.06151465644 -0.06339303406)
5(-0.05563477952 -0.05765456904 -0.05965076109 -0.0615422141 -0.0633653904)
5(-0.05576018069 -0.05773590764 -0.05969292177 -0.061532401 -0.06329223315)
5(-0.05586761588 -0.05779479442 -0.05970330862 -0.06147992102 -0.06316501982)
5(-0.05595226207 -0.05782874341 -0.0596783728 -0.06137622161 -0.06297472664)
5(-0.05600595298 -0.05782414818 -0.05961032523 -0.06121962075 -0.06271220099)
5(-0.05601389635 -0.05779730248 -0.05950739185 -0.06099991194 -0.06236826515)
)


60
(
5(-0.02394947373 -0.02692085946 -0.03095137909 -0.0356275623 -0.03721030566)
5(-0.02879912049 -0.03170555207 -0.03463959847 -0.03839953494 -0.04056778292)
5(-0.03157781114 -0.03443984093 -0.03724395578 -0.04042111558 -0.04283240022)
5(-0.03318519666 -0.03599668549 -0.03898620875 -0.04187072051 -0.04433957034)
5(-0.0344616206 -0.03720950892 -0.04019839893 -0.04298892935 -0.04542451386)
5(-0.03562103588 -0.03835145886 -0.04117899672 -0.0439680288 -0.04636033986)
5(-0.03664765193 -0.03934992455 -0.04212801853 -0.04486555099 -0.04724213999)
5(-0.03759274313 -0.04027108053 -0.04302032517 -0.04569883541 -0.0480735909)
5(-0.03847841299 -0.04112083007 -0.04383764899 -0.04647223691 -0.04884617462)
5(-0.03929765461 -0.04190969878 -0.04459179118 -0.04719225992 -0.04955725484)
5(-0.04006003705 -0.04264850474 -0.04529896902 -0.04786559806 -0.05021778926)
5(-0.04077710869 -0.04334429531 -0.04596563297 -0.04850145034 -0.05083927287)
5(-0.04145611107 -0.04400281337 -0.04659673245 -0.04910463989 -0.05143142652)
5(-0.04210236957 -0.04462904743 -0.04719891664 -0.04968019053 -0.05199777553)
5(-0.04271888877 -0.04522625381 -0.04777475218 -0.0502301906 -0.052539116)
5(-0.04330778753 -0.0457971793 -0.04832579465 -0.05075764682 -0.05305655951)
5(-0.04387142968 -0.0463437861 -0.04885320997 -0.05126259154 -0.0535524789)
5(-0.04441218215 -0.04686863021 -0.04935971482 -0.05174786641 -0.05402883774)
5(-0.04493205999 -0.04737271678 -0.0498468183 -0.05221514158 -0.05448730571)
5(-0.04543276633 -0.0478589143 -0.05031726319 -0.05266460714 -0.05492923114)
5(-0.04591570191 -0.04832676209 -0.05077045693 -0.05309907529 -0.05535574623)
5(-0.04638207576 -0.04877907639 -0.05120968308 -0.05352127979 -0.05576777019)
5(-0.04683295585 -0.0492162866 -0.05163275605 -0.05392709107 -0.05616606754)
5(-0.0472692889 -0.04963818376 -0.05204290752 -0.05431994232 -0.05655123531)
5(-0.04769191886 -0.05004618931 -0.0524398916 -0.05469707543 -0.05692384438)
5(-0.04810160349 -0.05044216329 -0.05282448231 -0.05506510055 -0.05728434409)
5(-0.04849898997 -0.05082990265 -0.05319925963 -0.05542318133 -0.05763310664)
5(-0.04888469165 -0.05120301436 -0.05355861655 -0.05576965094 -0.05797059362)
5(-0.04925926393 -0.05156820361 -0.05391062917 -0.05610864623 -0.05829712784)
5(-0.04962315654 -0.05192166855 -0.05425167335 -0.05643372925 -0.05861242556)
5(-0.04997676498 -0.05226327727 -0.05458034164 -0.05675001765 -0.05891620636)
5(-0.05032051049 -0.05259792188 -0.05490257521 -0.05705715481 -0.0592096502)
5(-0.05065429351 -0.05292343638 -0.05521015128 -0.05735394098 -0.05949473989)
5(-0.05097804105 -0.05323419541 -0.05551092947 -0.05763885572 -0.05977178529)
5(-0.05129378178 -0.05354114549 -0.05580265106 -0.05791526718 -0.06003943449)
5(-0.05160227762 -0.05383619014 -0.05607843643 -0.05818316279 -0.06029632508)
5(-0.05190183915 -0.05412230588 -0.05635052852 -0.05844111092 -0.06054150332)
5(-0.05219243216 -0.05439853101 -0.05661325564 -0.05868855503 -0.06077614475)
5(-0.05247422241 -0.05466683829 -0.05686363879 -0.05892534689 -0.06100576045)
5(-0.05274698014 -0.05492668039 -0.05710926786 -0.05915419715 -0.06123653286)
5(-0.0530104891 -0.05517057768 -0.05734185819 -0.05937683165 -0.06147179732)
5(-0.05326413192 -0.0554093523 -0.05756368329 -0.05959229545 -0.06170626928)
5(-0.05350663805 -0.05563739294 -0.05777197892 -0.05980772142 -0.06193255171)
5(-0.0537388907 -0.05585792572 -0.05796962245 -0.06002501351 -0.06214566479)
5(-0.05396259331 -0.0560648425 -0.05816202706 -0.0602363247 -0.06234695963)
5(-0.05417573935 -0.05626121079 -0.05835158227 -0.06044307471 -0.06253790799)
5(-0.05437685397 -0.05644462481 -0.05854321904 -0.06063926531 -0.06271746165)
5(-0.05456600572 -0.05662020209 -0.05873068899 -0.06081851904 -0.06288245199)
5(-0.05474269285 -0.05678768656 -0.05891274669 -0.06098236854 -0.06302958901)
5(-0.05490659418 -0.05695744199 -0.0590808319 -0.06113032015 -0.06315569893)
5(-0.05506038908 -0.0571243907 -0.05923401534 -0.06126009695 -0.06325818507)
5(-0.0552085525 -0.05728440349 -0.0593691401 -0.06137006911 -0.06333442365)
5(-0.0553548847 -0.05742779003 -0.05948355288 -0.06145717658 -0.06338103828)
5(-0.05549804059 -0.05755148739 -0.05957967512 -0.06151537446 -0.06339303406)
5(-0.05563477952 -0.05765323067 -0.05965051718 -0.06154202273 -0.0633653904)
5(-0.05576010553 -0.0577353584 -0.05969204416 -0.06153200227 -0.06329223315)
5(-0.05586687785 -0.05779429728 -0.05970221589 -0.06147910374 -0.06316501982)
5(-0.05595072228 -0.05782709873 -0.05967681372 -0.06137803135 -0.06297472664)
5(-0.05600444302 -0.05783068134 -0.0596129711 -0.06121899689 -0.06271220099)
5(-0.05601389635 -0.05779730248 -0.05950739185 -0.06099991194 -0.06236826515)
)


60
(
5(-0.02394947373 -0.02692085946 -0.03095137909 -0.0356275623 -0.03721030566)
5(-0.02879912049 -0.03171052717 -0.03465021798 -0.03841071446 -0.04056778292)
5(-0.03157781114 -0.03444010089 -0.03723644612 -0.04041860847 -0.04283240022)
5(-0.03318519666 -0.03599564664 -0.03898451616 -0.0418683639 -0.04433957034)
5(-0.0344616206 -0.03720810567 -0.04019418741 -0.04298664242 -0.04542451386)
5(-0.03562103588 -0.03835125082 -0.04117449972 -0.04396602576 -0.04636033986)
5(-0.03664765193 -0.03934939283 -0.04212963552 -0.04486533972 -0.04724213999)
5(-0.03759274313 -0.04027071434 -0.0430203257 -0.04569876934 -0.0480735909)
5(-0.03847841299 -0.04112171843 -0.04383879471 -0.04647347911 -0.04884617462)
5(-0.03929765461 -0.0419097241 -0.04459195372 -0.04719187196 -0.04955725484)
5(-0.04006003705 -0.04264811878 -0.04529888359 -0.04786538338 -0.05021778926)
5(-0.04077710869 -0.04334417618 -0.04596481203 -0.04850142643 -0.05083927287)
5(-0.04145611107 -0.04400270936 -0.04659668363 -0.04910520647 -0.05143142652)
5(-0.04210236957 -0.04462877896 -0.04719884166 -0.04967917887 -0.05199777553)
5(-0.04271888877 -0.04522691334 -0.04777526847 -0.05023041518 -0.052539116)
5(-0.04330778753 -0.04579646932 -0.04832536575 -0.05075800622 -0.05305655951)
5(-0.04387142968 -0.04634351205 -0.0488523578 -0.05126190381 -0.0535524789)
5(-0.04441218215 -0.04686869719 -0.04936029808 -0.05174838245 -0.05402883774)
5(-0.04493205999 -0.04737274565 -0.04984624637 -0.05221478118 -0.05448730571)
5(-0.04543276633 -0.04785788756 -0.05031798646 -0.05266563395 -0.05492923114)
5(-0.04591570191 -0.04832805821 -0.05077025425 -0.05309833279 -0.05535574623)
5(-0.04638207576 -0.04877796578 -0.05120861053 -0.05352144667 -0.05576777019)
5(-0.04683295585 -0.04921632724 -0.05163199086 -0.05392707576 -0.05616606754)
5(-0.0472692889 -0.04963752824 -0.05204479306 -0.0543194291 -0.05655123531)
5(-0.04769191886 -0.05004760975 -0.05243968863 -0.05469741782 -0.05692384438)
5(-0.04810160349 -0.05044150061 -0.05282375787 -0.05506425939 -0.05728434409)
5(-0.04849898997 -0.05082847196 -0.0531980431 -0.05542293531 -0.05763310664)
5(-0.04888469165 -0.05120318782 -0.053559294 -0.05577001657 -0.05797059362)
5(-0.04925926393 -0.05156705691 -0.05391003924 -0.05610872737 -0.05829712784)
5(-0.04962315654 -0.05192071649 -0.05425130194 -0.05643353196 -0.05861242556)
5(-0.04997676498 -0.05226403233 -0.05457906478 -0.05675068963 -0.05891620636)
5(-0.05032051049 -0.05259715293 -0.05490471949 -0.05705532753 -0.0592096502)
5(-0.05065429351 -0.05292018898 -0.05520848529 -0.05735577277 -0.05949473989)
5(-0.05097804105 -0.0532359103 -0.05551023825 -0.05763721866 -0.05977178529)
5(-0.05129378178 -0.05353859446 -0.05580005185 -0.05791392068 -0.06003943449)
5(-0.05160227762 -0.05383640695 -0.05607790792 -0.05818315652 -0.06029632508)
5(-0.05190183915 -0.0541206209 -0.05635301486 -0.0584380229 -0.06054150332)
5(-0.05219243216 -0.05439700458 -0.05660888756 -0.05868514837 -0.06077614475)
5(-0.05247422241 -0.05466563302 -0.05686117495 -0.05892416698 -0.06100576045)
5(-0.05274698014 -0.05491983797 -0.05710599697 -0.0591510007 -0.06123653286)
5(-0.0530104891 -0.055169103 -0.05733880998 -0.05937096872 -0.06147179732)
5(-0.05326413192 -0.05540602748 -0.05756096408 -0.05958500221 -0.06170626928)
5(-0.05350663805 -0.0556325338 -0.05776850052 -0.05979445587 -0.06193255171)
5(-0.0537388907 -0.05585107729 -0.05796250023 -0.0600120079 -0.06214566479)
5(-0.05396259331 -0.05606069063 -0.05815221279 -0.06023133125 -0.06234695963)
5(-0.05417573935 -0.05625966439 -0.05833751058 -0.06044153947 -0.06253790799)
5(-0.05437685397 -0.05643720797 -0.05852999117 -0.06063635107 -0.06271746165)
5(-0.05456600572 -0.05660837768 -0.05871780677 -0.0608190373 -0.06288245198)
5(-0.05474269285 -0.05677464206 -0.05890593678 -0.06098289656 -0.06302958901)
5(-0.05490659418 -0.05694117019 -0.05908159995 -0.06113298867 -0.06315569893)
5(-0.05506038908 -0.05711607291 -0.05923356673 -0.06126115479 -0.06325818507)
5(-0.0552085525 -0.05728425234 -0.05936914278 -0.06137265836 -0.06333442365)
5(-0.0553548847 -0.05742728832 -0.05948436294 -0.06145715788 -0.06338103828)
5(-0.05549804059 -0.0575528305 -0.05957976202 -0.06151658755 -0.06339303406)
5(-0.05563477952 -0.05765359697 -0.05965008891 -0.0615418136 -0.0633653904)
5(-0.05576003038 -0.05773473547 -0.05969167167 -0.06153115347 -0.06329223315)
5(-0.05586613982 -0.05779334365 -0.05970105573 -0.06147820256 -0.06316501982)
5(-0.05594918249 -0.05782829927 -0.05967547973 -0.06137863006 -0.06297472664)
5(-0.05600293306 -0.05783526191 -0.05961467729 -0.06121931697 -0.06271220099)
5(-0.05601389635 -0.05779730248 -0.05950739185 -0.06099991194 -0.06236826515)
)


60
(
5(-0.02394947373 -0.02692085946 -0.03095137909 -0.0356275623 -0.03721030566)
5(-0.02879912049 -0.0317120747 -0.03466485544 -0.03841633468 -0.04056778292)
5(-0.03157781114 -0.03444001207 -0.03723868768 -0.0404200673 -0.04283240022)
5(-0.03318519666 -0.03599525463 -0.03898386725 -0.0418699061 -0.04433957034)
5(-0.0344616206 -0.03720821139 -0.0401953142 -0.04298703979 -0.04542451387)
5(-0.03562103588 -0.03835093956 -0.04117497177 -0.04396479784 -0.04636033986)
5(-0.03664765193 -0.03934974694 -0.04212746884 -0.04486543295 -0.04724213999)
5(-0.03759274313 -0.04027135749 -0.04302131559 -0.04569918713 -0.0480735909)
5(-0.03847841299 -0.04112079863 -0.04383865696 -0.04647349732 -0.04884617462)
5(-0.03929765461 -0.04191039396 -0.04459212912 -0.04719205395 -0.04955725484)
5(-0.04006003705 -0.04264825343 -0.04529874997 -0.04786619977 -0.05021778926)
5(-0.04077710869 -0.043343966 -0.04596589593 -0.04850073704 -0.05083927287)
5(-0.04145611107 -0.04400343747 -0.0465961725 -0.04910543054 -0.05143142652)
5(-0.04210236957 -0.04462912702 -0.04719972551 -0.04967983115 -0.05199777553)
5(-0.04271888877 -0.04522723575 -0.04777472106 -0.05023062298 -0.052539116)
5(-0.04330778753 -0.04579670049 -0.04832677795 -0.05075748672 -0.05305655951)
5(-0.04387142968 -0.046344068 -0.04885322004 -0.05126244344 -0.0535524789)
5(-0.04441218215 -0.04686893604 -0.04935921001 -0.05175017951 -0.05402883774)
5(-0.04493205999 -0.04737261615 -0.04984762469 -0.05221396921 -0.05448730571)
5(-0.04543276633 -0.0478590804 -0.05031754863 -0.05266504763 -0.05492923114)
5(-0.04591570191 -0.04832763703 -0.05077093931 -0.05310108215 -0.05535574623)
5(-0.04638207576 -0.04877947241 -0.05120970913 -0.05351925302 -0.05576777019)
5(-0.04683295585 -0.04921649349 -0.05163372104 -0.05392910448 -0.05616606754)
5(-0.0472692889 -0.04963869746 -0.05204340476 -0.05432035446 -0.05655123531)
5(-0.04769191886 -0.05004546482 -0.0524403706 -0.05469860223 -0.05692384438)
5(-0.04810160349 -0.05044842897 -0.05282629202 -0.05506360791 -0.05728434409)
5(-0.04849898997 -0.05082622945 -0.05319768309 -0.05542335863 -0.05763310664)
5(-0.04888469165 -0.05120571104 -0.05356133728 -0.05577163307 -0.05797059362)
5(-0.04925926393 -0.05156772128 -0.05391110387 -0.05610820991 -0.05829712784)
5(-0.04962315654 -0.05192127923 -0.05425033258 -0.05643402051 -0.05861242556)
5(-0.04997676498 -0.0522670302 -0.0545832509 -0.05675148317 -0.05891620636)
5(-0.05032051049 -0.05259805218 -0.05490008364 -0.05705701626 -0.0592096502)
5(-0.05065429351 -0.05291968271 -0.05521323897 -0.05735362378 -0.05949473989)
5(-0.05097804105 -0.05323679442 -0.05551401333 -0.05764026096 -0.05977178529)
5(-0.05129378178 -0.05354014902 -0.05579812255 -0.05791716026 -0.06003943449)
5(-0.05160227762 -0.05383790147 -0.0560803687 -0.05818309663 -0.06029632508)
5(-0.05190183915 -0.05412247151 -0.05635103405 -0.05843874599 -0.06054150332)
5(-0.05219243216 -0.05439934661 -0.05661268625 -0.05868846904 -0.06077614475)
5(-0.05247422241 -0.05466794559 -0.05686834271 -0.05892685337 -0.06100576045)
5(-0.05274698014 -0.05492212807 -0.05710624121 -0.05915357814 -0.06123653286)
5(-0.0530104891 -0.05517351849 -0.05734102089 -0.05937443446 -0.06147179732)
5(-0.05326413192 -0.05540776405 -0.05756548237 -0.05959058557 -0.06170626928)
5(-0.05350663805 -0.05563666929 -0.05777403844 -0.05980506904 -0.06193255171)
5(-0.0537388907 -0.05585756981 -0.05796898411 -0.06001872558 -0.06214566479)
5(-0.05396259331 -0.0560659534 -0.05815599528 -0.06023419975 -0.06234695963)
5(-0.05417573935 -0.05626121807 -0.05834834517 -0.06044465954 -0.06253790799)
5(-0.05437685397 -0.05644394282 -0.05853943112 -0.06063420354 -0.06271746165)
5(-0.05456600572 -0.05661457604 -0.05872899489 -0.06081425933 -0.06288245198)
5(-0.05474269285 -0.05678660453 -0.05890853004 -0.06098446782 -0.06302958901)
5(-0.05490659418 -0.05695275453 -0.05908008804 -0.06112813499 -0.06315569893)
5(-0.05506038908 -0.05712134921 -0.0592333606 -0.0612613544 -0.06325818507)
5(-0.0552085525 -0.05728641179 -0.05936802452 -0.06137021913 -0.06333442365)
5(-0.0553548847 -0.05742911317 -0.05948393435 -0.06145720381 -0.06338103828)
5(-0.05549804059 -0.05755054966 -0.05957938313 -0.06151550135 -0.06339303406)
5(-0.05563477952 -0.05765497404 -0.05965094807 -0.0615421425 -0.0633653904)
5(-0.05576003038 -0.05773620674 -0.05969296431 -0.0615311194 -0.06329223315)
5(-0.05586613982 -0.05779600419 -0.05970220644 -0.06147904938 -0.06316501982)
5(-0.05594918249 -0.05783093313 -0.05967753437 -0.06137765475 -0.06297472664)
5(-0.05600293306 -0.05783243662 -0.05961381598 -0.0612205047 -0.06271220099)
5(-0.05601389635 -0.05779730248 -0.05950739185 -0.06099991194 -0.06236826515)
)


60
(
5(-0.02394947373 -0.02692085946 -0.03095137909 -0.0356275623 -0.03721030566)
5(-0.02879912049 -0.03171385008 -0.0346665994 -0.03841751958 -0.04056778292)
5(-0.03157781114 -0.03444040565 -0.03723904097 -0.04041984343 -0.04283240022)
5(-0.03318519666 -0.03599450074 -0.03898393942 -0.04186967009 -0.04433957034)
5(-0.0344616206 -0.03720739776 -0.04019466683 -0.04298636856 -0.04542451387)
5(-0.03562103588 -0.03835094282 -0.04117421196 -0.04396551738 -0.04636033986)
5(-0.03664765193 -0.03934993594 -0.04212795877 -0.04486528924 -0.04724213999)
5(-0.03759274313 -0.04027097492 -0.04302063811 -0.04569876965 -0.0480735909)
5(-0.03847841299 -0.04112127661 -0.04383924871 -0.04647330758 -0.04884617462)
5(-0.03929765461 -0.04190938576 -0.04459149263 -0.04719239771 -0.04955725484)
5(-0.04006003705 -0.04264897367 -0.04529952506 -0.04786591792 -0.05021778926)
5(-0.04077710869 -0.04334369327 -0.04596526056 -0.04850076188 -0.05083927287)
5(-0.04145611107 -0.04400330609 -0.04659688422 -0.04910486154 -0.05143142652)
5(-0.04210236957 -0.04462918791 -0.0471986143 -0.04968019553 -0.05199777553)
5(-0.04271888877 -0.04522628445 -0.04777501344 -0.05023120329 -0.052539116)
5(-0.04330778753 -0.04579798933 -0.04832623667 -0.05075650481 -0.05305655951)
5(-0.04387142968 -0.04634335754 -0.04885366796 -0.05126374882 -0.0535524789)
5(-0.04441218215 -0.04686871467 -0.04935930921 -0.05174724712 -0.05402883774)
5(-0.04493205999 -0.04737320277 -0.04984716943 -0.05221612123 -0.05448730571)
5(-0.04543276633 -0.0478586199 -0.05031669094 -0.05266392905 -0.05492923114)
5(-0.04591570191 -0.04832681465 -0.05077224237 -0.05310048767 -0.05535574623)
5(-0.04638207576 -0.04878010805 -0.05120805833 -0.0535201723 -0.05576777019)
5(-0.04683295585 -0.04921631896 -0.05163504814 -0.05392740375 -0.05616606754)
5(-0.0472692889 -0.04963939683 -0.0520419585 -0.05432074786 -0.05655123531)
5(-0.04769191886 -0.05004440103 -0.05243958738 -0.05469882973 -0.05692384438)
5(-0.04810160349 -0.05044207509 -0.05282634994 -0.05506468777 -0.05728434409)
5(-0.04849898997 -0.05083109321 -0.0531982757 -0.05542161108 -0.05763310664)
5(-0.04888469165 -0.05120513454 -0.0535603592 -0.05577157717 -0.05797059362)
5(-0.04925926393 -0.05156779233 -0.0539100928 -0.05610746221 -0.05829712784)
5(-0.04962315654 -0.05192068898 -0.05425193385 -0.05643462218 -0.05861242556)
5(-0.04997676498 -0.05226565697 -0.05458290953 -0.05674955277 -0.05891620636)
5(-0.05032051049 -0.05259737454 -0.05489902491 -0.05705882683 -0.0592096502)
5(-0.05065429351 -0.05292367906 -0.05521153352 -0.05735046466 -0.05949473989)
5(-0.05097804105 -0.05323440186 -0.05551346344 -0.05764136696 -0.05977178529)
5(-0.05129378178 -0.05354041862 -0.05580002131 -0.05791634272 -0.06003943449)
5(-0.05160227762 -0.05383560526 -0.05608026266 -0.05818307236 -0.06029632508)
5(-0.05190183915 -0.05412256051 -0.05634839911 -0.0584418354 -0.06054150332)
5(-0.05219243216 -0.05439893038 -0.05661232716 -0.05868699236 -0.06077614475)
5(-0.05247422241 -0.05466659763 -0.05686574181 -0.05892471343 -0.06100576045)
5(-0.05274698014 -0.0549248694 -0.05710839971 -0.05915430843 -0.06123653286)
5(-0.0530104891 -0.0551711604 -0.05734097894 -0.05937775458 -0.06147179732)
5(-0.05326413192 -0.05540871287 -0.05756626612 -0.059590507 -0.06170626928)
5(-0.05350663805 -0.05563586352 -0.05777213149 -0.05980366698 -0.06193255171)
5(-0.0537388907 -0.05585782982 -0.05797051919 -0.0600211838 -0.06214566479)
5(-0.05396259331 -0.05606505378 -0.05815739817 -0.06023614797 -0.06234695963)
5(-0.05417573935 -0.05625986105 -0.05835033241 -0.06044239952 -0.06253790799)
5(-0.05437685397 -0.05644667872 -0.05853845652 -0.06064074253 -0.06271746165)
5(-0.05456600572 -0.05661790973 -0.05872915864 -0.0608140021 -0.06288245199)
5(-0.05474269285 -0.0567861743 -0.05891231104 -0.06097830288 -0.06302958901)
5(-0.05490659418 -0.05695224795 -0.05907736628 -0.06113052072 -0.06315569893)
5(-0.05506038908 -0.05712864353 -0.05923299786 -0.06126138863 -0.06325818507)
5(-0.0552085525 -0.05727702914 -0.05937010414 -0.06136862627 -0.06333442365)
5(-0.0553548847 -0.05743037716 -0.05948110011 -0.06146082768 -0.06338103828)
5(-0.05549804059 -0.05755216398 -0.059580969 -0.06151305849 -0.06339303406)
5(-0.05563477952 -0.0576517083 -0.05965140481 -0.0615423835 -0.0633653904)
5(-0.05576003038 -0.05773695866 -0.05969556935 -0.0615318168 -0.06329223315)
5(-0.05586613982 -0.05779547296 -0.05970312978 -0.06147934968 -0.06316501982)
5(-0.05594918249 -0.05783058788 -0.05967868457 -0.06137635377 -0.06297472664)
5(-0.05600293306 -0.05783240646 -0.05961406416 -0.06122113692 -0.06271220099)
5(-0.05601389635 -0.05779730248 -0.05950739185 -0.06099991194 -0.06236826515)
)


60
(
5(-0.02394947373 -0.02692085946 -0.03095137909 -0.0356275623 -0.03721030566)
5(-0.02879912049 -0.0317156446 -0.03466756804 -0.03841903621 -0.04056778292)
5(-0.03157781114 -0.03444139485 -0.03723979303 -0.04042022546 -0.04283240022)
5(-0.03318519666 -0.03599373041 -0.03898343006 -0.04186890416 -0.04433957034)
5(-0.0344616206 -0.03720647292 -0.04019524191 -0.04298664964 -0.04542451386)
5(-0.03562103588 -0.03835120207 -0.04117342176 -0.04396450349 -0.04636033986)
5(-0.03664765193 -0.03934964507 -0.04212822841 -0.04486565334 -0.04724213999)
5(-0.03759274313 -0.04027074341 -0.0430202154 -0.04569908249 -0.0480735909)
5(-0.03847841299 -0.04112187169 -0.0438395553 -0.04647310694 -0.04884617462)
5(-0.03929765461 -0.0419091612 -0.04459099542 -0.04719235211 -0.04955725484)
5(-0.04006003705 -0.04264939255 -0.04530007531 -0.04786571598 -0.05021778926)
5(-0.04077710869 -0.04334351053 -0.04596415644 -0.04850127812 -0.05083927287)
5(-0.04145611107 -0.04400319242 -0.04659829519 -0.04910468248 -0.05143142652)
5(-0.04210236957 -0.04462855807 -0.04719773725 -0.04967992329 -0.05199777553)
5(-0.04271888877 -0.04522698826 -0.04777641726 -0.05023151036 -0.052539116)
5(-0.04330778753 -0.04579702906 -0.04832397588 -0.05075651484 -0.05305655951)
5(-0.04387142968 -0.04634415287 -0.04885445563 -0.05126420471 -0.0535524789)
5(-0.04441218215 -0.04686779855 -0.04935959851 -0.05174540361 -0.05402883774)
5(-0.04493205999 -0.04737402581 -0.04984776612 -0.05221774085 -0.05448730571)
5(-0.04543276633 -0.04785921438 -0.05031747386 -0.0526639258 -0.05492923114)
5(-0.04591570191 -0.04832526759 -0.05077000736 -0.05309977134 -0.05535574623)
5(-0.04638207576 -0.04878071521 -0.05120976639 -0.0535213913 -0.05576777019)
5(-0.04683295585 -0.04921710462 -0.05163277172 -0.05392684271 -0.05616606754)
5(-0.0472692889 -0.04963757482 -0.0520432306 -0.05432081392 -0.05655123531)
5(-0.04769191886 -0.05005016977 -0.05244249276 -0.05469635067 -0.05692384438)
5(-0.04810160349 -0.05043737748 -0.05282327742 -0.05506645895 -0.05728434409)
5(-0.04849898997 -0.05083086013 -0.05319579326 -0.05542383905 -0.05763310664)
5(-0.04888469165 -0.0512047382 -0.0535631418 -0.05577018363 -0.05797059362)
5(-0.04925926393 -0.0515687478 -0.05391014781 -0.05610516798 -0.05829712784)
5(-0.04962315654 -0.0519197842 -0.05425127191 -0.05643913148 -0.05861242556)
5(-0.04997676498 -0.0522647758 -0.05458160872 -0.05674991573 -0.05891620636)
5(-0.05032051049 -0.05259961425 -0.05490303899 -0.05705554293 -0.0592096502)
5(-0.05065429351 -0.05292090874 -0.05521000807 -0.057352398 -0.05949473989)
5(-0.05097804105 -0.05323624111 -0.05550984216 -0.05764042531 -0.05977178529)
5(-0.05129378178 -0.05354185831 -0.05580351664 -0.05791513826 -0.06003943449)
5(-0.05160227762 -0.0538337412 -0.05607937275 -0.05818367985 -0.06029632508)
5(-0.05190183915 -0.05412310768 -0.05635009411 -0.05844303798 -0.06054150332)
5(-0.05219243216 -0.05439970942 -0.05661288367 -0.05868828537 -0.06077614475)
5(-0.05247422241 -0.05466545682 -0.05686394597 -0.05892500619 -0.06100576045)
5(-0.05274698014 -0.05492492244 -0.0571093158 -0.05915417801 -0.06123653286)
5(-0.0530104891 -0.05517055331 -0.05734186672 -0.05937617463 -0.06147179732)
5(-0.05326413192 -0.0554082782 -0.05756312753 -0.05958957441 -0.06170626928)
5(-0.05350663805 -0.05563704175 -0.05777428757 -0.05980748483 -0.06193255171)
5(-0.0537388907 -0.05585556455 -0.05796970657 -0.06002014961 -0.06214566479)
5(-0.05396259331 -0.05606671495 -0.05816067927 -0.06023573288 -0.06234695963)
5(-0.05417573935 -0.05626340483 -0.05834844683 -0.06044237758 -0.06253790799)
5(-0.05437685397 -0.05644106063 -0.05853946296 -0.06064003639 -0.06271746165)
5(-0.05456600572 -0.05661858436 -0.05873171384 -0.06081708364 -0.06288245198)
5(-0.05474269285 -0.05678655068 -0.05891286217 -0.06098068401 -0.06302958901)
5(-0.05490659418 -0.05695596933 -0.05908018181 -0.06112878148 -0.06315569893)
5(-0.05506038908 -0.05712752732 -0.05923239575 -0.06126047004 -0.06325818507)
5(-0.0552085525 -0.05728328732 -0.05936810829 -0.06136662996 -0.06333442365)
5(-0.0553548847 -0.05743120328 -0.05947731346 -0.06146293296 -0.06338103828)
5(-0.05549804059 -0.05755196661 -0.0595856171 -0.06151232856 -0.06339303406)
5(-0.05563477952 -0.05765200934 -0.05964815052 -0.06154241491 -0.0633653904)
5(-0.05576003038 -0.05773409638 -0.05968986862 -0.06153342659 -0.06329223315)
5(-0.05586613982 -0.0577942581 -0.05970393457 -0.06147993626 -0.06316501982)
5(-0.05594918249 -0.05782846894 -0.05967697157 -0.06137825292 -0.06297472664)
5(-0.05600293306 -0.05783197256 -0.05961551809 -0.06122405572 -0.06271220099)
5(-0.05601389635 -0.05779730248 -0.05950739185 -0.06099991194 -0.06236826515)
)


60
(
5(-0.02394947373 -0.02692085946 -0.03095137909 -0.0356275623 -0.03721030566)
5(-0.02879912049 -0.03171780363 -0.03466819634 -0.03842025104 -0.04056778292)
5(-0.03157781114 -0.03444141923 -0.03724091252 -0.04042088508 -0.04283240022)
5(-0.03318519666 -0.03599271091 -0.03898285049 -0.04186909189 -0.04433957034)
5(-0.0344616206 -0.03720688165 -0.04019424218 -0.04298589839 -0.04542451386)
5(-0.03562103588 -0.03835034886 -0.041174779 -0.04396453106 -0.04636033986)
5(-0.03664765193 -0.03934960902 -0.04212653008 -0.0448651012 -0.04724213999)
5(-0.03759274313 -0.04027125992 -0.04302195976 -0.04569953131 -0.0480735909)
5(-0.03847841299 -0.04112078356 -0.04383795836 -0.04647278027 -0.04884617462)
5(-0.03929765461 -0.04191022161 -0.04459266902 -0.04719318844 -0.04955725484)
5(-0.04006003705 -0.04264830112 -0.04529790119 -0.04786468712 -0.05021778926)
5(-0.04077710869 -0.04334496497 -0.04596692561 -0.04850194025 -0.05083927287)
5(-0.04145611107 -0.04400209265 -0.04659480906 -0.04910385163 -0.05143142652)
5(-0.04210236957 -0.04463005474 -0.04720109571 -0.04968126626 -0.05199777553)
5(-0.04271888877 -0.04522601562 -0.04777382783 -0.05022907095 -0.052539116)
5(-0.04330778753 -0.04579694582 -0.04832647745 -0.05075931469 -0.05305655951)