/*--------------------------------*- C++ -*----------------------------------*\
| =========                 |                                                 |
| \\      /  F ield         | OpenFOAM: The Open Source CFD Toolbox           |
|  \\    /   O peration     | Version:  2.3.1                                 |
|   \\  /    A nd           | Web:      www.OpenFOAM.org                      |
|    \\/     M anipulation  |                                                 |
\*---------------------------------------------------------------------------*/
FoamFile
{
    version     2.0;
    format      ascii;
    class       dictionary;
    location    "constant";
    object      GRPSI46;
}
// * * * * * * * * * * * * * * * * * * * * * * * * * * * * * * * * * * * * * //

GRPSI46_table
60
(

60
(
5{0}
5{0}
5(0 -5.020410754e-10 0 5.020410754e-10 0)
5(0 0 0 -2.350134309e-08 -4.700268619e-08)
5(0 0 0 -4.001776688e-09 -8.003553376e-09)
5{0}
5{0}
5{0}
5{0}
5{0}
5{0}
5{0}
5{0}
5{0}
5{0}
5{0}
5{0}
5{0}
5{0}
5{0}
5{0}
5{0}
5{0}
5{0}
5{0}
5{0}
5{0}
5{0}
5{0}
5{0}
5{0}
5{0}
5{0}
5{0}
5{0}
5{0}
5{0}
5{0}
5{0}
5{0}
5{0}
5{0}
5{0}
5{0}
5{0}
5{0}
5{0}
5{0}
5{0}
5{0}
5{0}
5{0}
5{0}
5{0}
5{0}
5{0}
5{0}
5{0}
5{0}
5{0}
)


60
(
5{0}
5{0}
5{0}
5{0}
5{0}
5{0}
5{0}
5{0}
5{0}
5{0}
5{0}
5{0}
5{0}
5{0}
5{0}
5{0}
5{0}
5{0}
5{0}
5{0}
5{0}
5{0}
5{0}
5{0}
5{0}
5{0}
5{0}
5{0}
5{0}
5{0}
5{0}
5{0}
5{0}
5{0}
5{0}
5{0}
5{0}
5{0}
5{0}
5{0}
5{0}
5{0}
5{0}
5{0}
5{0}
5{0}
5{0}
5{0}
5{0}
5{0}
5{0}
5{0}
5{0}
5{0}
5{0}
5{0}
5{0}
5{0}
5{0}
5{0}
)


60
(
5{0}
5{0}
5{0}
5{0}
5{0}
5{0}
5{0}
5{0}
5{0}
5{0}
5{0}
5{0}
5{0}
5{0}
5{0}
5{0}
5{0}
5{0}
5{0}
5{0}
5{0}
5{0}
5{0}
5{0}
5{0}
5{0}
5{0}
5{0}
5{0}
5{0}
5{0}
5{0}
5{0}
5{0}
5{0}
5{0}
5{0}
5{0}
5{0}
5{0}
5{0}
5{0}
5{0}
5{0}
5{0}
5{0}
5{0}
5{0}
5{0}
5{0}
5{0}
5{0}
5{0}
5{0}
5{0}
5{0}
5{0}
5{0}
5{0}
5{0}
)


60
(
5{0}
5{0}
5{0}
5{0}
5{0}
5{0}
5{0}
5{0}
5{0}
5{0}
5{0}
5{0}
5{0}
5{0}
5{0}
5{0}
5{0}
5{0}
5{0}
5{0}
5{0}
5{0}
5{0}
5{0}
5{0}
5{0}
5{0}
5{0}
5{0}
5{0}
5{0}
5{0}
5{0}
5{0}
5{0}
5{0}
5{0}
5{0}
5{0}
5{0}
5{0}
5{0}
5{0}
5{0}
5{0}
5{0}
5{0}
5{0}
5{0}
5{0}
5{0}
5{0}
5{0}
5{0}
5{0}
5{0}
5{0}
5{0}
5{0}
5{0}
)


60
(
5{0}
5{0}
5{0}
5{0}
5{0}
5{0}
5{0}
5{0}
5{0}
5{0}
5{0}
5{0}
5{0}
5{0}
5{0}
5{0}
5{0}
5{0}
5{0}
5{0}
5{0}
5{0}
5{0}
5{0}
5{0}
5{0}
5{0}
5{0}
5{0}
5{0}
5{0}
5{0}
5{0}
5{0}
5{0}
5{0}
5{0}
5{0}
5{0}
5{0}
5{0}
5{0}
5{0}
5{0}
5{0}
5{0}
5{0}
5{0}
5{0}
5{0}
5{0}
5{0}
5{0}
5{0}
5{0}
5{0}
5{0}
5{0}
5{0}
5{0}
)


60
(
5{0}
5{0}
5{0}
5{0}
5{0}
5{0}
5{0}
5{0}
5{0}
5{0}
5{0}
5{0}
5{0}
5{0}
5{0}
5{0}
5{0}
5{0}
5{0}
5{0}
5{0}
5{0}
5{0}
5{0}
5{0}
5{0}
5{0}
5{0}
5{0}
5{0}
5{0}
5{0}
5{0}
5{0}
5{0}
5{0}
5{0}
5{0}
5{0}
5{0}
5{0}
5{0}
5{0}
5{0}
5{0}
5{0}
5{0}
5{0}
5{0}
5{0}
5{0}
5{0}
5{0}
5{0}
5{0}
5{0}
5{0}
5{0}
5{0}
5{0}
)


60
(
5{0}
5{0}
5{0}
5{0}
5{0}
5{0}
5{0}
5{0}
5{0}
5{0}
5{0}
5{0}
5{0}
5{0}
5{0}
5{0}
5{0}
5{0}
5{0}
5{0}
5{0}
5{0}
5{0}
5{0}
5{0}
5{0}
5{0}
5{0}
5{0}
5{0}
5{0}
5{0}
5{0}
5{0}
5{0}
5{0}
5{0}
5{0}
5{0}
5{0}
5{0}
5{0}
5{0}
5{0}
5{0}
5{0}
5{0}
5{0}
5{0}
5{0}
5{0}
5{0}
5{0}
5{0}
5{0}
5{0}
5{0}
5{0}
5{0}
5{0}
)


60
(
5{0}
5{0}
5{0}
5{0}
5{0}
5{0}
5{0}
5{0}
5{0}
5{0}
5{0}
5{0}
5{0}
5{0}
5{0}
5{0}
5{0}
5{0}
5{0}
5{0}
5{0}
5{0}
5{0}
5{0}
5{0}
5{0}
5{0}
5{0}
5{0}
5{0}
5{0}
5{0}
5{0}
5{0}
5{0}
5{0}
5{0}
5{0}
5{0}
5{0}
5{0}
5{0}
5{0}
5{0}
5{0}
5{0}
5{0}
5{0}
5{0}
5{0}
5{0}
5{0}
5{0}
5{0}
5{0}
5{0}
5{0}
5{0}
5{0}
5{0}
)


60
(
5{0}
5{0}
5{0}
5{0}
5{0}
5{0}
5{0}
5{0}
5{0}
5{0}
5{0}
5{0}
5{0}
5{0}
5{0}
5{0}
5{0}
5{0}
5{0}
5{0}
5{0}
5{0}
5{0}
5{0}
5{0}
5{0}
5{0}
5{0}
5{0}
5{0}
5{0}
5{0}
5{0}
5{0}
5{0}
5{0}
5{0}
5{0}
5{0}
5{0}
5{0}
5{0}
5{0}
5{0}
5{0}
5{0}
5{0}
5{0}
5{0}
5{0}
5{0}
5{0}
5{0}
5{0}
5{0}
5{0}
5{0}
5{0}
5{0}
5{0}
)


60
(
5{0}
5{0}
5{0}
5{0}
5{0}
5{0}
5{0}
5{0}
5{0}
5{0}
5{0}
5{0}
5{0}
5{0}
5{0}
5{0}
5{0}
5{0}
5{0}
5{0}
5{0}
5{0}
5{0}
5{0}
5{0}
5{0}
5{0}
5{0}
5{0}
5{0}
5{0}
5{0}
5{0}
5{0}
5{0}
5{0}
5{0}
5{0}
5{0}
5{0}
5{0}
5{0}
5{0}
5{0}
5{0}
5{0}
5{0}
5{0}
5{0}
5{0}
5{0}
5{0}
5{0}
5{0}
5{0}
5{0}
5{0}
5{0}
5{0}
5{0}
)


60
(
5{0}
5{0}
5{0}
5{0}
5{0}
5{0}
5{0}
5{0}
5{0}
5{0}
5{0}
5{0}
5{0}
5{0}
5{0}
5{0}
5{0}
5{0}
5{0}
5{0}
5{0}
5{0}
5{0}
5{0}
5{0}
5{0}
5{0}
5{0}
5{0}
5{0}
5{0}
5{0}
5{0}
5{0}
5{0}
5{0}
5{0}
5{0}
5{0}
5{0}
5{0}
5{0}
5{0}
5{0}
5{0}
5{0}
5{0}
5{0}
5{0}
5{0}
5{0}
5{0}
5{0}
5{0}
5{0}
5{0}
5{0}
5{0}
5{0}
5{0}
)


60
(
5{0}
5{0}
5{0}
5{0}
5{0}
5{0}
5{0}
5{0}
5{0}
5{0}
5{0}
5{0}
5{0}
5{0}
5{0}
5{0}
5{0}
5{0}
5{0}
5{0}
5{0}
5{0}
5{0}
5{0}
5{0}
5{0}
5{0}
5{0}
5{0}
5{0}
5{0}
5{0}
5{0}
5{0}
5{0}
5{0}
5{0}
5{0}
5{0}
5{0}
5{0}
5{0}
5{0}
5{0}
5{0}
5{0}
5{0}
5{0}
5{0}
5{0}
5{0}
5{0}
5{0}
5{0}
5{0}
5{0}
5{0}
5{0}
5{0}
5{0}
)


60
(
5{0}
5{0}
5{0}
5{0}
5{0}
5{0}
5{0}
5{0}
5{0}
5{0}
5{0}
5{0}
5{0}
5{0}
5{0}
5{0}
5{0}
5{0}
5{0}
5{0}
5{0}
5{0}
5{0}
5{0}
5{0}
5{0}
5{0}
5{0}
5{0}
5{0}
5{0}
5{0}
5{0}
5{0}
5{0}
5{0}
5{0}
5{0}
5{0}
5{0}
5{0}
5{0}
5{0}
5{0}
5{0}
5{0}
5{0}
5{0}
5{0}
5{0}
5{0}
5{0}
5{0}
5{0}
5{0}
5{0}
5{0}
5{0}
5{0}
5{0}
)


60
(
5{0}
5{0}
5{0}
5{0}
5{0}
5{0}
5{0}
5{0}
5{0}
5{0}
5{0}
5{0}
5{0}
5{0}
5{0}
5{0}
5{0}
5{0}
5{0}
5{0}
5{0}
5{0}
5{0}
5{0}
5{0}
5{0}
5{0}
5{0}
5{0}
5{0}
5{0}
5{0}
5{0}
5{0}
5{0}
5{0}
5{0}
5{0}
5{0}
5{0}
5{0}
5{0}
5{0}
5{0}
5{0}
5{0}
5{0}
5{0}
5{0}
5{0}
5{0}
5{0}
5{0}
5{0}
5{0}
5{0}
5{0}
5{0}
5{0}
5{0}
)


60
(
5{0}
5{0}
5{0}
5{0}
5{0}
5{0}
5{0}
5{0}
5{0}
5{0}
5{0}
5{0}
5{0}
5{0}
5{0}
5{0}
5{0}
5{0}
5{0}
5{0}
5{0}
5{0}
5{0}
5{0}
5{0}
5{0}
5{0}
5{0}
5{0}
5{0}
5{0}
5{0}
5{0}
5{0}
5{0}
5{0}
5{0}
5{0}
5{0}
5{0}
5{0}
5{0}
5{0}
5{0}
5{0}
5{0}
5{0}
5{0}
5{0}
5{0}
5{0}
5{0}
5{0}
5{0}
5{0}
5{0}
5{0}
5{0}
5{0}
5{0}
)


60
(
5{0}
5{0}
5{0}
5{0}
5{0}
5{0}
5{0}
5{0}
5{0}
5{0}
5{0}
5{0}
5{0}
5{0}
5{0}
5{0}
5{0}
5{0}
5{0}
5{0}
5{0}
5{0}
5{0}
5{0}
5{0}
5{0}
5{0}
5{0}
5{0}
5{0}
5{0}
5{0}
5{0}
5{0}
5{0}
5{0}
5{0}
5{0}
5{0}
5{0}
5{0}
5{0}
5{0}
5{0}
5{0}
5{0}
5{0}
5{0}
5{0}
5{0}
5{0}
5{0}
5{0}
5{0}
5{0}
5{0}
5{0}
5{0}
5{0}
5{0}
)


60
(
5{0}
5{0}
5{0}
5{0}
5{0}
5{0}
5{0}
5{0}
5{0}
5{0}
5{0}
5{0}
5{0}
5{0}
5{0}
5{0}
5{0}
5{0}
5{0}
5{0}
5{0}
5{0}
5{0}
5{0}
5{0}
5{0}
5{0}
5{0}
5{0}
5{0}
5{0}
5{0}
5{0}
5{0}
5{0}
5{0}
5{0}
5{0}
5{0}
5{0}
5{0}
5{0}
5{0}
5{0}
5{0}
5{0}
5{0}
5{0}
5{0}
5{0}
5{0}
5{0}
5{0}
5{0}
5{0}
5{0}
5{0}
5{0}
5{0}
5{0}
)


60
(
5{0}
5{0}
5{0}
5{0}
5{0}
5{0}
5{0}
5{0}
5{0}
5{0}
5{0}
5{0}
5{0}
5{0}
5{0}
5{0}
5{0}
5{0}
5{0}
5{0}
5{0}
5{0}
5{0}
5{0}
5{0}
5{0}
5{0}
5{0}
5{0}
5{0}
5{0}
5{0}
5{0}
5{0}
5{0}
5{0}
5{0}
5{0}
5{0}
5{0}
5{0}
5{0}
5{0}
5{0}
5{0}
5{0}
5{0}
5{0}
5{0}
5{0}
5{0}
5{0}
5{0}
5{0}
5{0}
5{0}
5{0}
5{0}
5{0}
5{0}
)


60
(
5{0}
5{0}
5{0}
5{0}
5{0}
5{0}
5{0}
5{0}
5{0}
5{0}
5{0}
5{0}
5{0}
5{0}
5{0}
5{0}
5{0}
5{0}
5{0}
5{0}
5{0}
5{0}
5{0}
5{0}
5{0}
5{0}
5{0}
5{0}
5{0}
5{0}
5{0}
5{0}
5{0}
5{0}
5{0}
5{0}
5{0}
5{0}
5{0}
5{0}
5{0}
5{0}
5{0}
5{0}
5{0}
5{0}
5{0}
5{0}
5{0}
5{0}
5{0}
5{0}
5{0}
5{0}
5{0}
5{0}
5{0}
5{0}
5{0}
5{0}
)


60
(
5{0}
5{0}
5{0}
5{0}
5{0}
5{0}
5{0}
5{0}
5{0}
5{0}
5{0}
5{0}
5{0}
5{0}
5{0}
5{0}
5{0}
5{0}
5{0}
5{0}
5{0}
5{0}
5{0}
5{0}
5{0}
5{0}
5{0}
5{0}
5{0}
5{0}
5{0}
5{0}
5{0}
5{0}
5{0}
5{0}
5{0}
5{0}
5{0}
5{0}
5{0}
5{0}
5{0}
5{0}
5{0}
5{0}
5{0}
5{0}
5{0}
5{0}
5{0}
5{0}
5{0}
5{0}
5{0}
5{0}
5{0}
5{0}
5{0}
5{0}
)


60
(
5{0}
5{0}
5{0}
5{0}
5{0}
5{0}
5{0}
5{0}
5{0}
5{0}
5{0}
5{0}
5{0}
5{0}
5{0}
5{0}
5{0}
5{0}
5{0}
5{0}
5{0}
5{0}
5{0}
5{0}
5{0}
5{0}
5{0}
5{0}
5{0}
5{0}
5{0}
5{0}
5{0}
5{0}
5{0}
5{0}
5{0}
5{0}
5{0}
5{0}
5{0}
5{0}
5{0}
5{0}
5{0}
5{0}
5{0}
5{0}
5{0}
5{0}
5{0}
5{0}
5{0}
5{0}
5{0}
5{0}
5{0}
5{0}
5{0}
5{0}
)


60
(
5{0}
5{0}
5{0}
5{0}
5{0}
5{0}
5{0}
5{0}
5{0}
5{0}
5{0}
5{0}
5{0}
5{0}
5{0}
5{0}
5{0}
5{0}
5{0}
5{0}
5{0}
5{0}
5{0}
5{0}
5{0}
5{0}
5{0}
5{0}
5{0}
5{0}
5{0}
5{0}
5{0}
5{0}
5{0}
5{0}
5{0}
5{0}
5{0}
5{0}
5{0}
5{0}
5{0}
5{0}
5{0}
5{0}
5{0}
5{0}
5{0}
5{0}
5{0}
5{0}
5{0}
5{0}
5{0}
5{0}
5{0}
5{0}
5{0}
5{0}
)


60
(
5{0}
5{0}
5{0}
5{0}
5{0}
5{0}
5{0}
5{0}
5{0}
5{0}
5{0}
5{0}
5{0}
5{0}
5{0}
5{0}
5{0}
5{0}
5{0}
5{0}
5{0}
5{0}
5{0}
5{0}
5{0}
5{0}
5{0}
5{0}
5{0}
5{0}
5{0}
5{0}
5{0}
5{0}
5{0}
5{0}
5{0}
5{0}
5{0}
5{0}
5{0}
5{0}
5{0}
5{0}
5{0}
5{0}
5{0}
5{0}
5{0}
5{0}
5{0}
5{0}
5{0}
5{0}
5{0}
5{0}
5{0}
5{0}
5{0}
5{0}
)


60
(
5{0}
5{0}
5{0}
5{0}
5{0}
5{0}
5{0}
5{0}
5{0}
5{0}
5{0}
5{0}
5{0}
5{0}
5{0}
5{0}
5{0}
5{0}
5{0}
5{0}
5{0}
5{0}
5{0}
5{0}
5{0}
5{0}
5{0}
5{0}
5{0}
5{0}
5{0}
5{0}
5{0}
5{0}
5{0}
5{0}
5{0}
5{0}
5{0}
5{0}
5{0}
5{0}
5{0}
5{0}
5{0}
5{0}
5{0}
5{0}
5{0}
5{0}
5{0}
5{0}
5{0}
5{0}
5{0}
5{0}
5{0}
5{0}
5{0}
5{0}
)


60
(
5{0}
5{0}
5{0}
5{0}
5{0}
5{0}
5{0}
5{0}
5{0}
5{0}
5{0}
5{0}
5{0}
5{0}
5{0}
5{0}
5{0}
5{0}
5{0}
5{0}
5{0}
5{0}
5{0}
5{0}
5{0}
5{0}
5{0}
5{0}
5{0}
5{0}
5{0}
5{0}
5{0}
5{0}
5{0}
5{0}
5{0}
5{0}
5{0}
5{0}
5{0}
5{0}
5{0}
5{0}
5{0}
5{0}
5{0}
5{0}
5{0}
5{0}
5{0}
5{0}
5{0}
5{0}
5{0}
5{0}
5{0}
5{0}
5{0}
5{0}
)


60
(
5{0}
5{0}
5{0}
5{0}
5{0}
5{0}
5{0}
5{0}
5{0}
5{0}
5{0}
5{0}
5{0}
5{0}
5{0}
5{0}
5{0}
5{0}
5{0}
5{0}
5{0}
5{0}
5{0}
5{0}
5{0}
5{0}
5{0}
5{0}
5{0}
5{0}
5{0}
5{0}
5{0}
5{0}
5{0}
5{0}
5{0}
5{0}
5{0}
5{0}
5{0}
5{0}
5{0}
5{0}
5{0}
5{0}
5{0}
5{0}
5{0}
5{0}
5{0}
5{0}
5{0}
5{0}
5{0}
5{0}
5{0}
5{0}
5{0}
5{0}
)


60
(
5{0}
5{0}
5{0}
5{0}
5{0}
5{0}
5{0}
5{0}
5{0}
5{0}
5{0}
5{0}
5{0}
5{0}
5{0}
5{0}
5{0}
5{0}
5{0}
5{0}
5{0}
5{0}
5{0}
5{0}
5{0}
5{0}
5{0}
5{0}
5{0}
5{0}
5{0}
5{0}
5{0}
5{0}
5{0}
5{0}
5{0}
5{0}
5{0}
5{0}
5{0}
5{0}
5{0}
5{0}
5{0}
5{0}
5{0}
5{0}
5{0}
5{0}
5{0}
5{0}
5{0}
5{0}
5{0}
5{0}
5{0}
5{0}
5{0}
5{0}
)


60
(
5{0}
5{0}
5{0}
5{0}
5{0}
5{0}
5{0}
5{0}
5{0}
5{0}
5{0}
5{0}
5{0}
5{0}
5{0}
5{0}
5{0}
5{0}
5{0}
5{0}
5{0}
5{0}
5{0}
5{0}
5{0}
5{0}
5{0}
5{0}
5{0}
5{0}
5{0}
5{0}
5{0}
5{0}
5{0}
5{0}
5{0}
5{0}
5{0}
5{0}
5{0}
5{0}
5{0}
5{0}
5{0}
5{0}
5{0}
5{0}
5{0}
5{0}
5{0}
5{0}
5{0}
5{0}
5{0}
5{0}
5{0}
5{0}
5{0}
5{0}
)


60
(
5{0}
5{0}
5{0}
5{0}
5{0}
5{0}
5{0}
5{0}
5{0}
5{0}
5{0}
5{0}
5{0}
5{0}
5{0}
5{0}
5{0}
5{0}
5{0}
5{0}
5{0}
5{0}
5{0}
5{0}
5{0}
5{0}
5{0}
5{0}
5{0}
5{0}
5{0}
5{0}
5{0}
5{0}
5{0}
5{0}
5{0}
5{0}
5{0}
5{0}
5{0}
5{0}
5{0}
5{0}
5{0}
5{0}
5{0}
5{0}
5{0}
5{0}
5{0}
5{0}
5{0}
5{0}
5{0}
5{0}
5{0}
5{0}
5{0}
5{0}
)


60
(
5{0}
5{0}
5{0}
5{0}
5{0}
5{0}
5{0}
5{0}
5{0}
5{0}
5{0}
5{0}
5{0}
5{0}
5{0}
5{0}
5{0}
5{0}
5{0}
5{0}
5{0}
5{0}
5{0}
5{0}
5{0}
5{0}
5{0}
5{0}
5{0}
5{0}
5{0}
5{0}
5{0}
5{0}
5{0}
5{0}
5{0}
5{0}
5{0}
5{0}
5{0}
5{0}
5{0}
5{0}
5{0}
5{0}
5{0}
5{0}
5{0}
5{0}
5{0}
5{0}
5{0}
5{0}
5{0}
5{0}
5{0}
5{0}
5{0}
5{0}
)


60
(
5{0}
5{0}
5{0}
5{0}
5{0}
5{0}
5{0}
5{0}
5{0}
5{0}
5{0}
5{0}
5{0}
5{0}
5{0}
5{0}
5{0}
5{0}
5{0}
5{0}
5{0}
5{0}
5{0}
5{0}
5{0}
5{0}
5{0}
5{0}
5{0}
5{0}
5{0}
5{0}
5{0}
5{0}
5{0}
5{0}
5{0}
5{0}
5{0}
5{0}
5{0}
5{0}
5{0}
5{0}
5{0}
5{0}
5{0}
5{0}
5{0}
5{0}
5{0}
5{0}
5{0}
5{0}
5{0}
5{0}
5{0}
5{0}
5{0}
5{0}
)


60
(
5{0}
5{0}
5{0}
5{0}
5{0}
5{0}
5{0}
5{0}
5{0}
5{0}
5{0}
5{0}
5{0}
5{0}
5{0}
5{0}
5{0}
5{0}
5{0}
5{0}
5{0}
5{0}
5{0}
5{0}
5{0}
5{0}
5{0}
5{0}
5{0}
5{0}
5{0}
5{0}
5{0}
5{0}
5{0}
5{0}
5{0}
5{0}
5{0}
5{0}
5{0}
5{0}
5{0}
5{0}
5{0}
5{0}
5{0}
5{0}
5{0}
5{0}
5{0}
5{0}
5{0}
5{0}
5{0}
5{0}
5{0}
5{0}
5{0}
5{0}
)


60
(
5{0}
5{0}
5{0}
5{0}
5{0}
5{0}
5{0}
5{0}
5{0}
5{0}
5{0}
5{0}
5{0}
5{0}
5{0}
5{0}
5{0}
5{0}
5{0}
5{0}
5{0}
5{0}
5{0}
5{0}
5{0}
5{0}
5{0}
5{0}
5{0}
5{0}
5{0}
5{0}
5{0}
5{0}
5{0}
5{0}
5{0}
5{0}
5{0}
5{0}
5{0}
5{0}
5{0}
5{0}
5{0}
5{0}
5{0}
5{0}
5{0}
5{0}
5{0}
5{0}
5{0}
5{0}
5{0}
5{0}
5{0}
5{0}
5{0}
5{0}
)


60
(
5{0}
5{0}
5{0}
5{0}
5{0}
5{0}
5{0}
5{0}
5{0}
5{0}
5{0}
5{0}
5{0}
5{0}
5{0}
5{0}
5{0}
5{0}
5{0}
5{0}
5{0}
5{0}
5{0}
5{0}
5{0}
5{0}
5{0}
5{0}
5{0}
5{0}
5{0}
5{0}
5{0}
5{0}
5{0}
5{0}
5{0}
5{0}
5{0}
5{0}
5{0}
5{0}
5{0}
5{0}
5{0}
5{0}
5{0}
5{0}
5{0}
5{0}
5{0}
5{0}
5{0}
5{0}
5{0}
5{0}
5{0}
5{0}
5{0}
5{0}
)


60
(
5{0}
5{0}
5{0}
5{0}
5{0}
5{0}
5{0}
5{0}
5{0}
5{0}
5{0}
5{0}
5{0}
5{0}
5{0}
5{0}
5{0}
5{0}
5{0}
5{0}
5{0}
5{0}
5{0}
5{0}
5{0}
5{0}
5{0}
5{0}
5{0}
5{0}
5{0}
5{0}
5{0}
5{0}
5{0}
5{0}
5{0}
5{0}
5{0}
5{0}
5{0}
5{0}
5{0}
5{0}
5{0}
5{0}
5{0}
5{0}
5{0}
5{0}
5{0}
5{0}
5{0}
5{0}
5{0}
5{0}
5{0}
5{0}
5{0}
5{0}
)


60
(
5{0}
5{0}
5{0}
5{0}
5{0}
5{0}
5{0}
5{0}
5{0}
5{0}
5{0}
5{0}
5{0}
5{0}
5{0}
5{0}
5{0}
5{0}
5{0}
5{0}
5{0}
5{0}
5{0}
5{0}
5{0}
5{0}
5{0}
5{0}
5{0}
5{0}
5{0}
5{0}
5{0}
5{0}
5{0}
5{0}
5{0}
5{0}
5{0}
5{0}
5{0}
5{0}
5{0}
5{0}
5{0}
5{0}
5{0}
5{0}
5{0}
5{0}
5{0}
5{0}
5{0}
5{0}
5{0}
5{0}
5{0}
5{0}
5{0}
5{0}
)


60
(
5{0}
5{0}
5{0}
5{0}
5{0}
5{0}
5{0}
5{0}
5{0}
5{0}
5{0}
5{0}
5{0}
5{0}
5{0}
5{0}
5{0}
5{0}
5{0}
5{0}
5{0}
5{0}
5{0}
5{0}
5{0}
5{0}
5{0}
5{0}
5{0}
5{0}
5{0}
5{0}
5{0}
5{0}
5{0}
5{0}
5{0}
5{0}
5{0}
5{0}
5{0}
5{0}
5{0}
5{0}
5{0}
5{0}
5{0}
5{0}
5{0}
5{0}
5{0}
5{0}
5{0}
5{0}
5{0}
5{0}
5{0}
5{0}
5{0}
5{0}
)


60
(
5{0}
5{0}
5{0}
5{0}
5{0}
5{0}
5{0}
5{0}
5{0}
5{0}
5{0}
5{0}
5{0}
5{0}
5{0}
5{0}
5{0}
5{0}
5{0}
5{0}
5{0}
5{0}
5{0}
5{0}
5{0}
5{0}
5{0}
5{0}
5{0}
5{0}
5{0}
5{0}
5{0}
5{0}
5{0}
5{0}
5{0}
5{0}
5{0}
5{0}
5{0}
5{0}
5{0}
5{0}
5{0}
5{0}
5{0}
5{0}
5{0}
5{0}
5{0}
5{0}
5{0}
5{0}
5{0}
5{0}
5{0}
5{0}
5{0}
5{0}
)


60
(
5{0}
5{0}
5{0}
5{0}
5{0}
5{0}
5{0}
5{0}
5{0}
5{0}
5{0}
5{0}
5{0}
5{0}
5{0}
5{0}
5{0}
5{0}
5{0}
5{0}
5{0}
5{0}
5{0}
5{0}
5{0}
5{0}
5{0}
5{0}
5{0}
5{0}
5{0}
5{0}
5{0}
5{0}
5{0}
5{0}
5{0}
5{0}
5{0}
5{0}
5{0}
5{0}
5{0}
5{0}
5{0}
5{0}
5{0}
5{0}
5{0}
5{0}
5{0}
5{0}
5{0}
5{0}
5{0}
5{0}
5{0}
5{0}
5{0}
5{0}
)


60
(
5{0}
5{0}
5{0}
5{0}
5{0}
5{0}
5{0}
5{0}
5{0}
5{0}
5{0}
5{0}
5{0}
5{0}
5{0}
5{0}
5{0}
5{0}
5{0}
5{0}
5{0}
5{0}
5{0}
5{0}
5{0}
5{0}
5{0}
5{0}
5{0}
5{0}
5{0}
5{0}
5{0}
5{0}
5{0}
5{0}
5{0}
5{0}
5{0}
5{0}
5{0}
5{0}
5{0}
5{0}
5{0}
5{0}
5{0}
5{0}
5{0}
5{0}
5{0}
5{0}
5{0}
5{0}
5{0}
5{0}
5{0}
5{0}
5{0}
5{0}
)


60
(
5{0}
5{0}
5{0}
5{0}
5{0}
5{0}
5{0}
5{0}
5{0}
5{0}
5{0}
5{0}
5{0}
5{0}
5{0}
5{0}
5{0}
5{0}
5{0}
5{0}
5{0}
5{0}
5{0}
5{0}
5{0}
5{0}
5{0}
5{0}
5{0}
5{0}
5{0}
5{0}
5{0}
5{0}
5{0}
5{0}
5{0}
5{0}
5{0}
5{0}
5{0}
5{0}
5{0}
5{0}
5{0}
5{0}
5{0}
5{0}
5{0}
5{0}
5{0}
5{0}
5{0}
5{0}
5{0}
5{0}
5{0}
5{0}
5{0}
5{0}
)


60
(
5{0}
5{0}
5{0}
5{0}
5{0}
5{0}
5{0}
5{0}
5{0}
5{0}
5{0}
5{0}
5{0}
5{0}
5{0}
5{0}
5{0}
5{0}
5{0}
5{0}
5{0}
5{0}
5{0}
5{0}
5{0}
5{0}
5{0}
5{0}
5{0}
5{0}
5{0}
5{0}
5{0}
5{0}
5{0}
5{0}
5{0}
5{0}
5{0}
5{0}
5{0}
5{0}
5{0}
5{0}
5{0}
5{0}
5{0}
5{0}
5{0}
5{0}
5{0}
5{0}
5{0}
5{0}
5{0}
5{0}
5{0}
5{0}
5{0}
5{0}
)


60
(
5{0}
5{0}
5{0}
5{0}
5{0}
5{0}
5{0}
5{0}
5{0}
5{0}
5{0}
5{0}
5{0}
5{0}
5{0}
5{0}
5{0}
5{0}
5{0}
5{0}
5{0}
5{0}
5{0}
5{0}
5{0}
5{0}
5{0}
5{0}
5{0}
5{0}
5{0}
5{0}
5{0}
5{0}
5{0}
5{0}
5{0}
5{0}
5{0}
5{0}
5{0}
5{0}
5{0}
5{0}
5{0}
5{0}
5{0}
5{0}
5{0}
5{0}
5{0}
5{0}
5{0}
5{0}
5{0}
5{0}
5{0}
5{0}
5{0}
5{0}
)


60
(
5{0}
5{0}
5{0}
5{0}
5{0}
5{0}
5{0}
5{0}
5{0}
5{0}
5{0}
5{0}
5{0}
5{0}
5{0}
5{0}
5{0}
5{0}
5{0}
5{0}
5{0}
5{0}
5{0}
5{0}
5{0}
5{0}
5{0}
5{0}
5{0}
5{0}
5{0}
5{0}
5{0}
5{0}
5{0}
5{0}
5{0}
5{0}
5{0}
5{0}
5{0}
5{0}
5{0}
5{0}
5{0}
5{0}
5{0}
5{0}
5{0}
5{0}
5{0}
5{0}
5{0}
5{0}
5{0}
5{0}
5{0}
5{0}
5{0}
5{0}
)


60
(
5{0}
5{0}
5{0}
5{0}
5{0}
5{0}
5{0}
5{0}
5{0}
5{0}
5{0}
5{0}
5{0}
5{0}
5{0}
5{0}
5{0}
5{0}
5{0}
5{0}
5{0}
5{0}
5{0}
5{0}
5{0}
5{0}
5{0}
5{0}
5{0}
5{0}
5{0}
5{0}
5{0}
5{0}
5{0}
5{0}
5{0}
5{0}
5{0}
5{0}
5{0}
5{0}
5{0}
5{0}
5{0}
5{0}
5{0}
5{0}
5{0}
5{0}
5{0}
5{0}
5{0}
5{0}
5{0}
5{0}
5{0}
5{0}
5{0}
5{0}
)


60
(
5{0}
5{0}
5{0}
5{0}
5{0}
5{0}
5{0}
5{0}
5{0}
5{0}
5{0}
5{0}
5{0}
5{0}
5{0}
5{0}
5{0}
5{0}
5{0}
5{0}
5{0}
5{0}
5{0}
5{0}
5{0}
5{0}
5{0}
5{0}
5{0}
5{0}
5{0}
5{0}
5{0}
5{0}
5{0}
5{0}
5{0}
5{0}
5{0}
5{0}
5{0}
5{0}
5{0}
5{0}
5{0}
5{0}
5{0}
5{0}
5{0}
5{0}
5{0}
5{0}
5{0}
5{0}
5{0}
5{0}
5{0}
5{0}
5{0}
5{0}
)


60
(
5{0}
5{0}
5{0}
5{0}
5{0}
5{0}
5{0}
5{0}
5{0}
5{0}
5{0}
5{0}
5{0}
5{0}
5{0}
5{0}
5{0}
5{0}
5{0}
5{0}
5{0}
5{0}
5{0}
5{0}
5{0}
5{0}
5{0}
5{0}
5{0}
5{0}
5{0}
5{0}
5{0}
5{0}
5{0}
5{0}
5{0}
5{0}
5{0}
5{0}
5{0}
5{0}
5{0}
5{0}
5{0}
5{0}
5{0}
5{0}
5{0}
5{0}
5{0}
5{0}
5{0}
5{0}
5{0}
5{0}
5{0}
5{0}
5{0}
5{0}
)


60
(
5{0}
5{0}
5{0}
5{0}
5{0}
5{0}
5{0}
5{0}
5{0}
5{0}
5{0}
5{0}
5{0}
5{0}
5{0}
5{0}
5{0}
5{0}
5{0}
5{0}
5{0}
5{0}
5{0}
5{0}
5{0}
5{0}
5{0}
5{0}
5{0}
5{0}
5{0}
5{0}
5{0}
5{0}
5{0}
5{0}
5{0}
5{0}
5{0}
5{0}
5{0}
5{0}
5{0}
5{0}
5{0}
5{0}
5{0}
5{0}
5{0}
5{0}
5{0}
5{0}
5{0}
5{0}
5{0}
5{0}
5{0}
5{0}
5{0}
5{0}
)


60
(
5{0}
5{0}
5{0}
5{0}
5{0}
5{0}
5{0}
5{0}
5{0}
5{0}
5{0}
5{0}
5{0}
5{0}
5{0}
5{0}
5{0}
5{0}
5{0}
5{0}
5{0}
5{0}
5{0}
5{0}
5{0}
5{0}
5{0}
5{0}
5{0}
5{0}
5{0}
5{0}
5{0}
5{0}
5{0}
5{0}
5{0}
5{0}
5{0}
5{0}
5{0}
5{0}
5{0}
5{0}
5{0}
5{0}
5{0}
5{0}
5{0}
5{0}
5{0}
5{0}
5{0}
5{0}
5{0}
5{0}
5{0}
5{0}
5{0}
5{0}
)


60
(
5{0}
5{0}
5{0}
5{0}
5{0}
5{0}
5{0}
5{0}
5{0}
5{0}
5{0}
5{0}
5{0}
5{0}
5{0}
5{0}
5{0}
5{0}
5{0}
5{0}
5{0}
5{0}
5{0}
5{0}
5{0}
5{0}
5{0}
5{0}
5{0}
5{0}
5{0}
5{0}
5{0}
5{0}
5{0}
5{0}
5{0}
5{0}
5{0}
5{0}
5{0}
5{0}
5{0}
5{0}
5{0}
5{0}
5{0}
5{0}
5{0}
5{0}
5{0}
5{0}
5{0}
5{0}
5{0}
5{0}
5{0}
5{0}
5{0}
5{0}
)


60
(
5{0}
5{0}
5{0}
5{0}
5{0}
5{0}
5{0}
5{0}
5{0}
5{0}
5{0}
5{0}
5{0}
5{0}
5{0}
5{0}
5{0}
5{0}
5{0}
5{0}
5{0}
5{0}
5{0}
5{0}
5{0}
5{0}
5{0}
5{0}
5{0}
5{0}
5{0}
5{0}
5{0}
5{0}
5{0}
5{0}
5{0}
5{0}
5{0}
5{0}
5{0}
5{0}
5{0}
5{0}
5{0}
5{0}
5{0}
5{0}
5{0}
5{0}
5{0}
5{0}
5{0}
5{0}
5{0}
5{0}
5{0}
5{0}
5{0}
5{0}
)


60
(
5{0}
5{0}
5{0}
5{0}
5{0}
5{0}
5{0}
5{0}
5{0}
5{0}
5{0}
5{0}
5{0}
5{0}
5{0}
5{0}
5{0}
5{0}
5{0}
5{0}
5{0}
5{0}
5{0}
5{0}
5{0}
5{0}
5{0}
5{0}
5{0}
5{0}
5{0}
5{0}
5{0}
5{0}
5{0}
5{0}
5{0}
5{0}
5{0}
5{0}
5{0}
5{0}
5{0}
5{0}
5{0}
5{0}
5{0}
5{0}
5{0}
5{0}
5{0}
5{0}
5{0}
5{0}
5{0}
5{0}
5{0}
5{0}
5{0}
5{0}
)


60
(
5{0}
5{0}
5{0}
5{0}
5{0}
5{0}
5{0}
5{0}
5{0}
5{0}
5{0}
5{0}
5{0}
5{0}
5{0}
5{0}
5{0}
5{0}
5{0}
5{0}
5{0}
5{0}
5{0}
5{0}
5{0}
5{0}
5{0}
5{0}
5{0}
5{0}
5{0}
5{0}
5{0}
5{0}
5{0}
5{0}
5{0}
5{0}
5{0}
5{0}
5{0}
5{0}
5{0}
5{0}
5{0}
5{0}
5{0}
5{0}
5{0}
5{0}
5{0}
5{0}
5{0}
5{0}
5{0}
5{0}
5{0}
5{0}
5{0}
5{0}
)


60
(
5{0}
5{0}
5{0}
5{0}
5{0}
5{0}
5{0}
5{0}
5{0}
5{0}
5{0}
5{0}
5{0}
5{0}
5{0}
5{0}
5{0}
5{0}
5{0}
5{0}
5{0}
5{0}
5{0}
5{0}
5{0}
5{0}
5{0}
5{0}
5{0}
5{0}
5{0}
5{0}
5{0}
5{0}
5{0}
5{0}
5{0}
5{0}
5{0}
5{0}
5{0}
5{0}
5{0}
5{0}
5{0}
5{0}
5{0}
5{0}
5{0}
5{0}
5{0}
5{0}
5{0}
5{0}
5{0}
5{0}
5{0}
5{0}
5{0}
5{0}
)


60
(
5{0}
5{0}
5{0}
5{0}
5{0}
5{0}
5{0}
5{0}
5{0}
5{0}
5{0}
5{0}
5{0}
5{0}
5{0}
5{0}
5{0}
5{0}
5{0}
5{0}
5{0}
5{0}
5{0}
5{0}
5{0}
5{0}
5{0}
5{0}
5{0}
5{0}
5{0}
5{0}
5{0}
5{0}
5{0}
5{0}
5{0}
5{0}
5{0}
5{0}
5{0}
5{0}
5{0}
5{0}
5{0}
5{0}
5{0}
5{0}
5{0}
5{0}
5{0}
5{0}
5{0}
5{0}
5{0}
5{0}
5{0}
5{0}
5{0}
5{0}
)


60
(
5{0}
5{0}
5{0}
5{0}
5{0}
5{0}
5{0}
5{0}
5{0}
5{0}
5{0}
5{0}
5{0}
5{0}
5{0}
5{0}
5{0}
5{0}
5{0}
5{0}
5{0}
5{0}
5{0}
5{0}
5{0}
5{0}
5{0}
5{0}
5{0}
5{0}
5{0}
5{0}
5{0}
5{0}
5{0}
5{0}
5{0}
5{0}
5{0}
5{0}
5{0}
5{0}
5{0}
5{0}
5{0}
5{0}
5{0}
5{0}
5{0}
5{0}
5{0}
5{0}
5{0}
5{0}
5{0}
5{0}
5{0}
5{0}
5{0}
5{0}
)


60
(
5{0}
5{0}
5{0}
5{0}
5{0}
5{0}
5{0}
5{0}
5{0}
5{0}
5{0}
5{0}
5{0}
5{0}
5{0}
5{0}
5{0}
5{0}
5{0}
5{0}
5{0}
5{0}
5{0}
5{0}
5{0}
5{0}
5{0}
5{0}
5{0}
5{0}
5{0}
5{0}
5{0}
5{0}
5{0}
5{0}
5{0}
5{0}
5{0}
5{0}
5{0}
5{0}
5{0}
5{0}
5{0}
5{0}
5{0}
5{0}
5{0}
5{0}
5{0}
5{0}
5{0}
5{0}
5{0}
5{0}
5{0}
5{0}
5{0}
5{0}
)


60
(
5{0}
5{0}
5{0}
5{0}
5{0}
5{0}
5{0}
5{0}
5{0}
5{0}
5{0}
5{0}
5{0}
5{0}
5{0}
5{0}
5{0}
5{0}
5{0}
5{0}
5{0}
5{0}
5{0}
5{0}
5{0}
5{0}
5{0}
5{0}
5{0}
5{0}
5{0}
5{0}
5{0}
5{0}
5{0}
5{0}
5{0}
5{0}
5{0}
5{0}
5{0}
5{0}
5{0}
5{0}
5{0}
5{0}
5{0}
5{0}
5{0}
5{0}
5{0}
5{0}
5{0}
5{0}
5{0}
5{0}
5{0}
5{0}
5{0}
5{0}
)


60
(
5{0}
5{0}
5{0}
5{0}
5{0}
5{0}
5{0}
5{0}
5{0}
5{0}
5{0}
5{0}
5{0}
5{0}
5{0}
5{0}
5{0}
5{0}
5{0}
5{0}
5{0}
5{0}
5{0}
5{0}
5{0}
5{0}
5{0}
5{0}
5{0}
5{0}
5{0}
5{0}
5{0}
5{0}
5{0}
5{0}
5{0}
5{0}
5{0}
5{0}
5{0}
5{0}
5{0}
5{0}
5{0}
5{0}
5{0}
5{0}
5{0}
5{0}
5{0}
5{0}
5{0}
5{0}
5{0}
5{0}
5{0}
5{0}
5{0}
5{0}
)


60
(
5{0}
5{0}
5{0}
5{0}
5{0}
5{0}
5{0}
5{0}
5{0}
5{0}
5{0}
5{0}
5{0}
5{0}
5{0}
5{0}
5{0}
5{0}
5{0}
5{0}
5{0}
5{0}
5{0}
5{0}
5{0}
5{0}
5{0}
5{0}
5{0}
5{0}
5{0}
5{0}
5{0}
5{0}
5{0}
5{0}
5{0}
5{0}
5{0}
5{0}
5{0}
5{0}
5{0}
5{0}
5{0}
5{0}
5{0}
5{0}
5{0}
5{0}
5{0}
5{0}
5{0}
5{0}
5{0}
5{0}
5{0}
5{0}
5{0}
5{0}
)

)
;