/*--------------------------------*- C++ -*----------------------------------*\
| =========                 |                                                 |
| \\      /  F ield         | OpenFOAM: The Open Source CFD Toolbox           |
|  \\    /   O peration     | Version:  2.3.1                                 |
|   \\  /    A nd           | Web:      www.OpenFOAM.org                      |
|    \\/     M anipulation  |                                                 |
\*---------------------------------------------------------------------------*/
FoamFile
{
    version     2.0;
    format      ascii;
    class       dictionary;
    location    "constant";
    object      GRPSI12;
}
// * * * * * * * * * * * * * * * * * * * * * * * * * * * * * * * * * * * * * //

GRPSI12_table
60
(

60
(
5(-0.01459041331 -0.0118121076 -0.02325975478 -0.01646411105 -0.03255945192)
5(-0.01454131769 -0.004427493704 -0.01729713023 -0.01314284776 -0.03013372837)
5(-0.007246111032 0.001980967184 -0.005457929289 -0.00776555708 -0.006357926932)
5(0 0.0001304525557 0.0005132960525 -0.0001404243215 0.005263445641)
5(0.002239032466 -0.0007798824257 -0.002475892334 0.002990611549 -0.003302383582)
5(0.003497996643 -0.0007132406896 -0.002124795192 -0.0009695178265 0.001928733054)
5(-0.0004831371231 -0.0003360076238 0.001981358217 -0.0007079000417 -0.001295349504)
5(-0.0007097632632 0.0001129460805 0.0006036646813 0.0006381840856 -0.002903526575)
5(0.0008503776106 0.0003358026548 1.953891999e-05 -0.0002291419128 0.001666497606)
5(2.045224157e-06 0.0001839298173 0.000663997652 -0.0002310058095 0.0003515483795)
5(7.689508365e-05 -3.001335246e-06 -0.0005880111129 0.0001385122331 -0.0003116522203)
5(-0.0004968695629 7.109908531e-05 -0.000623165754 0.0003632933478 -9.10700435e-05)
5(4.022240795e-05 0.0001429686222 -1.844004575e-05 -0.0001093090885 2.279904707e-05)
5(9.579840084e-05 -7.212964373e-05 -9.193891306e-05 -0.0002011242721 -0.0003397973191)
5(-0.0001814295976 -7.107424632e-05 -4.154899668e-05 0.0002801397632 -9.630209371e-06)
5(0.0001715440581 5.77357898e-05 0.0001620471988 7.082355788e-05 0.0002673762351)
5(1.30527393e-05 -1.946561196e-05 3.118766087e-05 0.0001822348416 0.0002944371614)
5(-3.6973925e-05 3.700821333e-05 4.329833698e-05 0.0001354556811 0.0001107864275)
5(0.000121606867 0.0002414993549 0.0001964791726 0.0002902652052 -5.768395789e-06)
5(0.0001308637516 9.37928687e-05 1.932728435e-05 0.0002541034926 -4.042429227e-05)
5(1.734337509e-05 -0.000103065701 -4.407546054e-05 -0.0005698907557 -0.0003453877482)
5(0.0002028311824 0.0001088561521 9.758993268e-05 -0.0001335373486 4.679052057e-05)
5(0.000132106395 0.0003070870255 6.1252799e-05 0.0004188675636 0.0003629617826)
5(8.379279751e-05 0.0002792670587 0.0002116915879 0.0002726384288 0.0001831404075)
5(0.0001800697931 0.0001217180787 0.0004272592103 0.0005439047206 0.0002636255864)
5(0.0001729075593 5.026654527e-05 0.0001772375853 0.0005052304063 0.0001815280841)
5(0.0001385200672 8.647448433e-05 0.0001266635656 0.0003469542901 0.0002048138993)
5(0.0002806334311 0.000276689372 0.0002362894479 0.0001800991473 0.0002507917495)
5(0.0003899961873 0.000442425654 8.336920562e-05 -7.71754537e-05 0.0001935315931)
5(0.0003879656223 0.0004994682749 0.0003984877595 0.0002481162245 0.0002450222893)
5(0.0004274353841 0.0003661985782 0.0003187880199 0.0001706553326 -0.000331406618)
5(0.0003396642627 0.000379113786 0.0002913547303 2.19020099e-05 0.0003085649875)
5(0.0004285999261 0.0005995079859 0.0007160751193 0.0003010679932 0.0002290923125)
5(0.0005681778132 0.0005456028517 0.0005767453134 0.000302755648 -0.0004325923643)
5(0.0005891417313 0.000739543057 0.0009612470136 0.0005118841875 0.000390140767)
5(0.0006118889337 0.0004511302429 0.0001872544347 0.0001413099106 0.0004982804023)
5(0.0006466238478 0.0004799192271 -0.0003441632245 0.0002804941772 -0.001185784968)
5(0.0007718859894 0.000820454033 0.0008263312453 0.0004782712263 0.0003718238957)
5(0.001120332601 0.0006887152404 0.001259445717 0.0004770064082 -0.004011125038)
5(0.001039199354 0.000463762194 0.0003453269259 0.0003775142412 -0.005663831654)
5(0.0005666514207 0.0002925885393 -0.0003122862401 -0.001875234311 0.0001659082665)
5(0.0005472175126 0.0001318973534 -0.0001024881253 -0.006204073407 0.0001608521024)
5(0.0007808697332 0.0004273134328 0.002017569536 -0.004203575204 0.0007451921472)
5(0.0008306380721 0.0005327456613 0.001755149578 0.000443696948 0.0007064165573)
5(0.0002610164665 0.0004233837755 -0.001495542808 0.0006079808417 0.0006409477682)
5(-0.000175153239 0.0001177333 -0.005750611195 0.0008545939775 0.001154240837)
5(-0.0001843683382 -0.00214601309 -0.006019852485 0.001082454706 0.001584599788)
5(-0.0001414957178 -0.001227447905 -0.001030215474 0.001386321649 0.002079013089)
5(-0.000120566609 -0.004145199934 0.000964296252 0.001822204964 0.002670027861)
5(-0.000654910914 -0.004277163517 0.001497220721 0.00234928602 0.003406675204)
5(-0.004449544823 0.001162110549 0.001933351922 0.002994383505 0.004314091746)
5(-0.004999252309 0.001595000675 0.002454573878 0.003764137938 0.005402556186)
5(-0.0006345241191 0.00200547382 0.003097674123 0.004690627693 0.006744466592)
5(0.001321320965 0.002501744111 0.003873955249 0.005815389061 0.008323168252)
5(0.002322367323 0.003117358153 0.004805958338 0.007116330732 0.01013033415)
5(0.00374670479 0.003883713935 0.005942934284 0.00861981462 0.01203561388)
5(0.004580168415 0.005428607811 0.007362168727 0.01032993815 0.01403667165)
5(0.004470581863 0.007256570269 0.009980584857 0.009078118054 0.0162960997)
5(0.004532543498 0.009127784955 0.01478208056 0.0236971548 0.02966340505)
5(0.004684326867 0.01028835929 0.01776026168 0.04045061872 0.04183981268)
)


60
(
5(-0.008108543657 0.0009684437759 -0.01576168669 -0.009505548197 -0.02421667345)
5(-0.005885479098 0.0009749974896 -0.01116905134 -0.006602941367 -0.01754451827)
5(-0.001925728171 0.001082993309 -0.003327049337 -0.001734004386 -0.005971834001)
5(0.0009601919741 0.001355974057 0.001635750786 0.001240502368 0.001597753735)
5(0.002436256398 0.001525673561 0.003302496741 0.00227198077 0.004519188571)
5(0.002238813866 0.00135152259 0.002383807254 0.001849675365 0.003441468597)
5(0.001237736247 0.001040654879 0.001044466159 0.001069298315 0.00121440601)
5(0.0006349249536 0.0008399305454 0.0004116405826 0.0006227260062 0.0001475145171)
5(0.0006318226948 0.0008258279773 0.0004360580117 0.0006553969152 0.0002804696443)
5(0.0008182524622 0.0009018361946 0.0007828078117 0.0008786238442 0.0008330232406)
5(0.0009405675886 0.0009211690243 0.001024502858 0.0009744770388 0.001151855593)
5(0.0009712133991 0.0009123819502 0.001065214113 0.0009664524367 0.001117243698)
5(0.000905360661 0.0009004021039 0.0009674644426 0.0009472124064 0.0009485741085)
5(0.0008574631672 0.0008808934623 0.0008940508034 0.0009143407038 0.0008689543526)
5(0.0008652867174 0.0009008607307 0.0009102075857 0.0008953035372 0.0008731586199)
5(0.0008966088107 0.0009367236423 0.0009755127418 0.0009491180658 0.000923098878)
5(0.0009315530552 0.0009710445372 0.001018073267 0.0009924520803 0.0009718653603)
5(0.0009748063434 0.00100303364 0.00104624529 0.001037555524 0.001003458702)
5(0.001013190358 0.00104471333 0.001076131859 0.001099400416 0.001048632004)
5(0.001059091222 0.001105371835 0.001123763837 0.001130738256 0.001075812999)
5(0.001112965562 0.001161345065 0.001171602717 0.001160917108 0.001096918603)
5(0.00116384338 0.001218170399 0.001224410785 0.001188257571 0.001155475241)
5(0.001239484938 0.001295943226 0.001313581369 0.001211454143 0.001202526182)
5(0.001328928742 0.001379398084 0.001383041561 0.001308776074 0.001261092059)
5(0.001422508742 0.001470865273 0.001497668219 0.001449806754 0.001345200967)
5(0.001534309142 0.001565664301 0.001615880327 0.001566904977 0.001423284455)
5(0.00165071199 0.001686545163 0.001691390726 0.001653231058 0.001493461581)
5(0.001786062893 0.001835988201 0.001824494842 0.001725608368 0.001594699072)
5(0.001943733975 0.001962455292 0.001955435987 0.001828919479 0.001685270312)
5(0.002114272178 0.002114180366 0.002095814498 0.001952680256 0.001770935045)
5(0.002299311937 0.002293364436 0.002240063052 0.002082545474 0.001861331483)
5(0.002496710618 0.002473654911 0.002401907414 0.002202811306 0.001908654179)
5(0.002709223664 0.002661070604 0.002574854014 0.002308505963 0.001917397689)
5(0.002934610982 0.002864161082 0.002731171462 0.002398026872 0.001903070091)
5(0.003185148707 0.003061168902 0.00289278312 0.002476217007 0.001906018423)
5(0.003421848002 0.00322686415 0.003020093978 0.002497359897 0.001955744881)
5(0.003649071006 0.003391216105 0.003096463621 0.002487809476 0.001993245098)
5(0.003867136042 0.003480767918 0.003108870864 0.00246729501 0.001737181319)
5(0.004009798375 0.003560382611 0.003064118385 0.002305848423 0.0009754351798)
5(0.004080989083 0.003524919732 0.002868192162 0.002004750095 -0.0002195913889)
5(0.00402981129 0.003411280166 0.002671325453 0.001450261962 -0.001415923578)
5(0.003906375518 0.003179654062 0.002467312597 0.0004895221643 -0.002189942564)
5(0.003656037165 0.00263436935 0.00215845256 -0.0007219449489 -0.002440261379)
5(0.003159228209 0.002162836449 0.001615251851 -0.001869825436 -0.002428714043)
5(0.002464184116 0.001697550209 0.0006050222119 -0.002633610991 -0.002423036007)
5(0.001632811211 0.001117266633 -0.0008421931322 -0.002888099284 -0.002329683338)
5(0.0007238465653 0.0003172084808 -0.002281256126 -0.002805185479 -0.002041489748)
5(-0.0001946670093 -0.0008389384376 -0.003223720681 -0.002590868023 -0.001492141424)
5(-0.001189746541 -0.002321268649 -0.003656365133 -0.002265925318 -0.0006652717446)
5(-0.002252826117 -0.003765520525 -0.003664389683 -0.001735588438 0.0003438428407)
5(-0.003442306806 -0.004628007251 -0.003392420426 -0.0009406931611 0.001523767727)
5(-0.004740569503 -0.004811327745 -0.002865325719 1.911170446e-05 0.002824292475)
5(-0.005904107841 -0.004550121148 -0.002154224893 0.001079016323 0.004313743462)
5(-0.006743408552 -0.004027962472 -0.001308282774 0.002395747873 0.006080461987)
5(-0.007047555343 -0.003406059657 -0.0003520341785 0.003923033519 0.008096676944)
5(-0.006922367783 -0.002829508662 0.000699733438 0.005547948281 0.01038262368)
5(-0.00648166432 -0.002146803693 0.001826568006 0.007336021042 0.01291606035)
5(-0.005769205377 -0.001474597222 0.002874895176 0.009307236624 0.01574600718)
5(-0.005687762136 -0.001271115967 0.00192123768 0.01145586522 0.01904352217)
5(-0.006010999987 -0.001358773546 0.0004777475156 0.01257277792 0.02084294143)
)


60
(
5(-0.003824919677 0.004972174622 -0.01185255893 -0.006408910555 -0.01979115875)
5(-0.002494519494 0.004109740202 -0.007852380558 -0.004028154279 -0.01382490727)
5(3.973280505e-07 0.00284921875 -0.001159940682 -4.200993961e-05 -0.003695708063)
5(0.002137471364 0.002478805223 0.002856036968 0.002378420601 0.002721169596)
5(0.003350290353 0.002493173043 0.004088604897 0.003159453761 0.005147093772)
5(0.003056382456 0.002234088009 0.003201329969 0.002647484551 0.004086581346)
5(0.002051714284 0.001855698581 0.001876213116 0.001826853 0.002009046637)
5(0.001451087597 0.001659401583 0.00120912495 0.001404194351 0.0009880263612)
5(0.00139945463 0.001597950689 0.00120760444 0.0014103391 0.001106129991)
5(0.001544240211 0.001616353967 0.0015118781 0.001581474934 0.001577967365)
5(0.001640322346 0.001620277528 0.001719616387 0.001673253452 0.001802645613)
5(0.001650761722 0.001607215827 0.001738383573 0.00165698421 0.001775866218)
5(0.001590284162 0.001591978959 0.001657043128 0.001609622037 0.001628506215)
5(0.001540099441 0.001577586225 0.001597641619 0.001571582903 0.001540877225)
5(0.001540240016 0.001591856567 0.001601946886 0.001579633841 0.001547157069)
5(0.001576890688 0.001615727327 0.001652756214 0.001629268045 0.001603049862)
5(0.001622283169 0.00165587682 0.001702958865 0.001683234846 0.001652345003)
5(0.001667052888 0.001710468986 0.00175303144 0.001735014542 0.001701046683)
5(0.001719126678 0.001763729105 0.001804714617 0.001802582162 0.001754186491)
5(0.001771415677 0.001834424607 0.001854671767 0.001863329411 0.001803267447)
5(0.001848562018 0.001915450985 0.001921365514 0.001894087317 0.001855730636)
5(0.001930363027 0.00199671466 0.002008790862 0.001962535146 0.001916642459)
5(0.002022490305 0.002091254215 0.002120013796 0.002046214105 0.001998041384)
5(0.002133580884 0.002198856213 0.002230111077 0.002145593382 0.002088892778)
5(0.002258887719 0.002325189532 0.002357591011 0.002309454727 0.002191377345)
5(0.002405331721 0.002456471998 0.002484554416 0.002450843433 0.002317796271)
5(0.002554867559 0.002624102408 0.00264416161 0.002596525532 0.002439139628)
5(0.002736854889 0.002797390236 0.002802820509 0.002720531015 0.002571761453)
5(0.002936884434 0.002962927861 0.002981340565 0.00286608422 0.002719941953)
5(0.003144872598 0.003194676397 0.003194888103 0.003051308886 0.002861755093)
5(0.00337756721 0.003422203256 0.003383116026 0.003217611145 0.003003294903)
5(0.003630980354 0.0036295265 0.003611609976 0.003424219424 0.003108424019)
5(0.003900859403 0.003906521877 0.00386806986 0.003608272886 0.00319440988)
5(0.004176835034 0.004178001936 0.004072152326 0.003762298401 0.003253146985)
5(0.004434370871 0.00442359435 0.004306358992 0.003912643384 0.003320057801)
5(0.004746320827 0.004665372587 0.004532900143 0.004033104239 0.003437998333)
5(0.005035264329 0.00488479534 0.004682293186 0.004108988913 0.003504009341)
5(0.005254392458 0.00509159671 0.004773329559 0.00411405135 0.003263653624)
5(0.005431753141 0.005186308362 0.004766955673 0.00399797927 0.002531931446)
5(0.005470160063 0.005185075279 0.004697093246 0.003721930635 0.001373280269)
5(0.005457419704 0.005115621234 0.004502212728 0.003179303978 0.0001673760377)
5(0.005289770237 0.004841030143 0.004210041221 0.002216362708 -0.00073481229)
5(0.004891291753 0.004355699492 0.003837772767 0.0008931142519 -0.00128754006)
5(0.004319405172 0.003681858227 0.003110634395 -0.000437139633 -0.00161478593)
5(0.003523853614 0.002962426357 0.001934056612 -0.001491710706 -0.001912705614)
5(0.002508602237 0.002215495145 0.0003367647926 -0.002147994237 -0.00219344862)
5(0.001342079432 0.001133719031 -0.001381265201 -0.002503907003 -0.002319800771)
5(0.000113238344 -0.0004115572528 -0.002764717419 -0.002752010596 -0.002165940078)
5(-0.001129626408 -0.002162258311 -0.003658590897 -0.002856412655 -0.001669815104)
5(-0.002426077231 -0.003836735788 -0.00412648142 -0.002716752829 -0.0008565670296)
5(-0.003827293399 -0.005100101659 -0.004285091948 -0.002312552186 0.0001169829974)
5(-0.005290691458 -0.005712675793 -0.004205915977 -0.001653971918 0.001234168867)
5(-0.006615316604 -0.005814232011 -0.003889429668 -0.0007561866281 0.002631229362)
5(-0.007572625281 -0.005708097387 -0.003335921824 0.000390439077 0.004340923032)
5(-0.008134395584 -0.005485385855 -0.002610260577 0.001744580042 0.006321544954)
5(-0.008350063078 -0.005089117143 -0.001741225713 0.003284399891 0.008539812174)
5(-0.008250344429 -0.0046394508 -0.0008036097716 0.005035240736 0.01100360146)
5(-0.007987581936 -0.004197054444 0.0001577570752 0.006842715345 0.01364305181)
5(-0.009285724302 -0.005039827752 -0.001630496913 0.007896839047 0.01606376734)
5(-0.01071889504 -0.006092469835 -0.003905227665 0.008065228742 0.01713940045)
)


60
(
5(0.0001274514709 0.008773946423 -0.00843033556 -0.00378596972 -0.01617744401)
5(0.000609101177 0.007102820451 -0.004984758575 -0.001810656589 -0.01083604666)
5(0.001775566179 0.004567105738 0.0007372178859 0.001486686752 -0.001812037644)
5(0.00327726875 0.003592539943 0.004056778729 0.003454428615 0.003816944443)
5(0.004292625108 0.003440457605 0.004935341698 0.004031705004 0.005888466588)
5(0.003923490429 0.003124465887 0.003997372292 0.003446329602 0.004812130101)
5(0.002870235838 0.00268257599 0.002687893606 0.002588900339 0.002786024167)
5(0.002234132755 0.002425954837 0.001988461002 0.002153912185 0.001775402931)
5(0.002145256712 0.00233842007 0.001951277751 0.002132796971 0.001837013614)
5(0.002262515923 0.002326893356 0.002208859008 0.002261396017 0.002250160076)
5(0.002331315606 0.002311096336 0.002384558403 0.0023224106 0.002456916121)
5(0.002314818916 0.002280684649 0.002395536493 0.002305124194 0.002419318314)
5(0.002247058216 0.002243924668 0.002309144697 0.002257047063 0.002260623291)
5(0.00219588821 0.002228515052 0.002244892282 0.002213668223 0.002177621952)
5(0.002192044569 0.002236527729 0.002256452529 0.002210454805 0.002187270781)
5(0.002221285535 0.002269216166 0.002305408761 0.002264935248 0.002236788659)
5(0.002267949008 0.002307263879 0.002348553175 0.002308643393 0.0022989516)
5(0.002318661097 0.002363384908 0.002405686491 0.00237909965 0.002344822487)
5(0.00237045506 0.002428282476 0.002456887026 0.002457487233 0.00239959662)
5(0.002436383228 0.002494522054 0.002528615091 0.002527030324 0.002460311398)
5(0.002521691235 0.002595349381 0.002616863953 0.002584327854 0.00253140635)
5(0.002617228462 0.002693604562 0.002709497705 0.002651035452 0.002621162019)
5(0.002720227965 0.002789710336 0.002817053512 0.002767051999 0.002719099354)
5(0.00284827748 0.002914741775 0.002961478091 0.002890338162 0.002845863214)
5(0.002992556326 0.003073807906 0.003127612913 0.003056666774 0.002975559995)
5(0.003151417266 0.003236076189 0.003280221482 0.003244691093 0.003106991831)
5(0.003326781556 0.003403216866 0.003455112582 0.003420794558 0.003277748165)
5(0.003527241831 0.003609188977 0.003646748442 0.003573275272 0.003436775598)
5(0.00375052269 0.003826665405 0.003865659398 0.003771738312 0.003625940852)
5(0.003979891799 0.004062416267 0.004103634905 0.00399450556 0.003826365358)
5(0.004233838958 0.004320296514 0.004327748478 0.004213607605 0.004013271426)
5(0.004509692528 0.004590185392 0.004616155582 0.004465649231 0.004198012658)
5(0.004785988351 0.004881663253 0.004915489885 0.004701258274 0.004342397072)
5(0.005081632526 0.005175780242 0.005171290165 0.00492350535 0.004461771675)
5(0.00538537012 0.005473848715 0.005452359309 0.005155253143 0.004598939059)
5(0.005669246709 0.005748135824 0.005699394046 0.005348707524 0.004779758449)
5(0.005942978851 0.005996506242 0.00594050044 0.005482313748 0.004894067585)
5(0.006160390117 0.006217361768 0.006119216031 0.005549977585 0.004738719952)
5(0.006298660037 0.006345662943 0.006181685292 0.005505996222 0.004083327349)
5(0.006361537014 0.006405175189 0.006128660898 0.005303756102 0.002996607246)
5(0.006259744186 0.006325448209 0.005953941311 0.004794582609 0.001853961606)
5(0.006006376845 0.006029783284 0.005681596875 0.003860817153 0.0008975709526)
5(0.005588131441 0.005524539851 0.005257425215 0.002541617171 0.000224609179)
5(0.004955016399 0.004841887888 0.004499173256 0.0011384099 -0.0002870876004)
5(0.004099824817 0.004002474302 0.003191439414 -6.428101214e-05 -0.0008583188567)
5(0.00299887996 0.002993312658 0.001469462672 -0.0009864023991 -0.001473887681)
5(0.001800887416 0.001776523798 -0.0004026255428 -0.001669845552 -0.001982057696)
5(0.0004752635699 0.0001861718375 -0.002024022629 -0.002265694929 -0.002191513309)
5(-0.0008161458061 -0.001763390877 -0.003176433087 -0.002766369366 -0.002065031214)
5(-0.002156473033 -0.003669457575 -0.004049327921 -0.003087622783 -0.001629580761)
5(-0.003717064131 -0.005114826493 -0.004640646224 -0.003080732501 -0.0009233711212)
5(-0.00523946795 -0.005964685057 -0.004929459985 -0.002789395041 -2.471554965e-06)
5(-0.006635196134 -0.006395121622 -0.004974195405 -0.002229087953 0.001163487708)
5(-0.007742645093 -0.006617160458 -0.004763398356 -0.001332592884 0.002683284025)
5(-0.008481427175 -0.00662454808 -0.004308580718 -0.0001827051938 0.004570926829)
5(-0.008882563294 -0.006464548012 -0.003650612712 0.00122402165 0.006626824778)
5(-0.009015012363 -0.006216786581 -0.002880303088 0.002750570462 0.008866339615)
5(-0.009141103687 -0.006009925397 -0.002134643775 0.00429438849 0.01134388007)
5(-0.01138477031 -0.008384282841 -0.004063016469 0.004594014222 0.01291043631)
5(-0.01351913081 -0.01081531545 -0.006345332372 0.004106561439 0.01320068417)
)


60
(
5(0.003964951924 0.01253162493 -0.005215413952 -0.001341613017 -0.01291022383)
5(0.003627745448 0.01006799282 -0.002284867274 0.000277776046 -0.008133203748)
5(0.003509910346 0.006268437242 0.002541947105 0.002955105407 -8.809361792e-05)
5(0.004412539153 0.004694194954 0.005252755903 0.004512918855 0.004899957192)
5(0.005253848893 0.004397882582 0.005813736089 0.004893976576 0.006682347108)
5(0.004802260102 0.004008340156 0.004796165262 0.004238446514 0.005554488045)
5(0.003685767135 0.00348998341 0.003484352955 0.00335845393 0.003546002155)
5(0.003014393105 0.003201098671 0.002751149396 0.002883524457 0.002526449189)
5(0.002889129822 0.003058071097 0.002669425531 0.002816940217 0.002541154291)
5(0.002967772295 0.003021847643 0.002893451706 0.002922384479 0.002912675279)
5(0.003009804722 0.002989934813 0.003044620707 0.002973847697 0.003092555278)
5(0.002976431754 0.002926438711 0.003042542351 0.002932958209 0.003036098546)
5(0.002892094038 0.002890009878 0.002941852384 0.002863814963 0.002882627198)
5(0.00282858867 0.002865740442 0.002868325552 0.002827596794 0.002787223016)
5(0.00282077088 0.002865461169 0.002863112369 0.002827959766 0.002786566524)
5(0.002847594487 0.002885742028 0.002913652926 0.0028690888 0.002845419509)
5(0.002888212264 0.002922070953 0.002983281177 0.002901282391 0.002903682894)
5(0.002936708884 0.002982955423 0.003019224941 0.002991158977 0.002955045514)
5(0.002993345524 0.003045846018 0.003076372916 0.003079843221 0.003016515032)
5(0.003061788003 0.003123046308 0.003163117748 0.003133353011 0.003090294204)
5(0.003148737987 0.003222159296 0.003250447918 0.003221094069 0.003169331402)
5(0.003245828913 0.003323748932 0.003348768495 0.003298921365 0.00326370627)
5(0.003361070799 0.003441925749 0.003479436861 0.003399826053 0.003387723992)
5(0.003502875781 0.003588210488 0.003636721204 0.003561838646 0.003520477061)
5(0.003647195175 0.003723913026 0.003803425751 0.003756349423 0.003673712335)
5(0.003816442883 0.00390940133 0.0039801821 0.00395267547 0.003857080655)
5(0.004014809323 0.004112711993 0.00417231291 0.00414378075 0.004039973724)
5(0.004225296906 0.004302341619 0.004386193478 0.004345853829 0.004232807974)
5(0.004438516415 0.004541535908 0.004622413901 0.004560798769 0.004447589773)
5(0.004677391371 0.004808188163 0.004874657881 0.004801705879 0.004674468179)
5(0.004951394768 0.005077411104 0.005146178215 0.005072194232 0.004908776849)
5(0.005218188572 0.005363816016 0.005444705684 0.005358707954 0.005140902219)
5(0.00549115896 0.005654170484 0.00576679329 0.005637629643 0.00534830663)
5(0.005774772982 0.00595833085 0.006070356924 0.005906945439 0.005528009692)
5(0.006062315201 0.006283851209 0.006377401071 0.006178951667 0.005725818042)
5(0.006340670986 0.006557907546 0.006679931907 0.006416921054 0.005963342936)
5(0.006568043098 0.006808149998 0.006936667493 0.006626935736 0.006151040966)
5(0.006742590198 0.007053056763 0.007142365232 0.006767397558 0.00607860536)
5(0.006844465359 0.007197647695 0.007240604596 0.006794578313 0.005541887558)
5(0.006827070501 0.007224439992 0.007228971395 0.006664289185 0.00456153765)
5(0.006678612226 0.007108560569 0.007115095353 0.006214415439 0.003467419383)
5(0.006363242928 0.006803218907 0.006841698362 0.005350493503 0.002570848079)
5(0.005865165278 0.006308679146 0.006400817243 0.004091106909 0.001888147284)
5(0.005189308186 0.00559153273 0.005607879652 0.002687511927 0.001246334348)
5(0.004383939134 0.004717830476 0.004325715937 0.001425460564 0.0004964968777)
5(0.003384679593 0.003701320044 0.002565633857 0.0003542711294 -0.0003390947098)
5(0.002245160272 0.002409848754 0.0005782436048 -0.0005965520026 -0.001109357786)
5(0.001019019136 0.0007461073445 -0.001205601548 -0.00144806518 -0.001661497606)
5(-0.0002890311902 -0.001249679436 -0.002598217876 -0.002276221502 -0.001933106852)
5(-0.001639687171 -0.003198098494 -0.003695008619 -0.00297231486 -0.001901545616)
5(-0.003134816374 -0.004743709054 -0.004595783461 -0.003359504694 -0.001583801659)
5(-0.004744769213 -0.005799856356 -0.005197070444 -0.003469542138 -0.001003541773)
5(-0.006274298099 -0.006445433224 -0.005500306336 -0.003204993896 -9.654238039e-05)
5(-0.007497453437 -0.006847038778 -0.005558389846 -0.002612553323 0.001167119379)
5(-0.008383353325 -0.00707110222 -0.005393956461 -0.001783083798 0.002776577852)
5(-0.008965687516 -0.007136552589 -0.004986482587 -0.0006646082798 0.004635676742)
5(-0.009320746088 -0.007099668828 -0.004422604003 0.0006830642898 0.006701257679)
5(-0.009756069737 -0.007211878524 -0.00388413177 0.00209889107 0.00893597923)
5(-0.01261660748 -0.009823014372 -0.007213587432 0.001164529698 0.009122558714)
5(-0.01518488547 -0.01229259048 -0.01078961407 -0.0004755380979 0.008172785042)
)


60
(
5(0.007760015885 0.01627212512 -0.002107160374 0.001027155495 -0.009831039432)
5(0.006614823049 0.01301771599 0.0003339809512 0.002301196829 -0.005579451379)
5(0.005233356896 0.007973801402 0.004316543709 0.0043912997 0.001564684541)
5(0.005552025489 0.005808770986 0.006447370142 0.005568158608 0.005971927514)
5(0.00622402081 0.00534620683 0.006701971856 0.005755296344 0.007491945659)
5(0.005689982833 0.004885076154 0.00559386519 0.005029409669 0.006307501401)
5(0.004504674803 0.004303760035 0.004275423261 0.004109845363 0.0042944696)
5(0.003790376861 0.003960734431 0.003504678404 0.003601556761 0.00325396124)
5(0.003628370695 0.003786869132 0.003379410491 0.003498554963 0.003232036121)
5(0.003669413792 0.003709196012 0.003565289221 0.003571221728 0.003560023701)
5(0.00368195897 0.003647047362 0.003690042991 0.00359940707 0.003713371678)
5(0.003627800678 0.00358038133 0.003672082202 0.003544991675 0.00364091193)
5(0.003532093063 0.003512583054 0.003558521654 0.003466661087 0.003480940295)
5(0.003456477016 0.003481110609 0.003479186287 0.003420154979 0.003385166191)
5(0.003433948052 0.003471870697 0.003470635506 0.003418415126 0.003379464668)
5(0.00345268827 0.003491481595 0.003513668195 0.003443711186 0.003427936235)
5(0.003490813723 0.003522662643 0.00355878183 0.003499326659 0.003482477254)
5(0.003535919509 0.003570097638 0.003614486254 0.003573259855 0.003544972102)
5(0.003591228276 0.003640168839 0.003677789978 0.003648532726 0.003605291743)
5(0.003662029643 0.003716162974 0.003747658387 0.00373529365 0.003678121093)
5(0.003743363407 0.003812972169 0.003850536631 0.003805091775 0.003774952146)
5(0.003843372993 0.003923985061 0.003958656727 0.003890644149 0.003883973399)
5(0.003967375621 0.004042544344 0.004089107037 0.004017503378 0.004010598423)
5(0.004104693963 0.004178285382 0.00425460195 0.004179874421 0.004161873775)
5(0.004255903954 0.004344786211 0.004424746553 0.00438259803 0.004327477593)
5(0.00442763157 0.004527905482 0.004608934004 0.004603030063 0.004511663949)
5(0.004621113753 0.004725633889 0.004820510245 0.004804212822 0.00471346419)
5(0.004835848998 0.004945895661 0.005050477996 0.005012841406 0.004943751532)
5(0.005058410044 0.00518998355 0.005290531494 0.005264055795 0.005195933275)
5(0.005297509577 0.005442007039 0.005552042339 0.005525930334 0.005450239185)
5(0.005548136347 0.005703013255 0.005853993897 0.005811536948 0.005716733255)
5(0.005803394883 0.006009126815 0.006162136669 0.006124036575 0.005978957327)
5(0.006072244817 0.006313993089 0.006475124242 0.006435934843 0.006213894242)
5(0.006332277241 0.00660242755 0.006792793619 0.006744584354 0.00645595031)
5(0.006588423083 0.006895049288 0.007108894674 0.007033215715 0.006714164407)
5(0.006803241241 0.007167424211 0.007437286114 0.00731098971 0.006992480062)
5(0.00697804646 0.007422709252 0.007712969661 0.007567458478 0.007248395513)
5(0.007093449326 0.00762511129 0.007920779551 0.007757333753 0.007246013811)
5(0.007112490899 0.007720728761 0.008054585946 0.007823335561 0.006801435645)
5(0.007026421089 0.007728712127 0.008044388845 0.007746187226 0.005903937237)
5(0.0067911292 0.007594756117 0.007925119064 0.007383098373 0.004940735154)
5(0.006412160264 0.007253975031 0.007675188691 0.006573158635 0.004124710333)
5(0.005912087976 0.006734243399 0.007245141379 0.005386627631 0.003438040868)
5(0.005293649578 0.006033597115 0.006452034783 0.004057921342 0.002784953049)
5(0.004531518949 0.005181583731 0.005147269694 0.002781836299 0.001977224816)
5(0.003583070722 0.004185638919 0.003394912751 0.001645106476 0.001010978226)
5(0.002590050037 0.002923041883 0.001377580355 0.0005585629588 -9.096514855e-06)
5(0.001541574562 0.001303095193 -0.0003744810742 -0.0005534082144 -0.0008385798109)
5(0.000326795531 -0.0006296718363 -0.001856059718 -0.001604549438 -0.001417635433)
5(-0.0009173884873 -0.00252469682 -0.003207592488 -0.002580316281 -0.001800967755)
5(-0.002339877508 -0.004122083202 -0.004267138541 -0.003316070141 -0.001832536109)
5(-0.003955266211 -0.005279026467 -0.005097461242 -0.003718188351 -0.001582829522)
5(-0.005574539964 -0.006085842166 -0.00564673814 -0.00384165119 -0.001105339842)
5(-0.006941379793 -0.006701313639 -0.005902793666 -0.003576954988 -0.00018318977)
5(-0.008008292804 -0.007096872478 -0.005917040799 -0.00295763141 0.00112282558)
5(-0.008803468079 -0.007376669703 -0.005730115179 -0.002114718855 0.002749012725)
5(-0.009367497965 -0.007568970674 -0.005421164941 -0.001032813752 0.004634904864)
5(-0.01004892891 -0.007961901541 -0.005247839527 0.0001223255728 0.006587890068)
5(-0.01332170439 -0.01115242361 -0.009154447018 -0.001529406591 0.005982079733)
5(-0.01619550198 -0.0140281978 -0.01305430658 -0.003730938796 0.00441105099)
)


60
(
5(0.01154453524 0.02001113307 0.0009439561902 0.003349084631 -0.006860606857)
5(0.009596093151 0.01597261732 0.002913477406 0.004289042924 -0.00311130164)
5(0.006956515956 0.009682667976 0.006073701215 0.005813629963 0.003178828316)
5(0.006696738691 0.006922879366 0.007641794717 0.006616421464 0.007039175327)
5(0.007203660263 0.006299888969 0.007596102724 0.006618693798 0.008305720428)
5(0.006582643756 0.0057679313 0.006396577538 0.005817325185 0.00706391079)
5(0.005326361884 0.00511187629 0.005061645283 0.004856877965 0.00503702154)