/*--------------------------------*- C++ -*----------------------------------*\
| =========                 |                                                 |
| \\      /  F ield         | OpenFOAM: The Open Source CFD Toolbox           |
|  \\    /   O peration     | Version:  2.3.1                                 |
|   \\  /    A nd           | Web:      www.OpenFOAM.org                      |
|    \\/     M anipulation  |                                                 |
\*---------------------------------------------------------------------------*/
FoamFile
{
    version     2.0;
    format      ascii;
    class       dictionary;
    location    "constant";
    object      H2;
}
// * * * * * * * * * * * * * * * * * * * * * * * * * * * * * * * * * * * * * //

H2_table
60
(

60
(
5(5.064741619e-06 3.87607409e-06 1.259744875e-05 1.312321576e-05 2.677092495e-05)
5(2.77596534e-06 1.172135254e-06 6.514863708e-06 7.648868172e-06 1.361066381e-05)
5(0 1.970523872e-06 3.553678844e-06 4.219378823e-06 0)
5(0 2.2310671e-06 3.824456807e-06 2.041718043e-06 8.999275268e-06)
5(0 2.036548293e-06 3.873912279e-06 4.14354152e-06 6.3984595e-06)
5(1.409062363e-06 1.820138357e-06 1.985834189e-06 4.257232028e-06 4.925089769e-06)
5(1.569269614e-06 1.669750371e-06 2.367886472e-06 3.228833018e-06 7.889258788e-06)
5(9.308146954e-07 1.666382651e-06 3.254533643e-06 3.707067176e-06 3.579104572e-06)
5(1.721491632e-06 1.753957427e-06 2.866438624e-06 3.840927628e-06 5.134618159e-06)
5(1.842491597e-06 1.88051406e-06 3.384423832e-06 3.605600339e-06 5.485141122e-06)
5(1.973594449e-06 1.900887039e-06 3.350164638e-06 3.709042505e-06 5.575708578e-06)
5(1.608731827e-06 1.891853749e-06 3.02346458e-06 3.754411984e-06 5.17922119e-06)
5(1.188356336e-06 1.943665826e-06 2.962737751e-06 4.054946278e-06 5.51520826e-06)
5(1.370774422e-06 2.005405547e-06 3.056436942e-06 3.726218933e-06 5.270972598e-06)
5(1.255169388e-06 1.951639221e-06 2.966039109e-06 3.968363328e-06 5.259646642e-06)
5(1.375141241e-06 2.067269397e-06 3.12108414e-06 4.074547561e-06 5.385455174e-06)
5(1.405220192e-06 2.080084519e-06 3.185319837e-06 4.142075414e-06 5.678278087e-06)
5(1.401751172e-06 2.105061474e-06 3.219578362e-06 4.340701375e-06 5.851867485e-06)
5(1.397859869e-06 2.149925532e-06 3.294992229e-06 4.391626476e-06 5.993732613e-06)
5(1.49462646e-06 2.302676823e-06 3.483202058e-06 4.76733605e-06 6.061586572e-06)
5(1.521573839e-06 2.294447922e-06 3.453393787e-06 4.815904592e-06 6.157621133e-06)
5(1.581978582e-06 2.362028971e-06 3.626910464e-06 4.438280691e-06 5.88676579e-06)
5(1.707396307e-06 2.497527608e-06 3.724834822e-06 4.939440778e-06 6.512432135e-06)
5(1.75152333e-06 2.715941499e-06 3.895309009e-06 5.136200252e-06 6.672235167e-06)
5(1.87915196e-06 2.87879194e-06 4.151744538e-06 5.550864477e-06 7.143931327e-06)
5(1.992106305e-06 3.052808239e-06 4.553576979e-06 6.090222168e-06 7.459247455e-06)
5(2.139205061e-06 3.180184353e-06 4.649034485e-06 6.534414172e-06 7.885719384e-06)
5(2.263156528e-06 3.370183346e-06 5.0672991e-06 6.975042098e-06 8.286815417e-06)
5(2.531561832e-06 3.688024926e-06 5.304779068e-06 7.290873718e-06 8.831683011e-06)
5(2.759315142e-06 4.083227757e-06 5.637058583e-06 7.469844371e-06 9.181327487e-06)
5(3.081644745e-06 4.510882682e-06 6.23807335e-06 8.225331784e-06 9.828890066e-06)
5(3.389176614e-06 4.85807382e-06 6.535816977e-06 8.317268841e-06 9.248726796e-06)
5(3.713048815e-06 5.360685028e-06 7.167225143e-06 8.901653783e-06 1.092311235e-05)
5(4.145463959e-06 5.968903755e-06 7.982697582e-06 9.35148033e-06 1.012390608e-05)
5(4.63897477e-06 6.481503342e-06 8.504437212e-06 9.935619324e-06 1.059595736e-05)
5(5.161349546e-06 7.357711148e-06 9.850697131e-06 1.067045839e-05 1.109251678e-05)
5(5.749421491e-06 7.610557391e-06 9.406771582e-06 1.065589856e-05 1.181696665e-05)
5(6.375606894e-06 8.583292331e-06 1.008338889e-05 1.155731076e-05 9.070391392e-06)
5(7.159011548e-06 9.237750805e-06 1.112447155e-05 1.17684452e-05 1.252761464e-05)
5(8.225379754e-06 1.010974589e-05 1.24119858e-05 1.261714624e-05 7.611354016e-07)
5(9.023017723e-06 1.049269765e-05 1.214996703e-05 1.253525004e-05 1.189595262e-06)
5(9.65926591e-06 1.114847595e-05 1.242127883e-05 9.151929552e-06 1.101258302e-06)
5(1.048180268e-05 1.12703543e-05 1.233259463e-05 1.030405028e-06 1.498079125e-06)
5(1.143104431e-05 1.230163461e-05 1.576241542e-05 1.403693142e-06 2.505640322e-06)
5(1.235212431e-05 1.249488795e-05 1.516370268e-05 1.857502984e-06 2.772385461e-06)
5(1.255641853e-05 1.331259504e-05 1.348233869e-05 2.491804272e-06 3.575372599e-06)
5(1.283687642e-05 1.291803101e-05 5.446888945e-06 3.330016427e-06 4.691340814e-06)
5(1.279943683e-05 1.016045736e-05 3.107959888e-06 4.286671044e-06 6.120905082e-06)
5(1.309321296e-05 1.10327227e-05 3.612042421e-06 5.543274014e-06 7.913669303e-06)
5(1.302849988e-05 3.212353744e-06 4.637346279e-06 7.09869012e-06 1.011623464e-05)
5(1.223262903e-05 3.942534445e-06 5.936852905e-06 9.048783547e-06 1.284221325e-05)
5(6.081615988e-06 5.025750232e-06 7.541859247e-06 1.142503761e-05 1.616162274e-05)
5(4.379890709e-06 6.359623186e-06 9.506535461e-06 1.43185613e-05 2.018295454e-05)
5(5.050831345e-06 7.969881642e-06 1.19090744e-05 1.779604355e-05 2.506212612e-05)
5(6.341524366e-06 9.921023163e-06 1.480789361e-05 2.199421823e-05 3.086496518e-05)
5(8.370512809e-06 1.228051659e-05 1.829941105e-05 2.693122443e-05 3.771631308e-05)
5(1.148224858e-05 1.514660558e-05 2.249664612e-05 3.276586978e-05 4.549580025e-05)
5(1.456104561e-05 1.936052385e-05 2.758523893e-05 3.95123833e-05 5.432124245e-05)
5(1.751056691e-05 2.44393069e-05 3.482263782e-05 4.306708259e-05 6.413323268e-05)
5(2.069462087e-05 3.114147647e-05 4.591517825e-05 6.832445259e-05 8.920487617e-05)
)


60
(
5(8.36398178e-06 9.408906042e-06 2.004759306e-05 2.463131417e-05 4.121464135e-05)
5(7.075266623e-06 9.616116134e-06 1.601788048e-05 2.171210808e-05 3.177042818e-05)
5(6.502623937e-06 9.832601754e-06 1.426036127e-05 2.045823474e-05 2.749006764e-05)
5(6.4873774e-06 1.010794035e-05 1.427737116e-05 2.055293313e-05 2.710390068e-05)
5(6.847859831e-06 1.045388788e-05 1.516668088e-05 2.130445033e-05 2.887047425e-05)
5(7.322200654e-06 1.08111844e-05 1.606339959e-05 2.211076537e-05 3.086548158e-05)
5(7.640344338e-06 1.112205305e-05 1.656175106e-05 2.269240685e-05 3.182788375e-05)
5(7.814845049e-06 1.138712302e-05 1.682477777e-05 2.307283747e-05 3.209883571e-05)
5(7.958290325e-06 1.16401845e-05 1.702288561e-05 2.339945602e-05 3.225689386e-05)
5(8.152033513e-06 1.19253646e-05 1.731349216e-05 2.381950567e-05 3.268344787e-05)
5(8.381487579e-06 1.224054301e-05 1.771387687e-05 2.432166389e-05 3.334677803e-05)
5(8.643111578e-06 1.257127085e-05 1.818192575e-05 2.486295523e-05 3.410217091e-05)
5(8.911000505e-06 1.292145774e-05 1.865774689e-05 2.542610735e-05 3.480318822e-05)
5(9.183261305e-06 1.328886363e-05 1.913286526e-05 2.602293758e-05 3.549161555e-05)
5(9.469911642e-06 1.367824479e-05 1.96280418e-05 2.663499837e-05 3.620865575e-05)
5(9.782835356e-06 1.410473088e-05 2.01751593e-05 2.729800663e-05 3.69906322e-05)
5(1.012546441e-05 1.4569177e-05 2.077949148e-05 2.803085076e-05 3.785647808e-05)
5(1.050086571e-05 1.507819793e-05 2.143632346e-05 2.882802447e-05 3.879754007e-05)
5(1.091523341e-05 1.563186043e-05 2.215162827e-05 2.97089176e-05 3.982645266e-05)
5(1.137006861e-05 1.624788525e-05 2.293642942e-05 3.067943441e-05 4.097078645e-05)
5(1.187782923e-05 1.693225174e-05 2.380609078e-05 3.174066153e-05 4.21997806e-05)
5(1.244155078e-05 1.769150933e-05 2.476344125e-05 3.290907914e-05 4.355572545e-05)
5(1.306624632e-05 1.853573822e-05 2.583180999e-05 3.418153548e-05 4.506807937e-05)
5(1.37769706e-05 1.948607009e-05 2.702736836e-05 3.558326329e-05 4.671151822e-05)
5(1.45789644e-05 2.054878133e-05 2.835423268e-05 3.716578365e-05 4.854150239e-05)
5(1.548388865e-05 2.174246703e-05 2.986116319e-05 3.894236411e-05 5.055488809e-05)
5(1.651298752e-05 2.307590537e-05 3.152715414e-05 4.090906857e-05 5.275334791e-05)
5(1.767389331e-05 2.458645976e-05 3.337401984e-05 4.305716216e-05 5.511971182e-05)
5(1.899954739e-05 2.628101344e-05 3.54369474e-05 4.539741615e-05 5.773070418e-05)
5(2.049981792e-05 2.816951757e-05 3.771406024e-05 4.795331875e-05 6.048545545e-05)
5(2.220712147e-05 3.028159776e-05 4.02266113e-05 5.072530412e-05 6.345469666e-05)
5(2.41356655e-05 3.263393566e-05 4.296984814e-05 5.371491773e-05 6.655134021e-05)
5(2.63081138e-05 3.523673326e-05 4.597378883e-05 5.689627522e-05 6.977206639e-05)
5(2.874751264e-05 3.810882741e-05 4.922454614e-05 6.025857307e-05 7.302154414e-05)
5(3.148083773e-05 4.12633851e-05 5.272529058e-05 6.376926006e-05 7.630918476e-05)
5(3.454086997e-05 4.469616051e-05 5.646123415e-05 6.739824633e-05 7.957296251e-05)
5(3.791320715e-05 4.839618686e-05 6.039746255e-05 7.106118505e-05 8.284622054e-05)
5(4.163112335e-05 5.235467504e-05 6.446754384e-05 7.475385279e-05 8.603073862e-05)
5(4.568511691e-05 5.651829133e-05 6.862683794e-05 7.839582084e-05 8.875009843e-05)
5(5.003183327e-05 6.089131221e-05 7.279115349e-05 8.18252971e-05 9.056202677e-05)
5(5.465238654e-05 6.533223329e-05 7.683227375e-05 8.489670847e-05 9.113894398e-05)
5(5.941188833e-05 6.984452253e-05 8.077861438e-05 8.730116007e-05 9.066167201e-05)
5(6.436724039e-05 7.417866841e-05 8.448134409e-05 8.872227581e-05 8.94438147e-05)
5(6.929672117e-05 7.818560944e-05 8.783726631e-05 8.899569368e-05 8.789716466e-05)
5(7.401880098e-05 8.193103765e-05 9.050259424e-05 8.821885382e-05 8.600983135e-05)
5(7.835489882e-05 8.522548602e-05 9.20567097e-05 8.670015482e-05 8.380422641e-05)
5(8.211740018e-05 8.793048156e-05 9.21847747e-05 8.476649231e-05 8.144443273e-05)
5(8.519037595e-05 8.968063322e-05 9.102882294e-05 8.260326369e-05 7.91374289e-05)
5(8.740571952e-05 9.014575956e-05 8.892401171e-05 8.031101775e-05 7.717347547e-05)
5(8.852933579e-05 8.902456588e-05 8.622719237e-05 7.804882762e-05 7.577687683e-05)
5(8.839560042e-05 8.650734646e-05 8.324778685e-05 7.605577372e-05 7.506673259e-05)
5(8.669632274e-05 8.308943749e-05 8.022835944e-05 7.457721566e-05 7.52109172e-05)
5(8.338268363e-05 7.93141252e-05 7.744298991e-05 7.370499483e-05 7.621044354e-05)
5(7.866494862e-05 7.547942598e-05 7.503737515e-05 7.354795213e-05 7.830476545e-05)
5(7.300681217e-05 7.187979803e-05 7.319557256e-05 7.437673928e-05 8.157914983e-05)
5(6.700411263e-05 6.856045575e-05 7.197290662e-05 7.619861001e-05 8.6201074e-05)
5(6.104831078e-05 6.559573273e-05 7.149758493e-05 7.907643515e-05 9.224670074e-05)
5(5.553109475e-05 6.316820005e-05 7.176909445e-05 8.310289966e-05 9.981173006e-05)
5(5.070186882e-05 6.117829678e-05 7.263793295e-05 8.829814516e-05 0.0001090472095)
5(4.528417913e-05 5.888407765e-05 7.101332506e-05 9.417069411e-05 0.0001199297919)
)


60
(
5(1.15347169e-05 1.422789574e-05 2.702645958e-05 3.494101738e-05 5.439234892e-05)
5(1.092315273e-05 1.523360261e-05 2.416957723e-05 3.309568356e-05 4.691442362e-05)
5(1.075000081e-05 1.596130688e-05 2.302956054e-05 3.248926419e-05 4.394048579e-05)
5(1.096561828e-05 1.652640588e-05 2.344153704e-05 3.301462816e-05 4.418263917e-05)
5(1.151055528e-05 1.70986251e-05 2.457480374e-05 3.409425816e-05 4.620924636e-05)
5(1.215132288e-05 1.767933084e-05 2.571037745e-05 3.519985756e-05 4.839536009e-05)
5(1.263499176e-05 1.819956985e-05 2.649505311e-05 3.606929024e-05 4.966957654e-05)
5(1.29804795e-05 1.868121658e-05 2.701623473e-05 3.674595353e-05 5.03265439e-05)
5(1.329945243e-05 1.915912201e-05 2.748101922e-05 3.739091613e-05 5.087952867e-05)
5(1.366356026e-05 1.965958024e-05 2.80322625e-05 3.811321777e-05 5.171329277e-05)
5(1.406984444e-05 2.019104734e-05 2.870212867e-05 3.892587256e-05 5.271793896e-05)
5(1.450972638e-05 2.07476503e-05 2.943518417e-05 3.978763637e-05 5.380338703e-05)
5(1.496612018e-05 2.133447478e-05 3.019438152e-05 4.067998766e-05 5.488102544e-05)
5(1.54336541e-05 2.194969788e-05 3.09676639e-05 4.160297196e-05 5.595367649e-05)
5(1.592796624e-05 2.259968669e-05 3.178064725e-05 4.256950927e-05 5.707679063e-05)
5(1.645683374e-05 2.329474128e-05 3.264705289e-05 4.360686786e-05 5.828027424e-05)
5(1.703048236e-05 2.404062013e-05 3.358963806e-05 4.473191033e-05 5.959625396e-05)
5(1.76492614e-05 2.485121176e-05 3.46044644e-05 4.594877286e-05 6.10006816e-05)
5(1.832409299e-05 2.5732192e-05 3.571261599e-05 4.726944697e-05 6.254229922e-05)
5(1.906026682e-05 2.66930461e-05 3.691108081e-05 4.871397672e-05 6.421515269e-05)
5(1.986250715e-05 2.774999397e-05 3.822354096e-05 5.028337803e-05 6.605116287e-05)
5(2.075927968e-05 2.8913661e-05 3.966046204e-05 5.199263705e-05 6.804330777e-05)
5(2.173851387e-05 3.019725225e-05 4.125587386e-05 5.388057203e-05 7.022922239e-05)
5(2.283872571e-05 3.161908384e-05 4.302046806e-05 5.594963879e-05 7.263019096e-05)
5(2.405628523e-05 3.31980587e-05 4.497541929e-05 5.824122111e-05 7.526464812e-05)
5(2.542849344e-05 3.495587873e-05 4.713752562e-05 6.078514576e-05 7.813786989e-05)
5(2.69644047e-05 3.691105284e-05 4.953104114e-05 6.358083901e-05 8.131038225e-05)
5(2.86830468e-05 3.910214508e-05 5.218940717e-05 6.665617967e-05 8.472039464e-05)
5(3.06269737e-05 4.153097527e-05 5.511938244e-05 6.999551722e-05 8.846101396e-05)
5(3.280658872e-05 4.423488597e-05 5.836217708e-05 7.365291219e-05 9.246681057e-05)
5(3.525257739e-05 4.725184229e-05 6.192573498e-05 7.761391181e-05 9.67655272e-05)
5(3.799525291e-05 5.057965391e-05 6.581867436e-05 8.189448038e-05 0.0001013329034)
5(4.107472155e-05 5.424971937e-05 7.008498629e-05 8.650443165e-05 0.0001061052863)
5(4.451233765e-05 5.831298358e-05 7.471426903e-05 9.141348874e-05 0.0001111023719)
5(4.833179355e-05 6.275443432e-05 7.969643479e-05 9.66022447e-05 0.0001162196042)
5(5.253763324e-05 6.759351002e-05 8.506602891e-05 0.0001020489729 0.0001215003769)
5(5.726327447e-05 7.282674062e-05 9.077003383e-05 0.0001077120993 0.0001268940747)
5(6.236005787e-05 7.846590637e-05 9.676618737e-05 0.0001135364616 0.0001322981587)
5(6.79676429e-05 8.448322245e-05 0.0001029947966 0.0001194261103 0.000137324932)
5(7.397471563e-05 9.080231118e-05 0.0001093920555 0.0001252465796 0.0001416150253)
5(8.033505882e-05 9.739153048e-05 0.0001158912926 0.000130825555 0.0001448066278)
5(8.714519134e-05 0.0001041684827 0.0001223463235 0.0001358786659 0.0001469842093)
5(9.411438437e-05 0.0001109576787 0.0001286763292 0.0001400228383 0.0001482518808)
5(0.0001012389881 0.0001175948215 0.0001346863582 0.0001430070453 0.0001488015711)
5(0.0001082917877 0.0001239129446 0.0001400052936 0.0001448106843 0.0001486800379)
5(0.0001151220656 0.0001298604512 0.0001442375148 0.0001455486811 0.0001478033015)
5(0.0001214190561 0.0001351823749 0.0001469750137 0.0001454362906 0.0001462004074)
5(0.0001270077356 0.0001394469698 0.0001481243441 0.0001445427988 0.0001440729035)
5(0.0001316403467 0.0001421852972 0.0001478419268 0.0001429107679 0.0001416810685)
5(0.0001351323928 0.0001431528949 0.0001463845977 0.0001407007622 0.0001393589276)
5(0.000137112601 0.0001422557213 0.0001439742385 0.0001381425634 0.0001373765168)
5(0.0001372947445 0.0001398240038 0.0001408410318 0.0001355015486 0.0001358288094)
5(0.000135363548 0.0001362658332 0.0001371913232 0.0001330426455 0.0001349443291)
5(0.0001314272105 0.0001319502019 0.0001333464093 0.0001310068655 0.000134996496)
5(0.0001257950903 0.0001270414208 0.0001295598163 0.0001296613173 0.0001362059898)
5(0.000118954292 0.000121851118 0.0001260747731 0.0001291592023 0.0001387395859)
5(0.0001114078026 0.0001166448617 0.0001230723727 0.0001296863474 0.0001427249797)
5(0.0001036904722 0.000111583204 0.0001206418176 0.0001313870313 0.0001482888489)
5(9.602463561e-05 0.0001067566704 0.0001188264995 0.0001341466007 0.0001554527175)
5(8.548174409e-05 9.970278679e-05 0.0001127855678 0.0001358590339 0.0001631838457)
)


60
(
5(1.465580721e-05 1.886330791e-05 3.37265826e-05 4.464125007e-05 6.674376944e-05)
5(1.468424886e-05 2.061400981e-05 3.17766667e-05 4.363364448e-05 6.083875768e-05)
5(1.488314337e-05 2.182652949e-05 3.126691751e-05 4.362801752e-05 5.885344987e-05)
5(1.532090954e-05 2.267524783e-05 3.205706685e-05 4.45391501e-05 5.963670419e-05)
5(1.604476909e-05 2.346099292e-05 3.342680699e-05 4.5896002e-05 6.190306778e-05)
5(1.685520896e-05 2.424484511e-05 3.476961847e-05 4.725954443e-05 6.429951409e-05)
5(1.750134717e-05 2.496917852e-05 3.578712795e-05 4.838025977e-05 6.58469593e-05)
5(1.800889745e-05 2.564702578e-05 3.655180495e-05 4.932004847e-05 6.682653382e-05)
5(1.848839851e-05 2.631706635e-05 3.725588264e-05 5.023199446e-05 6.770697133e-05)
5(1.90136925e-05 2.701438231e-05 3.80411861e-05 5.121499654e-05 6.882422096e-05)
5(1.958467105e-05 2.774124638e-05 3.893305279e-05 5.227448818e-05 7.010412422e-05)
5(2.018754375e-05 2.849994269e-05 3.989300177e-05 5.338744351e-05 7.147239862e-05)
5(2.081091694e-05 2.928693794e-05 4.088489587e-05 5.454302091e-05 7.284023907e-05)
5(2.145409761e-05 3.010898093e-05 4.190241655e-05 5.57394476e-05 7.419829186e-05)
5(2.213046286e-05 3.097342993e-05 4.296733008e-05 5.698447552e-05 7.564440291e-05)
5(2.284822058e-05 3.189358134e-05 4.410180085e-05 5.830880304e-05 7.716954026e-05)
5(2.361661686e-05 3.28767473e-05 4.531503156e-05 5.97344814e-05 7.882022961e-05)
5(2.444496919e-05 3.393139053e-05 4.661385702e-05 6.126014084e-05 8.059572418e-05)
5(2.533787916e-05 3.507244776e-05 4.801847767e-05 6.292018968e-05 8.250007291e-05)
5(2.630160649e-05 3.630590288e-05 4.953297789e-05 6.471477631e-05 8.457999375e-05)
5(2.735447571e-05 3.764922301e-05 5.118885514e-05 6.667250879e-05 8.683224128e-05)
5(2.851170542e-05 3.912594208e-05 5.299234805e-05 6.87893201e-05 8.92829462e-05)
5(2.977810448e-05 4.073881425e-05 5.496847769e-05 7.111390505e-05 9.196220781e-05)
5(3.116905496e-05 4.251161079e-05 5.713754048e-05 7.366264699e-05 9.489492064e-05)
5(3.272255914e-05 4.447159214e-05 5.954719436e-05 7.646278204e-05 9.814251729e-05)
5(3.443838945e-05 4.664947124e-05 6.220311414e-05 7.955177296e-05 0.0001016492931)
5(3.635388313e-05 4.905490029e-05 6.513086147e-05 8.2952843e-05 0.0001054786217)
5(3.848177758e-05 5.172219646e-05 6.835893503e-05 8.667487298e-05 0.0001096873168)
5(4.087359725e-05 5.468280938e-05 7.191961603e-05 9.073404938e-05 0.0001141786785)
5(4.353969328e-05 5.79626678e-05 7.584014524e-05 9.517464154e-05 0.0001191347257)
5(4.651154788e-05 6.159413989e-05 8.014118179e-05 9.999684698e-05 0.0001243916832)
5(4.983463263e-05 6.56073668e-05 8.484084654e-05 0.0001052214187 0.0001300729451)
5(5.354012959e-05 7.003000753e-05 9.000605972e-05 0.0001108600362 0.0001360620719)
5(5.764200773e-05 7.489628852e-05 9.561191595e-05 0.0001169076896 0.0001423923497)
5(6.221219622e-05 8.022684557e-05 0.0001016732776 0.0001233639278 0.0001489665382)
5(6.724518901e-05 8.60423034e-05 0.0001081983201 0.0001302162615 0.0001558612098)
5(7.278508906e-05 9.23431821e-05 0.0001151782908 0.0001374195808 0.0001630061658)
5(7.887765218e-05 9.914871056e-05 0.0001226190298 0.0001449226296 0.0001702624184)
5(8.547663848e-05 0.0001064414459 0.0001304575106 0.0001526531648 0.000177425884)
5(9.260510415e-05 0.0001141921382 0.0001386278449 0.0001605005672 0.0001839607625)
5(0.0001002773247 0.0001223727533 0.0001470319855 0.0001682935242 0.0001897252642)
5(0.0001083281672 0.0001308765061 0.0001555755463 0.0001757379456 0.0001946071596)
5(0.0001168081453 0.0001395646606 0.000164148192 0.0001824844838 0.0001985760116)
5(0.0001255065714 0.0001482831799 0.0001725599921 0.0001882219385 0.0002018268457)
5(0.0001343478225 0.0001568836766 0.0001804439488 0.0001928548188 0.0002042442355)
5(0.0001430271989 0.0001651705841 0.0001873270399 0.0001963797036 0.0002056792377)
5(0.0001513511244 0.000172908357 0.0001928440602 0.0001988580365 0.0002059869103)
5(0.0001591028515 0.000179774649 0.0001967402873 0.0002002879859 0.0002053098913)
5(0.0001659841652 0.000185235508 0.000199111253 0.0002006015218 0.0002038749593)
5(0.0001719209108 0.0001888377724 0.000200012666 0.0001998042357 0.0002019135954)
5(0.0001763806127 0.0001904671103 0.0001994407102 0.0001980217674 0.0001997213182)
5(0.0001790762471 0.0001902820859 0.0001975242207 0.0001955556995 0.0001975165758)
5(0.0001797751037 0.0001884649769 0.0001944428356 0.0001926128954 0.0001955542681)
5(0.0001781719202 0.0001851605678 0.0001904339187 0.0001895684706 0.0001941203777)
5(0.0001743930852 0.0001805320583 0.0001858343424 0.0001867508776 0.0001936131809)
5(0.0001686134933 0.0001748809199 0.0001809388612 0.0001844753012 0.0001943004611)
5(0.0001612475961 0.0001685012522 0.0001761152435 0.0001829703066 0.0001962505175)
5(0.0001525861398 0.000161712369 0.0001715570551 0.0001823741209 0.000199692985)
5(0.0001429809173 0.0001545987781 0.0001673303805 0.0001827819496 0.0002047392719)
5(0.0001282410448 0.0001418599959 0.0001576252395 0.000181389754 0.0002090070934)
)


60
(
5(1.77459549e-05 2.338648288e-05 4.021657474e-05 5.38964791e-05 7.843797975e-05)
5(1.839923052e-05 2.585514897e-05 3.909328982e-05 5.36321417e-05 7.389515101e-05)
5(1.896154525e-05 2.753644805e-05 3.916736552e-05 5.416925514e-05 7.275416864e-05)
5(1.961459248e-05 2.865474906e-05 4.03054351e-05 5.542931186e-05 7.399123287e-05)
5(2.051295699e-05 2.964443292e-05 4.190483366e-05 5.703651392e-05 7.649741951e-05)
5(2.148886245e-05 3.062290608e-05 4.344099185e-05 5.862317516e-05 7.908204447e-05)
5(2.229037164e-05 3.153178675e-05 4.466616654e-05 5.997375466e-05 8.086190339e-05)
5(2.295134414e-05 3.239187963e-05 4.564613548e-05 6.114966305e-05 8.211314478e-05)
5(2.358514865e-05 3.324243022e-05 4.656160866e-05 6.228369873e-05 8.326276767e-05)
5(2.426068599e-05 3.411071556e-05 4.755077073e-05 6.348334815e-05 8.461765011e-05)
5(2.498206642e-05 3.501618273e-05 4.864236392e-05 6.47585379e-05 8.613312736e-05)
5(2.573665938e-05 3.59489041e-05 4.980135372e-05 6.609188181e-05 8.772536858e-05)
5(2.651472852e-05 3.691344861e-05 5.099701568e-05 6.745880628e-05 8.931830409e-05)
5(2.731264005e-05 3.792030059e-05 5.221737718e-05 6.88739606e-05 9.093534379e-05)
5(2.815057839e-05 3.897268639e-05 5.348903503e-05 7.034856599e-05 9.260803237e-05)
5(2.903553216e-05 4.008463802e-05 5.483025647e-05 7.190914137e-05 9.438785867e-05)
5(2.997827871e-05 4.126238273e-05 5.627036216e-05 7.356848217e-05 9.630547773e-05)
5(3.098322498e-05 4.252251171e-05 5.780767576e-05 7.53403636e-05 9.834908486e-05)
5(3.206313469e-05 4.387560705e-05 5.944925738e-05 7.726931151e-05 0.0001005527511)
5(3.322455898e-05 4.533145533e-05 6.122099333e-05 7.934133966e-05 0.0001029280639)
5(3.448230382e-05 4.690960344e-05 6.314211773e-05 8.158369653e-05 0.0001055161651)
5(3.585380807e-05 4.862814282e-05 6.522664161e-05 8.401933899e-05 0.0001083051337)
5(3.734338904e-05 5.050116154e-05 6.750170778e-05 8.666223552e-05 0.0001113633598)
5(3.898389637e-05 5.255524044e-05 6.999858083e-05 8.955478804e-05 0.0001147109287)
5(4.079616121e-05 5.481025455e-05 7.274396997e-05 9.27381895e-05 0.0001183559976)
5(4.278171809e-05 5.728686929e-05 7.576031034e-05 9.623801528e-05 0.000122337486)
5(4.499623752e-05 6.003491911e-05 7.907693479e-05 0.0001000740798 0.0001267100994)
5(4.744852366e-05 6.305855105e-05 8.272636117e-05 0.0001042731086 0.0001314503919)
5(5.018348873e-05 6.63953915e-05 8.67410737e-05 0.0001088622874 0.0001365973427)
5(5.31910323e-05 7.008844723e-05 9.114961537e-05 0.0001138638546 0.0001421659162)
5(5.656287462e-05 7.417202988e-05 9.598348487e-05 0.0001193098392 0.0001481851795)
5(6.031186579e-05 7.867220188e-05 0.0001012758713 0.0001252223894 0.000154630841)
5(6.445388054e-05 8.362279154e-05 0.0001070641085 0.00013162198 0.0001615731348)
5(6.904290609e-05 8.904987374e-05 0.0001133727819 0.0001385117472 0.0001689036456)
5(7.411441436e-05 9.500076311e-05 0.0001202090226 0.0001459001989 0.0001766398728)
5(7.971899195e-05 0.0001014973482 0.0001276008702 0.000153779297 0.000184782874)
5(8.588712292e-05 0.0001085475437 0.0001355438948 0.0001621309768 0.0001933321869)
5(9.260386426e-05 0.0001161836168 0.0001440350974 0.0001709383956 0.0002021754128)
5(9.993849972e-05 0.0001244167828 0.0001530517539 0.0001801354403 0.0002110940779)
5(0.0001078586474 0.0001332068438 0.0001625356818 0.0001896354672 0.0002197131524)
5(0.0001163527903 0.0001425224168 0.000172435548 0.0001992769628 0.0002277505595)
5(0.0001253740962 0.000152283214 0.0001826640715 0.0002087966901 0.0002350773192)
5(0.0001348444136 0.0001623985792 0.0001930972155 0.0002178765787 0.0002418435758)
5(0.0001446148092 0.0001727397802 0.000203573521 0.0002262031309 0.0002479241558)
5(0.000154583984 0.0001831296176 0.0002137528423 0.0002336299259 0.0002531696165)
5(0.00016461406 0.0001934096419 0.0002232083175 0.0002400908745 0.0002573633799)
5(0.0001743352281 0.0002033356179 0.0002314866152 0.0002455231658 0.0002603898997)
5(0.0001836832215 0.0002125209688 0.0002383403535 0.0002498329141 0.0002621930188)
5(0.000192344481 0.0002204919314 0.0002436910667 0.000252904873 0.0002628575093)
5(0.0002001425568 0.0002268061917 0.0002475261147 0.0002545363799 0.0002625296513)
5(0.0002068085287 0.0002313407622 0.0002497357052 0.0002547831675 0.0002613640725)
5(0.0002119707668 0.0002340996905 0.0002502543918 0.0002537609706 0.0002595676903)
5(0.0002153512243 0.0002351030668 0.0002491249487 0.0002516926274 0.0002575063468)
5(0.0002167018463 0.0002343297953 0.0002464739579 0.0002488687191 0.0002554075149)
5(0.0002160166665 0.000231778658 0.0002424730549 0.0002456156091 0.0002537819386)
5(0.0002129559416 0.0002274475692 0.0002374476439 0.0002422720007 0.0002529704848)
5(0.0002077755646 0.0002215127541 0.0002317628007 0.0002392472578 0.0002531398368)
5(0.0002003947785 0.0002142176508 0.0002257412938 0.0002368657607 0.0002546329888)
5(0.0001903908906 0.0002053946255 0.0002195630428 0.0002352613914 0.0002575946168)
5(0.0001721393954 0.0001892945954 0.0002048152552 0.0002288635096 0.0002569334262)
)


60
(
5(2.081220449e-05 2.78251166e-05 4.652939165e-05 6.278501364e-05 8.958292263e-05)
5(2.207985538e-05 3.098600945e-05 4.617264922e-05 6.319972865e-05 8.624642232e-05)
5(2.299734054e-05 3.311622632e-05 4.679266082e-05 6.423280256e-05 8.585139141e-05)
5(2.386156832e-05 3.45023886e-05 4.826508299e-05 6.58167017e-05 8.749037234e-05)
5(2.493090163e-05 3.568909261e-05 5.008168583e-05 6.765538346e-05 9.021000597e-05)
5(2.606649095e-05 3.684683356e-05 5.179875654e-05 6.944345848e-05 9.296966175e-05)
5(2.702015186e-05 3.792932987e-05 5.320977366e-05 7.099698149e-05 9.495574038e-05)
5(2.782703802e-05 3.895962255e-05 5.438771351e-05 7.237636932e-05 9.643600498e-05)
5(2.860691951e-05 3.997500161e-05 5.549250552e-05 7.371148799e-05 9.781079004e-05)
5(2.942493761e-05 4.100916419e-05 5.666632394e-05 7.510066615e-05 9.937851461e-05)
5(3.02868913e-05 4.20696795e-05 5.793104959e-05 7.656088165e-05 0.0001010811083)
5(3.118157348e-05 4.316395081e-05 5.926538018e-05 7.807494099e-05 0.0001028684826)
5(3.210160906e-05 4.428893774e-05 6.063330095e-05 7.962720003e-05 0.0001046470914)
5(3.304821938e-05 4.545458097e-05 6.203487515e-05 8.122728981e-05 0.0001064678363)
5(3.403153074e-05 4.667117306e-05 6.348862802e-05 8.28920482e-05 0.0001083417034)
5(3.506560766e-05 4.794892241e-05 6.501864814e-05 8.464549128e-05 0.0001103419097)
5(3.61617493e-05 4.930116736e-05 6.664148919e-05 8.650241441e-05 0.0001124563412)
5(3.732702415e-05 5.073418888e-05 6.836717987e-05 8.848913797e-05 0.0001147254292)
5(3.857209969e-05 5.226694352e-05 7.021355713e-05 9.061662045e-05 0.0001171625045)
5(3.990448433e-05 5.391094952e-05 7.219102885e-05 9.290899344e-05 0.0001197753027)
5(4.134376568e-05 5.568226632e-05 7.432557855e-05 9.53816782e-05 0.000122614695)
5(4.289391483e-05 5.760209318e-05 7.664025668e-05 9.805105987e-05 0.0001256841556)
5(4.458299032e-05 5.968747534e-05 7.915216019e-05 0.0001009507741 0.0001290299827)
5(4.642814591e-05 6.195878632e-05 8.189774352e-05 0.0001041149012 0.0001326751881)
5(4.845051118e-05 6.444485193e-05 8.490514874e-05 0.0001075816158 0.0001366597153)
5(5.06669825e-05 6.717238837e-05 8.819615096e-05 0.0001113861454 0.0001409914915)
5(5.311369484e-05 7.016811253e-05 9.180727726e-05 0.0001155516023 0.0001457228483)
5(5.581614412e-05 7.346767535e-05 9.577424953e-05 0.0001200966572 0.000150860422)
5(5.881606725e-05 7.710382341e-05 0.0001001278426 0.0001250635908 0.0001564747628)
5(6.212076437e-05 8.111055879e-05 0.0001048971622 0.0001304854861 0.0001625550449)
5(6.579779964e-05 8.551576463e-05 0.0001101239488 0.0001363832969 0.0001691230282)
5(6.985288781e-05 9.036465935e-05 0.0001158516295 0.0001427957461 0.000176206231)
5(7.43418865e-05 9.570337705e-05 0.0001221017755 0.000149747574 0.0001838063582)
5(7.930164337e-05 0.0001015530991 0.0001289069941 0.0001572586244 0.0001919047089)
5(8.476860891e-05 0.0001079467017 0.0001362928045 0.0001653375724 0.0002005324919)
5(9.080207473e-05 0.000114922278 0.0001442952653 0.0001739884522 0.000209651981)
5(9.737190881e-05 0.0001225131329 0.0001529355414 0.0001832225236 0.0002193056738)
5(0.0001045939117 0.0001307496082 0.000162201282 0.0001930269128 0.0002294273921)
5(0.000112407043 0.0001396328586 0.0001720956179 0.0002033606084 0.0002397834557)
5(0.0001208740976 0.0001491456046 0.0001825889974 0.0002141430636 0.0002501078533)
5(0.0001299330059 0.0001592794268 0.0001936176775 0.0002252718042 0.0002599937673)
5(0.0001395499725 0.0001699657096 0.000205140487 0.0002365041381 0.0002696677452)
5(0.0001496443572 0.0001811147801 0.0002170544205 0.0002475424396 0.000278810695)
5(0.0001600928275 0.000192617309 0.0002292243032 0.0002581253284 0.0002876026645)
5(0.0001707683926 0.0002043041839 0.0002413090948 0.0002680938835 0.0002956562612)
5(0.0001815300109 0.0002160047476 0.0002529119672 0.0002773328213 0.000302893676)
5(0.0001920415597 0.0002274805623 0.0002636061233 0.0002857443044 0.0003089725364)
5(0.0002024384762 0.0002383703171 0.0002731265929 0.0002931266767 0.0003137094054)
5(0.0002122484992 0.0002482400291 0.0002814338822 0.0002992943522 0.0003172364213)
5(0.0002212954267 0.0002567226648 0.000288324273 0.0003040492197 0.0003194804093)
5(0.0002296161579 0.0002637379243 0.0002936783039 0.0003072152692 0.0003204641137)
5(0.0002365914335 0.0002691790922 0.0002973596648 0.0003088052882 0.0003203689425)
5(0.0002421766649 0.0002732265273 0.0002992174116 0.000308872064 0.0003193364098)
5(0.0002458651439 0.000275559707 0.0002992942761 0.0003075286951 0.0003176481437)