/*--------------------------------*- C++ -*----------------------------------*\
| =========                 |                                                 |
| \\      /  F ield         | OpenFOAM: The Open Source CFD Toolbox           |
|  \\    /   O peration     | Version:  2.3.1                                 |
|   \\  /    A nd           | Web:      www.OpenFOAM.org                      |
|    \\/     M anipulation  |                                                 |
\*---------------------------------------------------------------------------*/
FoamFile
{
    version     2.0;
    format      ascii;
    class       dictionary;
    location    "constant";
    object      HCO;
}
// * * * * * * * * * * * * * * * * * * * * * * * * * * * * * * * * * * * * * //

HCO_table
60
(

60
(
5(3.031326002e-12 1.343089852e-12 7.019273316e-12 4.930342789e-12 2.477573513e-11)
5(1.184186854e-12 1.804647115e-13 2.064033916e-12 1.636053586e-12 3.111058106e-12)
5(9.910929989e-11 3.985363026e-13 5.347651058e-13 3.967099867e-13 0)
5(3.009750328e-10 5.187908779e-13 4.917025573e-13 0 2.281885289e-13)
5(3.67694498e-10 5.091951717e-13 7.345599119e-13 4.085333497e-13 1.32302986e-13)
5(2.898631923e-10 5.073524479e-13 2.766195451e-13 6.865639248e-13 4.271210144e-13)
5(7.323369248e-13 5.19097966e-13 5.795260181e-13 5.09347681e-13 1.765942598e-12)
5(3.49722947e-13 6.111998368e-13 1.126264855e-12 7.933038244e-13 3.41533764e-13)
5(3.501220952e-10 8.088810429e-13 1.271639652e-12 9.870800771e-13 8.259684222e-13)
5(5.818422013e-10 2.252504333e-12 2.12842708e-12 1.110784343e-12 1.22858804e-12)
5(6.414372155e-10 3.488950495e-12 2.453869096e-12 1.652864132e-12 1.814496466e-12)
5(2.17258078e-10 1.806507242e-12 2.338108909e-12 2.028660794e-12 2.424686498e-12)
5(1.478060449e-12 2.405305267e-12 2.749117368e-12 3.222149395e-12 3.681315698e-12)
5(2.386565449e-12 3.232457241e-12 3.737333331e-12 3.355953666e-12 4.308409721e-12)
5(2.578091086e-12 3.896807862e-12 4.480188764e-12 5.008624959e-12 5.254239092e-12)
5(2.473724715e-11 9.909602425e-12 8.114785271e-12 7.700553524e-12 7.382678965e-12)
5(2.459312046e-11 1.089571592e-11 1.120324327e-11 9.334005513e-12 1.026392002e-11)
5(1.413586084e-11 1.204984214e-11 1.117501231e-11 1.2404755e-11 1.354455651e-11)
5(8.073169347e-12 1.345880462e-11 1.459541357e-11 1.584889885e-11 1.815227245e-11)
5(1.154440693e-11 1.756926891e-11 2.060734377e-11 2.350037153e-11 2.192283462e-11)
5(1.516555596e-11 2.230294322e-11 2.555808602e-11 2.949583501e-11 2.610088469e-11)
5(2.071077635e-11 2.963641185e-11 3.654134438e-11 3.070667877e-11 2.785195271e-11)
5(3.001942996e-11 4.179866252e-11 4.795440872e-11 4.7728896e-11 4.190848725e-11)
5(4.023594751e-11 6.205839181e-11 6.539721568e-11 6.436131718e-11 5.2773938e-11)
5(5.986392503e-11 9.675982253e-11 9.40235194e-11 9.49040787e-11 7.43860631e-11)
5(8.463203207e-11 1.525579452e-10 1.439501729e-10 1.451126709e-10 1.012737348e-10)
5(1.213157926e-10 1.977507185e-10 1.934874421e-10 2.135792834e-10 1.431355493e-10)
5(1.737147465e-10 2.536920797e-10 2.937151826e-10 3.117212705e-10 2.009254053e-10)
5(2.733704628e-10 3.855021986e-10 4.147441735e-10 4.365509138e-10 2.914970746e-10)
5(4.091210324e-10 5.936509786e-10 5.992015911e-10 5.845509264e-10 3.979115508e-10)
5(6.351915386e-10 9.029711097e-10 9.205149168e-10 8.838484811e-10 5.704823147e-10)
5(9.527300995e-10 1.296824914e-09 1.261451233e-09 1.114896689e-09 6.122078642e-10)
5(1.40490325e-09 1.91096842e-09 1.840250148e-09 1.532824031e-09 1.021929406e-09)
5(2.095234654e-09 2.788119961e-09 2.689647677e-09 1.966053282e-09 9.696664959e-10)
5(3.06567263e-09 3.795186414e-09 3.525634029e-09 2.483366782e-09 1.156142818e-09)
5(4.331690217e-09 5.404121376e-09 5.176264264e-09 3.070418425e-09 1.32314828e-09)
5(5.953548325e-09 6.380407088e-09 5.142220572e-09 3.076463002e-09 1.394379428e-09)
5(7.86174549e-09 8.36860004e-09 6.014432248e-09 3.490014536e-09 6.06552101e-10)
5(1.019828254e-08 9.706880026e-09 7.085952388e-09 3.173284937e-09 1.134561305e-09)
5(1.317106584e-08 1.10425672e-08 8.009658657e-09 3.004246401e-09 4.67297088e-12)
5(1.513633504e-08 1.079786378e-08 6.404243667e-09 2.251466791e-09 7.781197387e-12)
5(1.586939576e-08 1.031541249e-08 5.179702545e-09 1.398367812e-09 1.40926799e-14)
5(1.604888266e-08 8.214963185e-09 3.419198115e-09 1.322878809e-14 2.783595509e-14)
5(1.529463687e-08 7.033999908e-09 4.195557789e-09 2.635425731e-14 3.819425703e-11)
5(1.33379644e-08 4.630478291e-09 2.19367421e-09 4.887310923e-14 3.46110948e-12)
5(9.475339901e-09 3.086999288e-09 5.854058022e-10 9.391856208e-14 1.91262022e-13)
5(6.059852797e-09 1.450402211e-09 1.556574274e-10 8.035454623e-12 3.492931283e-13)
5(4.093537473e-09 2.081635182e-10 3.414436418e-11 3.131356324e-13 6.302575073e-13)
5(1.607573817e-09 9.14902602e-11 4.000528632e-12 5.544528067e-13 1.114297454e-12)
5(6.03076214e-10 1.985263593e-12 4.076546135e-13 9.601697177e-13 1.922393214e-12)
5(2.165988571e-10 3.064900755e-13 7.051043084e-13 1.647301219e-12 3.267607005e-12)
5(4.206453334e-11 5.259024433e-13 1.200083141e-12 2.764567812e-12 5.445114687e-12)
5(8.68548275e-13 8.881483695e-13 2.006608959e-12 4.562521576e-12 8.913670185e-12)
5(5.704801165e-13 1.465344135e-12 3.31072892e-12 7.393781624e-12 1.442470252e-11)
5(9.454136894e-13 2.383458997e-12 5.368462697e-12 1.183118965e-11 2.290547167e-11)
5(2.098126201e-12 3.824772386e-12 8.585495831e-12 1.855188519e-11 3.57653037e-11)
5(4.699213966e-12 6.086213594e-12 1.356569211e-11 2.867887762e-11 5.441607235e-11)
5(7.302390579e-12 1.131256376e-11 2.129527988e-11 4.354198106e-11 8.094981106e-11)
5(9.775287842e-12 1.860334572e-11 3.654949985e-11 5.433480818e-11 1.184181771e-10)
5(1.252662087e-11 2.888059085e-11 6.337369526e-11 1.388253295e-10 2.342121116e-10)
)


60
(
5(7.56034483e-12 6.05376515e-12 2.112581061e-11 2.62863125e-11 1.206361318e-10)
5(5.426279436e-12 6.430338732e-12 1.20514528e-11 1.858904741e-11 4.684937731e-11)
5(4.861150188e-12 7.409414295e-12 1.010326495e-11 1.844923024e-11 3.186534365e-11)
5(5.353375509e-12 9.148356738e-12 1.20006723e-11 2.393135377e-11 3.918649924e-11)
5(7.011173488e-12 1.197349042e-11 1.776503761e-11 3.544695306e-11 6.632475648e-11)
5(9.525820566e-12 1.609108488e-11 2.6739861e-11 5.340588492e-11 1.138489536e-10)
5(1.268382121e-11 2.157189685e-11 3.755704819e-11 7.527574898e-11 1.670634223e-10)
5(1.648111877e-11 2.881290675e-11 5.046413722e-11 1.022125398e-10 2.225761418e-10)
5(2.137225873e-11 3.840691896e-11 6.660990899e-11 1.363645174e-10 2.879728858e-10)
5(2.769960988e-11 5.11173476e-11 8.84442132e-11 1.803080483e-10 3.785262346e-10)
5(3.712361135e-11 6.783466792e-11 1.180582448e-10 2.36458995e-10 4.881778155e-10)
5(4.886310056e-11 8.960068983e-11 1.56448037e-10 3.060810688e-10 6.188463404e-10)
5(6.451809198e-11 1.173713391e-10 2.042715313e-10 3.897615986e-10 7.742171232e-10)
5(8.490644633e-11 1.524711383e-10 2.626074905e-10 4.868399061e-10 9.387306082e-10)
5(1.110155324e-10 1.965526259e-10 3.328355921e-10 5.98644304e-10 1.117574484e-09)
5(1.43859592e-10 2.512722259e-10 4.170663858e-10 7.258550249e-10 1.309799389e-09)
5(1.879080654e-10 3.193242628e-10 5.181581541e-10 8.699708891e-10 1.512159696e-09)
5(2.430822968e-10 4.041486273e-10 6.389086379e-10 1.032578983e-09 1.718158478e-09)
5(3.135037336e-10 5.096649863e-10 7.82905959e-10 1.216481928e-09 1.93192478e-09)
5(4.036906436e-10 6.410334784e-10 9.548679272e-10 1.42626304e-09 2.150009792e-09)
5(5.205210186e-10 8.065927735e-10 1.164148901e-09 1.670210577e-09 2.397585909e-09)
5(6.721776963e-10 1.016233681e-09 1.422159663e-09 1.959952589e-09 2.672303582e-09)
5(8.659662097e-10 1.286686751e-09 1.746061208e-09 2.31783092e-09 3.001505189e-09)
5(1.118239038e-09 1.642372851e-09 2.16641951e-09 2.780110822e-09 3.426722379e-09)
5(1.463870798e-09 2.114819414e-09 2.72011542e-09 3.393452818e-09 3.996192424e-09)
5(1.920453212e-09 2.759269846e-09 3.473146766e-09 4.234895595e-09 4.784560089e-09)
5(2.554698529e-09 3.648559234e-09 4.516822888e-09 5.406450315e-09 5.889262898e-09)
5(3.437521146e-09 4.900012602e-09 5.98106326e-09 7.046606574e-09 7.434463069e-09)
5(4.69727085e-09 6.672777305e-09 8.055804782e-09 9.350121349e-09 9.599286845e-09)
5(6.476526791e-09 9.188788003e-09 1.098872847e-08 1.256744436e-08 1.261905115e-08)
5(9.062420211e-09 1.276110754e-08 1.51264865e-08 1.701690183e-08 1.669748149e-08)
5(1.2757097e-08 1.779237574e-08 2.083204492e-08 2.302652181e-08 2.210404317e-08)
5(1.799434613e-08 2.472007921e-08 2.859658191e-08 3.093816081e-08 2.908628342e-08)
5(2.531306262e-08 3.4120649e-08 3.885504175e-08 4.103148545e-08 3.75326282e-08)
5(3.541206419e-08 4.658064593e-08 5.20553493e-08 5.333003807e-08 4.741547604e-08)
5(4.892704294e-08 6.244520606e-08 6.828762518e-08 6.763011642e-08 5.822828484e-08)
5(6.655438527e-08 8.191411722e-08 8.729307206e-08 8.316865239e-08 6.917468938e-08)
5(8.843188968e-08 1.047244074e-07 1.081762905e-07 9.877726663e-08 7.900616409e-08)
5(1.145413e-07 1.295119693e-07 1.292206952e-07 1.125542544e-07 8.559884827e-08)
5(1.438070555e-07 1.54881705e-07 1.480521519e-07 1.221675268e-07 8.670056401e-08)
5(1.740869773e-07 1.771761353e-07 1.613375328e-07 1.253396585e-07 8.112997046e-08)
5(2.017114987e-07 1.937715632e-07 1.669593379e-07 1.201065368e-07 6.951882277e-08)
5(2.230352706e-07 2.001948136e-07 1.623071242e-07 1.059529303e-07 5.434222656e-08)
5(2.333158104e-07 1.93704148e-07 1.470935223e-07 8.491190559e-08 3.84575477e-08)
5(2.285617046e-07 1.750405868e-07 1.223741388e-07 6.107149878e-08 2.428608297e-08)
5(2.078137996e-07 1.456136754e-07 9.185865841e-08 3.902604954e-08 1.344076502e-08)
5(1.736365968e-07 1.101959353e-07 6.079642952e-08 2.201563286e-08 6.473891564e-09)
5(1.308087204e-07 7.429159947e-08 3.495256647e-08 1.082740749e-08 2.756021868e-09)
5(8.787964622e-08 4.364688598e-08 1.718846544e-08 4.62665382e-09 1.110401516e-09)
5(5.086294775e-08 2.166346846e-08 7.267121124e-09 1.766714021e-09 5.024432787e-10)
5(2.50497566e-08 8.954366472e-09 2.651650191e-09 7.074651038e-10 3.015706892e-10)
5(9.904792836e-09 3.138965938e-09 9.674034838e-10 3.660199305e-10 2.405437832e-10)
5(3.381673113e-09 1.066251454e-09 4.549374405e-10 2.648253734e-10 2.260869267e-10)
5(1.035106746e-09 4.599653017e-10 3.057592601e-10 2.34299591e-10 2.265272497e-10)
5(4.390776455e-10 3.058016465e-10 2.5770401e-10 2.270604893e-10 2.391662568e-10)
5(2.826104613e-10 2.480410283e-10 2.349932949e-10 2.308407703e-10 2.625288793e-10)
5(2.122086392e-10 2.136223871e-10 2.228307584e-10 2.436868068e-10 2.990016051e-10)
5(1.626813835e-10 1.889570761e-10 2.182088959e-10 2.666356446e-10 3.507753255e-10)
5(1.292608511e-10 1.710150022e-10 2.197869418e-10 3.019556752e-10 4.260150305e-10)
5(1.019596219e-10 1.61669598e-10 2.376832877e-10 3.736954197e-10 5.497945626e-10)
)


60
(
5(1.51701143e-11 1.450325053e-11 4.963887461e-11 8.254059628e-11 3.470971549e-10)
5(1.349284665e-11 1.769528734e-11 3.603760849e-11 7.145415649e-11 2.014296365e-10)
5(1.385785418e-11 2.248677415e-11 3.61303211e-11 8.02851489e-11 1.792685998e-10)
5(1.658074835e-11 2.952679709e-11 4.697678652e-11 1.079377434e-10 2.327114447e-10)
5(2.204592161e-11 4.01600504e-11 6.944234789e-11 1.566788085e-10 3.481048978e-10)
5(3.067178813e-11 5.549035496e-11 1.031158285e-10 2.259618147e-10 5.264848867e-10)
5(4.185955184e-11 7.594436477e-11 1.4488966e-10 3.110256803e-10 7.232834585e-10)
5(5.586882753e-11 1.027174698e-10 1.949067241e-10 4.141831808e-10 9.375608848e-10)
5(7.345668605e-11 1.376682458e-10 2.57145199e-10 5.40788715e-10 1.188454694e-09)
5(9.768262284e-11 1.831945151e-10 3.379463051e-10 6.98699322e-10 1.489677542e-09)
5(1.302196025e-10 2.421458359e-10 4.422730837e-10 8.922173807e-10 1.858819442e-09)
5(1.736794909e-10 3.169101633e-10 5.727501912e-10 1.123149012e-09 2.286100527e-09)
5(2.276351226e-10 4.100731156e-10 7.312110182e-10 1.389775659e-09 2.750846104e-09)
5(2.971101036e-10 5.256222846e-10 9.19503891e-10 1.692594673e-09 3.240653081e-09)
5(3.858224066e-10 6.678482292e-10 1.142058794e-09 2.030483372e-09 3.757789462e-09)
5(5.012414036e-10 8.422401947e-10 1.402905288e-09 2.404847404e-09 4.28554934e-09)
5(6.397601448e-10 1.053578118e-09 1.706741658e-09 2.813622846e-09 4.813494507e-09)
5(8.155831598e-10 1.309865047e-09 2.057127317e-09 3.258544053e-09 5.3492612e-09)
5(1.037010704e-09 1.617992257e-09 2.461887742e-09 3.743983835e-09 5.87762122e-09)
5(1.311996796e-09 1.989804837e-09 2.92961243e-09 4.276690176e-09 6.405239048e-09)
5(1.659987412e-09 2.437501526e-09 3.473891311e-09 4.869520004e-09 6.946723876e-09)
5(2.082203554e-09 2.98113369e-09 4.113555568e-09 5.544514755e-09 7.563986185e-09)
5(2.609049191e-09 3.647139649e-09 4.874929926e-09 6.335747998e-09 8.262035138e-09)
5(3.275004162e-09 4.47068079e-09 5.805075632e-09 7.300750234e-09 9.122348545e-09)
5(4.110013753e-09 5.503726809e-09 6.970195466e-09 8.522776499e-09 1.023352363e-08)
5(5.158470775e-09 6.824896164e-09 8.468554429e-09 1.013148754e-08 1.174198858e-08)
5(6.514949597e-09 8.545042023e-09 1.043687927e-08 1.226264087e-08 1.378445785e-08)
5(8.310005046e-09 1.082021194e-08 1.305856642e-08 1.517142636e-08 1.660967446e-08)
5(1.063090041e-08 1.389619812e-08 1.664479468e-08 1.915732564e-08 2.054962335e-08)
5(1.382634876e-08 1.80909737e-08 2.159487293e-08 2.466450801e-08 2.6048729e-08)
5(1.812560826e-08 2.387101208e-08 2.840247495e-08 3.220796066e-08 3.337888778e-08)
5(2.407930556e-08 3.185142526e-08 3.773864518e-08 4.243699858e-08 4.331353725e-08)
5(3.23235992e-08 4.274454555e-08 5.041984788e-08 5.605595438e-08 5.612617714e-08)
5(4.366791741e-08 5.747231229e-08 6.730355726e-08 7.356399832e-08 7.242425595e-08)
5(5.904168415e-08 7.699629046e-08 8.917078e-08 9.553232417e-08 9.191629432e-08)
5(7.970578479e-08 1.022246326e-07 1.166168576e-07 1.220332072e-07 1.145257135e-07)
5(1.068610366e-07 1.336955334e-07 1.49721818e-07 1.524073977e-07 1.392985681e-07)
5(1.402434471e-07 1.7157843e-07 1.876180834e-07 1.851163479e-07 1.638836434e-07)
5(1.815771312e-07 2.15014036e-07 2.282217171e-07 2.17455516e-07 1.851033238e-07)
5(2.288522057e-07 2.613649856e-07 2.684909381e-07 2.456285885e-07 1.990126226e-07)
5(2.799022977e-07 3.068494476e-07 3.036435564e-07 2.649971261e-07 2.014147478e-07)
5(3.31140655e-07 3.464413395e-07 3.278944281e-07 2.707775577e-07 1.91058241e-07)
5(3.758286515e-07 3.73206613e-07 3.361709073e-07 2.594214335e-07 1.689448602e-07)
5(4.066919523e-07 3.81266144e-07 3.249372999e-07 2.307779046e-07 1.381715972e-07)
5(4.174477393e-07 3.66312344e-07 2.925525022e-07 1.889103548e-07 1.034344764e-07)
5(4.024207028e-07 3.284585951e-07 2.423040568e-07 1.410012515e-07 6.982839023e-08)
5(3.606449715e-07 2.721136547e-07 1.816265479e-07 9.47922211e-08 4.21857996e-08)
5(2.973935773e-07 2.045433515e-07 1.216007396e-07 5.677671601e-08 2.24459732e-08)
5(2.223385545e-07 1.3706678e-07 7.148968261e-08 3.002309442e-08 1.064553242e-08)
5(1.474548646e-07 8.016929177e-08 3.65656548e-08 1.383218049e-08 4.6912165e-09)
5(8.500145212e-08 3.996439987e-08 1.615256028e-08 5.8580082e-09 2.15727597e-09)
5(4.083487487e-08 1.676773906e-08 6.34274382e-09 2.507392824e-09 1.268594598e-09)
5(1.609094549e-08 6.199379674e-09 2.602957125e-09 1.371328222e-09 9.708564718e-10)
5(5.4016443e-09 2.424594778e-09 1.4175291e-09 1.016304886e-09 8.764902351e-10)
5(2.079974302e-09 1.354357918e-09 1.077100692e-09 9.002143151e-10 8.446784866e-10)
5(1.224731644e-09 1.042307696e-09 9.379441614e-10 8.485825034e-10 8.473953195e-10)
5(9.456479038e-10 8.882569986e-10 8.506583315e-10 8.260356155e-10 8.760551027e-10)
5(7.680854005e-10 7.736287348e-10 7.870948503e-10 8.274759019e-10 9.337378318e-10)
5(6.284780699e-10 6.748523438e-10 7.449993865e-10 8.484444867e-10 1.027180592e-09)
5(5.153887908e-10 6.216849621e-10 7.607002541e-10 9.712682866e-10 1.221566667e-09)
)


60
(
5(2.704267754e-11 2.921956473e-11 1.001543309e-10 1.962214432e-10 7.575003395e-10)
5(2.737101367e-11 3.883913794e-11 8.39050871e-11 1.863537377e-10 5.375059111e-10)
5(3.073623686e-11 5.202899407e-11 9.219141271e-11 2.183322883e-10 5.302038332e-10)
5(3.811427779e-11 7.01325356e-11 1.234369697e-10 2.918017274e-10 6.717757178e-10)
5(5.165274121e-11 9.648202259e-11 1.79575692e-10 4.099220857e-10 9.501426205e-10)
5(7.251579911e-11 1.338206614e-10 2.596484268e-10 5.716223276e-10 1.344316356e-09)
5(9.948141716e-11 1.831330863e-10 3.589524427e-10 7.699494173e-10 1.780645523e-09)
5(1.331921325e-10 2.471553587e-10 4.784145575e-10 1.00648447e-09 2.250572219e-09)
5(1.77077535e-10 3.297526079e-10 6.251188262e-10 1.291455107e-09 2.795069686e-09)
5(2.361101063e-10 4.360936356e-10 8.114163467e-10 1.638534218e-09 3.441830041e-09)
5(3.1348133e-10 5.713323503e-10 1.04565136e-09 2.054643511e-09 4.203761238e-09)
5(4.145341764e-10 7.411790918e-10 1.334432251e-09 2.541158236e-09 5.050301318e-09)
5(5.441587319e-10 9.517132686e-10 1.681109345e-09 3.095939428e-09 5.965566613e-09)
5(7.045288631e-10 1.210230616e-09 2.087853629e-09 3.717009976e-09 6.929667082e-09)
5(9.081352442e-10 1.524964479e-09 2.562253758e-09 4.403236724e-09 7.900564425e-09)
5(1.164376837e-09 1.904418339e-09 3.112153784e-09 5.154358284e-09 8.895446151e-09)
5(1.489093884e-09 2.363057073e-09 3.747697563e-09 5.969093569e-09 9.884822125e-09)
5(1.880203974e-09 2.913872196e-09 4.477344026e-09 6.847715914e-09 1.08575141e-08)
5(2.383130466e-09 3.567745184e-09 5.306186168e-09 7.798437686e-09 1.183462026e-08)
5(2.97514845e-09 4.346775406e-09 6.251686729e-09 8.821705553e-09 1.278947493e-08)
5(3.71673483e-09 5.275305696e-09 7.32822484e-09 9.936971375e-09 1.377361125e-08)
5(4.657585624e-09 6.367974003e-09 8.562512438e-09 1.117572225e-08 1.487284662e-08)
5(5.774911388e-09 7.671228268e-09 1.000282822e-08 1.258065315e-08 1.606449368e-08)
5(7.056163085e-09 9.231462764e-09 1.169914745e-08 1.422560045e-08 1.750013978e-08)
5(8.693579642e-09 1.110774982e-08 1.370837979e-08 1.622132681e-08 1.922415674e-08)
5(1.066444565e-08 1.337428628e-08 1.616227615e-08 1.870849289e-08 2.151959365e-08)
5(1.307898118e-08 1.616103759e-08 1.923440646e-08 2.189733045e-08 2.456882104e-08)
5(1.604320677e-08 1.966340514e-08 2.314550116e-08 2.606408505e-08 2.861507789e-08)
5(1.977187312e-08 2.415229825e-08 2.824872907e-08 3.161835442e-08 3.419471591e-08)
5(2.449882743e-08 2.999764829e-08 3.503256324e-08 3.909405965e-08 4.17211723e-08)
5(3.060327915e-08 3.772683067e-08 4.4148764e-08 4.921463888e-08 5.20730903e-08)
5(3.865457059e-08 4.807856588e-08 5.642426964e-08 6.284194604e-08 6.584295042e-08)
5(4.935287906e-08 6.192896703e-08 7.289331571e-08 8.100912131e-08 8.40001125e-08)
5(6.362167773e-08 8.048708323e-08 9.4750808e-08 1.045894078e-07 1.070376612e-07)
5(8.272999835e-08 1.050172515e-07 1.232588569e-07 1.346662891e-07 1.35978633e-07)
5(1.078898089e-07 1.368247261e-07 1.59395899e-07 1.717756e-07 1.698267828e-07)
5(1.406650716e-07 1.768897885e-07 2.039115379e-07 2.155865427e-07 2.08705285e-07)
5(1.825698209e-07 2.261153338e-07 2.563231362e-07 2.649172522e-07 2.502678057e-07)
5(2.338313014e-07 2.838378959e-07 3.151535002e-07 3.168942434e-07 2.899909627e-07)
5(2.943019645e-07 3.482070725e-07 3.768745662e-07 3.669023289e-07 3.227578182e-07)
5(3.626384547e-07 4.157547e-07 4.356554694e-07 4.0884475e-07 3.417535118e-07)
5(4.336363568e-07 4.798798645e-07 4.844596291e-07 4.350855494e-07 3.436936616e-07)
5(5.023555048e-07 5.324760028e-07 5.152324204e-07 4.387411693e-07 3.254273291e-07)
5(5.592711448e-07 5.645679389e-07 5.20436892e-07 4.1562547e-07 2.890425527e-07)
5(5.957230229e-07 5.683712158e-07 4.946219532e-07 3.673304011e-07 2.382907353e-07)
5(6.020382462e-07 5.389452496e-07 4.376448979e-07 3.001904476e-07 1.797021279e-07)
5(5.728324358e-07 4.770193629e-07 3.559804759e-07 2.249213526e-07 1.232947483e-07)
5(5.094462547e-07 3.897423427e-07 2.632915698e-07 1.522136339e-07 7.550019753e-08)
5(4.17717861e-07 2.888972744e-07 1.741001536e-07 9.180222667e-08 4.136154914e-08)
5(3.115507134e-07 1.9073348e-07 1.008901311e-07 4.858276844e-08 2.024573301e-08)
5(2.078026366e-07 1.09672622e-07 5.110214439e-08 2.296215942e-08 9.299929198e-09)
5(1.202967704e-07 5.341190828e-08 2.262204119e-08 9.905645294e-09 4.505750922e-09)
5(5.786454072e-08 2.237651695e-08 9.263870963e-09 4.646243977e-09 2.81060019e-09)
5(2.307629348e-08 8.62688206e-09 4.28513113e-09 2.852631238e-09 2.244781972e-09)
5(8.426923513e-09 3.961354827e-09 2.799499626e-09 2.288897681e-09 2.0468999e-09)
5(3.639340523e-09 2.679481477e-09 2.334306255e-09 2.074059047e-09 1.967434285e-09)
5(2.470816422e-09 2.251829156e-09 2.086660938e-09 1.954401773e-09 1.944552127e-09)
5(2.055230621e-09 1.972436985e-09 1.902609081e-09 1.883448616e-09 1.971458562e-09)
5(1.736766633e-09 1.805551334e-09 1.76547683e-09 1.905755244e-09 2.057304477e-09)
5(1.475188915e-09 1.612305928e-09 1.684288793e-09 2.088621904e-09 2.435917878e-09)
)


60
(
5(4.447987654e-11 5.293262807e-11 1.804706457e-10 3.891805742e-10 1.392033784e-09)
5(4.941010624e-11 7.423036595e-11 1.662354061e-10 3.895706392e-10 1.116081825e-09)
5(5.873147886e-11 1.021266784e-10 1.916854465e-10 4.619975163e-10 1.150166726e-09)
5(7.461611862e-11 1.388920025e-10 2.576480704e-10 6.079919237e-10 1.427639625e-09)
5(1.014384091e-10 1.909463573e-10 3.677608532e-10 8.307336058e-10 1.933271519e-09)
5(1.419673806e-10 2.638750316e-10 5.195137168e-10 1.127319703e-09 2.616631365e-09)
5(1.948371006e-10 3.590217906e-10 7.068115915e-10 1.486622256e-09 3.376744653e-09)
5(2.615616934e-10 4.816832099e-10 9.319843253e-10 1.914247645e-09 4.193041693e-09)
5(3.475855462e-10 6.381128501e-10 1.205641885e-09 2.422949281e-09 5.128936115e-09)
5(4.613182975e-10 8.371095134e-10 1.547734157e-09 3.032233072e-09 6.214296872e-09)
5(6.097696636e-10 1.088757304e-09 1.972753944e-09 3.751964193e-09 7.478028627e-09)
5(8.035098539e-10 1.401989762e-09 2.489796518e-09 4.585777092e-09 8.858576239e-09)
5(1.04536603e-09 1.788303112e-09 3.103916982e-09 5.529439806e-09 1.034131224e-08)
5(1.357282063e-09 2.259297465e-09 3.823095338e-09 6.581919986e-09 1.186643481e-08)
5(1.734503502e-09 2.830220489e-09 4.658487445e-09 7.741451914e-09 1.344631028e-08)
5(2.207349117e-09 3.516842826e-09 5.624681385e-09 9.010280941e-09 1.504263231e-08)
5(2.808149431e-09 4.341717336e-09 6.734737263e-09 1.038493617e-08 1.66372531e-08)
5(3.538447165e-09 5.327595195e-09 8.001549908e-09 1.186440137e-08 1.821053415e-08)
5(4.440314908e-09 6.496099352e-09 9.443325964e-09 1.345872225e-08 1.978046788e-08)
5(5.545998785e-09 7.882069625e-09 1.10818951e-08 1.517889113e-08 2.136566886e-08)
5(6.891840116e-09 9.510646194e-09 1.294070001e-08 1.705250211e-08 2.298391741e-08)
5(8.509208217e-09 1.142204144e-08 1.505612815e-08 1.910498697e-08 2.474974897e-08)
5(1.045993774e-08 1.36642887e-08 1.746433844e-08 2.139670502e-08 2.663601565e-08)
5(1.281285136e-08 1.629678494e-08 2.02278319e-08 2.400318443e-08 2.886969643e-08)
5(1.561437864e-08 1.938256484e-08 2.343573156e-08 2.704496598e-08 3.145410671e-08)
5(1.887613597e-08 2.300651234e-08 2.721826687e-08 3.067903915e-08 3.473577869e-08)
5(2.276899454e-08 2.723193569e-08 3.172593725e-08 3.513217889e-08 3.885300967e-08)
5(2.744460006e-08 3.232975435e-08 3.718456095e-08 4.069652255e-08 4.418652597e-08)
5(3.303232956e-08 3.8535772e-08 4.397052713e-08 4.783507311e-08 5.131857267e-08)
5(3.970053701e-08 4.62230158e-08 5.261175996e-08 5.713226334e-08 6.08149618e-08)
5(4.791800804e-08 5.593572407e-08 6.381478577e-08 6.93998459e-08 7.352955734e-08)
5(5.814410158e-08 6.835819883e-08 7.843573744e-08 8.573950658e-08 9.072321778e-08)
5(7.105846921e-08 8.455762008e-08 9.77587361e-08 1.073057634e-07 1.127559672e-07)
5(8.76852004e-08 1.058111857e-07 1.232275068e-07 1.354384583e-07 1.415461464e-07)
5(1.09369121e-07 1.334963721e-07 1.562003873e-07 1.714676711e-07 1.776683806e-07)
5(1.376433723e-07 1.693337407e-07 1.984126641e-07 2.16487884e-07 2.216049184e-07)
5(1.740135216e-07 2.147735792e-07 2.511283878e-07 2.709583662e-07 2.733310997e-07)
5(2.199498644e-07 2.711682784e-07 3.146073541e-07 3.34422919e-07 3.31024029e-07)
5(2.772793711e-07 3.391091539e-07 3.880087894e-07 4.043297209e-07 3.905686768e-07)
5(3.461662688e-07 4.171793038e-07 4.681204614e-07 4.762558365e-07 4.452988565e-07)
5(4.257275073e-07 5.025310602e-07 5.500291649e-07 5.435113143e-07 4.878797199e-07)
5(5.128890944e-07 5.891813168e-07 6.257515338e-07 5.965028173e-07 5.113844533e-07)
5(6.024077047e-07 6.691756008e-07 6.851204646e-07 6.252376429e-07 5.089613888e-07)
5(6.853771155e-07 7.318905124e-07 7.180203174e-07 6.21665788e-07 4.795740009e-07)
5(7.519573219e-07 7.659806722e-07 7.133678324e-07 5.819546389e-07 4.237316676e-07)
5(7.905088447e-07 7.629053503e-07 6.679613348e-07 5.095734257e-07 3.481753727e-07)
5(7.928109746e-07 7.171698855e-07 5.817402565e-07 4.137651513e-07 2.627242588e-07)
5(7.529775126e-07 6.309456874e-07 4.661285068e-07 3.078708465e-07 1.799789555e-07)
5(6.705574228e-07 5.124910008e-07 3.398305576e-07 2.068375285e-07 1.106314307e-07)
5(5.551500325e-07 3.786387619e-07 2.220133968e-07 1.241880366e-07 6.03298392e-08)
5(4.214315312e-07 2.496609127e-07 1.276808812e-07 6.561962418e-08 2.980199327e-08)
5(2.884214194e-07 1.43213895e-07 6.366340107e-08 3.096086426e-08 1.423259485e-08)
5(1.733169635e-07 7.161853294e-08 2.802537286e-08 1.376325881e-08 7.302702806e-09)
5(8.857868144e-08 3.106528811e-08 1.199770354e-08 7.050090367e-09 4.955717953e-09)
5(3.703779308e-08 1.249761055e-08 6.444852095e-09 4.865547754e-09 4.150841159e-09)
5(1.507518126e-08 6.390022365e-09 4.806029082e-09 4.185333489e-09 3.856450504e-09)
5(6.615716879e-09 4.712190126e-09 4.214050642e-09 3.869845491e-09 3.716725343e-09)
5(4.42990464e-09 4.102344545e-09 3.838022722e-09 3.666419143e-09 3.66384744e-09)
5(3.743888459e-09 3.716518135e-09 3.554221907e-09 3.577072272e-09 3.711016331e-09)
5(3.285290901e-09 3.433002325e-09 3.637419317e-09 3.784671402e-09 4.216139232e-09)
)


60
(
5(6.870195894e-11 8.854598776e-11 2.983756102e-10 6.829631781e-10 2.278686581e-09)
5(8.196830125e-11 1.284833986e-10 2.937379974e-10 7.052523688e-10 1.977913345e-09)
5(1.004838768e-10 1.789199622e-10 3.481774399e-10 8.360673625e-10 2.078665333e-09)
5(1.298532034e-10 2.435045618e-10 4.660002952e-10 1.081425796e-09 2.554208238e-09)
5(1.774127169e-10 3.329230439e-10 6.515075184e-10 1.444076224e-09 3.342283492e-09)
5(2.469882375e-10 4.565111267e-10 9.018163885e-10 1.91838185e-09 4.371255165e-09)
5(3.380117072e-10 6.166310709e-10 1.208865388e-09 2.487469095e-09 5.527691517e-09)
5(4.524071616e-10 8.218108966e-10 1.577121164e-09 3.158987394e-09 6.757152306e-09)
5(6.005919106e-10 1.081920774e-09 2.022555578e-09 3.953083283e-09 8.161385807e-09)
5(7.929357458e-10 1.410243964e-09 2.574403151e-09 4.894802051e-09 9.779844485e-09)
5(1.04606394e-09 1.821293267e-09 3.251484954e-09 5.998925042e-09 1.162609367e-08)
5(1.362725556e-09 2.330411344e-09 4.069099591e-09 7.268335695e-09 1.363564765e-08)
5(1.771203025e-09 2.954854749e-09 5.036287649e-09 8.701993733e-09 1.578682177e-08)
5(2.274377219e-09 3.713678517e-09 6.165420088e-09 1.029919178e-08 1.800545866e-08)
5(2.913193105e-09 4.633142585e-09 7.477283262e-09 1.206070114e-08 2.031553655e-08)
5(3.697204957e-09 5.738245121e-09 8.993000564e-09 1.39869935e-08 2.263388959e-08)
5(4.667439676e-09 7.061619076e-09 1.073576e-08 1.608275076e-08 2.501571518e-08)
5(5.873318859e-09 8.641080306e-09 1.272905149e-08 1.835804127e-08 2.736752252e-08)
5(7.331237417e-09 1.051188281e-08 1.500096474e-08 2.082506534e-08 2.977385176e-08)
5(9.141170384e-09 1.272000555e-08 1.758259911e-08 2.349858238e-08 3.219566093e-08)
5(1.133112881e-08 1.531846175e-08 2.050647788e-08 2.640611531e-08 3.470725854e-08)
5(1.390490894e-08 1.834742669e-08 2.381107493e-08 2.958857778e-08 3.74265654e-08)
5(1.70684134e-08 2.187528077e-08 2.756839049e-08 3.310205022e-08 4.03482219e-08)
5(2.080621962e-08 2.596236231e-08 3.182412469e-08 3.704513282e-08 4.365616275e-08)
5(2.514498817e-08 3.066279356e-08 3.66603053e-08 4.153314866e-08 4.751534125e-08)
5(3.025540555e-08 3.607355967e-08 4.221414608e-08 4.670714796e-08 5.201938865e-08)
5(3.624585316e-08 4.232931652e-08 4.861288842e-08 5.279898655e-08 5.754399243e-08)
5(4.313256695e-08 4.957271213e-08 5.609005525e-08 6.010557039e-08 6.447111475e-08)
5(5.102908124e-08 5.799979718e-08 6.497574032e-08 6.906029377e-08 7.324686141e-08)
5(6.028646103e-08 6.79741885e-08 7.580136299e-08 8.028694115e-08 8.456099132e-08)
5(7.124277178e-08 8.002750763e-08 8.922587238e-08 9.465829833e-08 9.958286664e-08)
5(8.415022468e-08 9.482354167e-08 1.061892309e-07 1.131940319e-07 1.191832665e-07)
5(9.967244596e-08 1.133039891e-07 1.279395026e-07 1.373491683e-07 1.447286811e-07)
5(1.186206314e-07 1.366591275e-07 1.559307729e-07 1.686767422e-07 1.780305993e-07)
5(1.425630029e-07 1.665063998e-07 1.919929187e-07 2.08853327e-07 2.200046283e-07)
5(1.728153617e-07 2.047162347e-07 2.380257191e-07 2.595461425e-07 2.718873762e-07)
5(2.108887264e-07 2.531794799e-07 2.958932209e-07 3.219844925e-07 3.34093468e-07)
5(2.591088031e-07 3.137216127e-07 3.666580599e-07 3.960833471e-07 4.057947458e-07)
5(3.18839834e-07 3.8720426e-07 4.502558559e-07 4.806267208e-07 4.837130902e-07)
5(3.91718238e-07 4.736860058e-07 5.450138709e-07 5.718123633e-07 5.609656956e-07)
5(4.773576121e-07 5.717272692e-07 6.462102395e-07 6.632105089e-07 6.276746154e-07)
5(5.745010206e-07 6.764719505e-07 7.469716469e-07 7.445360166e-07 6.791595239e-07)
5(6.787144103e-07 7.804842586e-07 8.367076583e-07 8.042799863e-07 7.02013148e-07)
5(7.831585644e-07 8.736701532e-07 9.033029227e-07 8.308541667e-07 6.924576548e-07)
5(8.791142663e-07 9.440514806e-07 9.324373907e-07 8.152423808e-07 6.459282632e-07)
5(9.537527231e-07 9.794663691e-07 9.14964875e-07 7.548132458e-07 5.65669279e-07)
5(9.925514093e-07 9.695162013e-07 8.452541433e-07 6.544867022e-07 4.59990201e-07)
5(9.952363158e-07 9.085135084e-07 7.281916733e-07 5.262993822e-07 3.441080205e-07)
5(9.480870378e-07 7.989193144e-07 5.798994429e-07 3.875225746e-07 2.332889835e-07)
5(8.511683022e-07 6.519323595e-07 4.209795183e-07 2.571635758e-07 1.417091453e-07)
5(7.181688361e-07 4.87460453e-07 2.741681667e-07 1.52117451e-07 7.683035358e-08)
5(5.596412426e-07 3.30660624e-07 1.572704525e-07 7.927287361e-08 3.818067376e-08)
5(3.944724267e-07 1.959524347e-07 7.94817304e-08 3.682476001e-08 1.843263145e-08)
5(2.526727662e-07 1.018349571e-07 3.528053189e-08 1.739814839e-08 1.046593117e-08)