/*--------------------------------*- C++ -*----------------------------------*\
| =========                 |                                                 |
| \\      /  F ield         | OpenFOAM: The Open Source CFD Toolbox           |
|  \\    /   O peration     | Version:  2.3.1                                 |
|   \\  /    A nd           | Web:      www.OpenFOAM.org                      |
|    \\/     M anipulation  |                                                 |
\*---------------------------------------------------------------------------*/
FoamFile
{
    version     2.0;
    format      ascii;
    class       dictionary;
    location    "constant";
    object      He;
}
// * * * * * * * * * * * * * * * * * * * * * * * * * * * * * * * * * * * * * //

He_table
60
(

60
(
5(-2562046.22 -2645620.66 -2759994.57 -2843349.32 -2944629.33)
5(-2530255.515 -2611416.663 -2729677.675 -2808741.384 -2916682.739)
5(-2499814.62 -2569828.052 -2693398.155 -2770812.185 -2889084.016)
5(-2465489.049 -2529215.594 -2651242.058 -2730826.958 -2834588.032)
5(-2423004.868 -2489477.497 -2608991.313 -2685272.626 -2792594.345)
5(-2378918.946 -2449775.374 -2569824.405 -2642156.364 -2749437.781)
5(-2338574.07 -2409970.636 -2527222.562 -2600562.161 -2702212.977)
5(-2301230.259 -2369891.28 -2483949.501 -2557184.281 -2662280.497)
5(-2261112.009 -2329637.588 -2442725.352 -2514243.994 -2616663.87)
5(-2222208.058 -2289335.376 -2400036.416 -2471733.44 -2572161.365)
5(-2182938.14 -2249233.557 -2358167.809 -2428795.017 -2527859.687)
5(-2143959.339 -2209118.275 -2316730.882 -2385914.945 -2484020.383)
5(-2105263.186 -2168942.356 -2274897.429 -2342751.741 -2439498.123)
5(-2065747.293 -2128755.204 -2232855.776 -2300344.271 -2395544.95)
5(-2026995.564 -2088794.383 -2191095.822 -2257272.882 -2351385.287)
5(-1987756.899 -2048606.177 -2149003.779 -2214384.148 -2307101.946)
5(-1948652.196 -2008516.546 -2107040.229 -2171522.075 -2262665.276)
5(-1909572.022 -1968405.541 -2065079.046 -2128521.93 -2218354.875)
5(-1870517.346 -1928259.436 -2023103.385 -2085706.637 -2174101.856)
5(-1831278.592 -1887943.939 -1980989.021 -2042551.682 -2129908.009)
5(-1792214.659 -1847945.541 -1939190.512 -1999772.55 -2085689.646)
5(-1753089.424 -1807826.903 -1897139.551 -1957441.59 -2041800.763)
5(-1713840.004 -1767616.583 -1855199.377 -1914226.105 -1997190.221)
5(-1674785.494 -1727299.714 -1813184.753 -1871342.739 -1952985.167)
5(-1635584.387 -1687117.214 -1771094.139 -1828273.483 -1908554.447)
5(-1596433.601 -1646957.894 -1728863.948 -1785118.852 -1864268.907)
5(-1557239.656 -1606846.845 -1687023.356 -1742088.27 -1819920.285)
5(-1518123.257 -1566651.318 -1644843.739 -1699091.915 -1775611.459)
5(-1478787.199 -1526350.054 -1602893.521 -1656228.188 -1731216.859)
5(-1439561.437 -1485988.79 -1560866.824 -1613489.107 -1686965.294)
5(-1400227.409 -1445630.484 -1518601.487 -1570300.089 -1642519.203)
5(-1360962.178 -1405402.49 -1476654.49 -1527638.469 -1598844.066)
5(-1321715.921 -1365031.268 -1434416.587 -1484598.204 -1553758.004)
5(-1282361.754 -1324582.88 -1392044.869 -1441657.418 -1510162.34)
5(-1242975.92 -1284265.564 -1349946.296 -1398615.465 -1465737.962)
5(-1203600.789 -1243623.235 -1307190.076 -1355465.551 -1421319.565)
5(-1164192.207 -1203594.331 -1265865.496 -1312794.172 -1376787.047)
5(-1124782.341 -1162923.214 -1223640.694 -1269505.074 -1334052.716)
5(-1085248.497 -1122553.776 -1181145.619 -1226635.918 -1287962.589)
5(-1045490.185 -1082014.397 -1138487.703 -1183348.084 -1249611.207)
5(-1006037.474 -1041869.911 -1096906.746 -1140578.421 -1205173.787)
5(-966751.7094 -1001501.706 -1054906.443 -1099543.336 -1160992.664)
5(-927318.4329 -961517.9122 -1013115.689 -1061102.512 -1116560.301)
5(-887799.0159 -920854.2911 -968995.328 -1018066.928 -1071794.838)
5(-848315.9711 -880765.0646 -927466.9937 -974978.8317 -1027401.25)
5(-809366.1757 -840210.8055 -886597.3251 -931778.9641 -982701.2564)
5(-770319.3006 -800427.2295 -849324.0592 -888444.2548 -937794.3752)
5(-731378.7203 -762136.7167 -808723.6319 -845016.5265 -892664.0225)
5(-692288.9725 -721434.5755 -766460.729 -801377.9502 -847262.728)
5(-653327.4631 -686061.8147 -723865.79 -757514.3386 -801541.3606)
5(-614772.0597 -645491.6371 -681069.9626 -713348.6813 -755403.4187)
5(-579605.1842 -604679.6023 -638038.8924 -668839.9721 -708774.6348)
5(-541599.4882 -563676.5346 -594721.8431 -623904.5604 -661548.2285)
5(-502067.8845 -522454.0266 -551047.6726 -578469.3615 -613577.5341)
5(-462106.3435 -480954.6886 -506954.3422 -532409.1884 -564772.4261)
5(-421574.1551 -439116.5665 -462348.1686 -485673.0478 -514994.5659)
5(-380192.3484 -396850.8727 -417117.8622 -438109.3908 -464284.1782)
5(-338831.1597 -353469.8098 -371092.4542 -389663.1267 -412505.2601)
5(-297554.6845 -309374.2006 -323244.105 -343351.2898 -359535.4444)
5(-256117.334 -264119.97 -272416.828 -280285.989 -294389.221)
)


60
(
5(-2563587.765 -2649017.622 -2760340.141 -2844262.229 -2944183.497)
5(-2528883.705 -2608769.005 -2726757.173 -2806586.745 -2912492.282)
5(-2491956.581 -2568509.879 -2688530.927 -2766025.129 -2874128.911)
5(-2453292.77 -2528159.874 -2647022.013 -2723474.008 -2830865.011)
5(-2413479.726 -2487634.514 -2603862.528 -2679892.918 -2784932.052)
5(-2373339.851 -2447100.564 -2560686.383 -2636298.384 -2738746.718)
5(-2333724.249 -2406750.511 -2518390.695 -2593169.852 -2693891.479)
5(-2294585.452 -2366535.445 -2476611.747 -2550376.033 -2649933.207)
5(-2255572.661 -2326376.475 -2434979.042 -2507682.701 -2606144.86)
5(-2216436.966 -2286179.055 -2393155.584 -2464856.251 -2562053.633)
5(-2177237.746 -2245953.843 -2351172.351 -2421941.85 -2517712.732)
5(-2137979.735 -2205728.645 -2309109.135 -2379010.751 -2473302.672)
5(-2098749.869 -2165510.774 -2267081.274 -2336102.232 -2428996.383)
5(-2059557.712 -2125303.01 -2225112.416 -2293201.792 -2384754.993)
5(-2020375.743 -2085099.097 -2183159.987 -2250324.227 -2340528.324)
5(-1981175.762 -2044873.04 -2141176.284 -2207433.228 -2296282.73)
5(-1941962.471 -2004636.039 -2099163.739 -2164512.746 -2252006.121)
5(-1902727.546 -1964375.679 -2057134.738 -2121575.194 -2207711.76)
5(-1863471.002 -1924102.017 -2015090.832 -2078604.893 -2163403.557)
5(-1824197.693 -1883800.311 -1973032.867 -2035611.5 -2119064.023)
5(-1784895.248 -1843471.768 -1930945.753 -1992608.052 -2074728.639)
5(-1745568.064 -1803112.533 -1888836.109 -1949586.075 -2030368)
5(-1706214.741 -1762722.238 -1846693.276 -1906555.93 -1985974.059)
5(-1666811.916 -1722286.248 -1804501.761 -1863498.597 -1941566.369)
5(-1627369.15 -1681816.786 -1762276.849 -1820375.371 -1897113.863)
5(-1587872.744 -1641291.895 -1719982.147 -1777185.542 -1852622.063)
5(-1548318.177 -1600719.637 -1677647.11 -1733944.112 -1808091.473)
5(-1508705.369 -1560072.358 -1635257.386 -1690669.067 -1763529.497)
5(-1469015.452 -1519358.98 -1592798.923 -1647350.574 -1718897.67)
5(-1429244.972 -1478579.761 -1550278.927 -1603973.843 -1674245.122)
5(-1389384.516 -1437715.668 -1507677.405 -1560530.302 -1629527.63)
5(-1349428.997 -1396757.713 -1465008.256 -1517024.079 -1584784.685)
5(-1309371.143 -1355710.842 -1422244.939 -1473459.395 -1540019.871)
5(-1269203.111 -1314568.396 -1379409.531 -1429841.999 -1495268.183)
5(-1228919.869 -1273313.816 -1336482.965 -1386188.042 -1450517.696)
5(-1188501.299 -1231979.186 -1293493.338 -1342505.663 -1405763.06)
5(-1147981.358 -1190559.226 -1250449.662 -1298821.482 -1360962.846)
5(-1107335.565 -1149053.186 -1207360.98 -1255131.77 -1316170.71)
5(-1066597.559 -1107541.911 -1164292.975 -1211491.437 -1271626.56)
5(-1025809.104 -1065969.42 -1121279.084 -1167959.264 -1227596.17)
5(-984999.9067 -1024478.408 -1078402.104 -1124616.725 -1184247.047)
5(-944262.6295 -983026.3585 -1035583.611 -1081638.917 -1141412.989)
5(-903576.8682 -941781.4864 -992902.8873 -1039223.556 -1098837.885)
5(-863089.9293 -900837.3804 -950384.1419 -997488.6657 -1056254.145)
5(-822900.977 -860086.1587 -908262.9598 -956264.1757 -1013667.494)
5(-783109.0822 -819629.7911 -866754.0219 -915280.9172 -971078.0766)
5(-743751.5028 -779448.5288 -826058.307 -874298.6221 -928398.0725)
5(-704868.5726 -739764.8477 -786006.571 -833223.5293 -885520.4616)
5(-666429.5068 -700741.0585 -746292.7378 -792022.4276 -842291.1092)
5(-628541.6562 -662544.825 -706661.7862 -750624.2991 -798586.6286)
5(-591165.6699 -624987.7751 -666943.7998 -708892.7364 -754348.1616)
5(-554467.3 -587682.8132 -627032.14 -666695.3626 -709463.7561)
5(-518389.5764 -550287.3807 -586785.2744 -624005.0785 -663924.7644)
5(-482854.7448 -512708.2674 -546161.3087 -580747.2136 -617550.9079)
5(-447616.322 -474784.6319 -505065.6793 -536740.3293 -570245.1976)
5(-412385.6372 -436585.4464 -463485.7619 -491956.306 -521855.1262)
5(-377022.0268 -398084.1534 -421338.8952 -446323.7426 -472263.4692)
5(-341350.6385 -359201.9612 -378628.9129 -399755.0786 -421339.9611)
5(-305274.5691 -320049.1063 -335459.5584 -352161.0685 -368918.3572)
5(-269521.7376 -280946.3739 -293689.6649 -303431.7505 -314697.3341)
)


60
(
5(-2564708.525 -2652653.16 -2760397.948 -2845246.147 -2943541.187)
5(-2528178.662 -2610650.308 -2725114.115 -2806251.919 -2909885.14)
5(-2490318.4 -2569508.735 -2685802.989 -2764865.986 -2870262.841)
5(-2451293.62 -2528766.312 -2643798.007 -2721873.4 -2826477.595)
5(-2411296.284 -2487995.435 -2600479.719 -2678070.544 -2780438.419)
5(-2371058.686 -2447238.834 -2557249.08 -2634291.4 -2734227.249)
5(-2331355.257 -2406724.538 -2514817.109 -2591007.219 -2689248.585)
5(-2292122.327 -2366347.697 -2472915.06 -2548055.989 -2645114.95)
5(-2253019.525 -2326033.635 -2431155.239 -2505189.014 -2601157.307)
5(-2213838.228 -2285715.746 -2389247.403 -2462231.314 -2556905.567)
5(-2174590.64 -2245383.349 -2347184.972 -2419194.222 -2512476.087)
5(-2135313.261 -2205057.494 -2305072.535 -2376143.758 -2467999.669)
5(-2096055.234 -2164741.243 -2262987.056 -2333121.431 -2423596.968)
5(-2056838.332 -2124435.788 -2220956.791 -2290121.944 -2379267.91)
5(-2017630.49 -2084128.294 -2178933.601 -2247135.426 -2334952.838)
5(-1978413.448 -2043809.016 -2136895.206 -2204125.444 -2290617.501)
5(-1939168.955 -2003476.411 -2094822.515 -2161093.09 -2246246.536)
5(-1899906.52 -1963116.693 -2052733.62 -2118032.367 -2201861.903)
5(-1860617.258 -1922734.389 -2010612.941 -2074941.416 -2157442.237)
5(-1821302.749 -1882317.222 -1968472.908 -2031814.956 -2113004.464)
5(-1781961.198 -1841863.661 -1926299.396 -1988667.54 -2068535.717)
5(-1742569.543 -1801370.28 -1884090.251 -1945499.261 -2024045.481)
5(-1703146.19 -1760832.721 -1841831.007 -1902293.562 -1979515.822)
5(-1663662.408 -1720243.612 -1799517.9 -1859044.311 -1934944.187)
5(-1624127.965 -1679598.496 -1757143.086 -1815729.112 -1890323.676)
5(-1584518.876 -1638887.071 -1714703.536 -1772320.335 -1845649.557)
5(-1544837.989 -1598100.217 -1672189.078 -1728858.32 -1800902.628)
5(-1505079.364 -1557229.84 -1629605.444 -1685317.919 -1756107.165)
5(-1465216.489 -1516272.137 -1586934.481 -1641720.932 -1711227.614)
5(-1425257.835 -1475220.902 -1544156.78 -1598033.494 -1666283.971)
5(-1385186.972 -1434052.705 -1501288.87 -1554265.037 -1621262.606)
5(-1344995.624 -1392769.386 -1458310.314 -1510395.094 -1576177.423)
5(-1304671.348 -1351368.659 -1415218.413 -1466420.339 -1531050.929)
5(-1264210.12 -1309835.471 -1371996.547 -1422377.686 -1485879.761)
5(-1223609.868 -1268164.158 -1328669.344 -1378250.857 -1440694.53)
5(-1182891.104 -1226368.841 -1285232.978 -1334048.58 -1395456.451)
5(-1141978.903 -1184465.823 -1241690.65 -1289797.589 -1350153.279)
5(-1100971.196 -1142451.676 -1198083.45 -1245522.561 -1304849.189)
5(-1059839.866 -1100343.461 -1154468.313 -1201275.408 -1259786.373)
5(-1018654.798 -1058216.622 -1110854.453 -1157114.338 -1215214.005)
5(-977485.0616 -1016123.437 -1067307.602 -1113132.668 -1171309.84)
5(-936312.734 -974078.4465 -1023903.398 -1069523.146 -1127943.376)
5(-895310.6469 -932245.1066 -980640.9163 -1026508.879 -1084941.4)
5(-854536.7978 -890693.624 -937610.1337 -984207.6024 -1042127.664)
5(-814106.5973 -849529.4838 -895061.5854 -942532.0201 -999452.9333)
5(-774128.2997 -808688.8614 -853219.6597 -901292.4281 -956937.1169)
5(-734713.3507 -768284.9213 -812276.6064 -860262.2848 -914543.1294)
5(-695901.5759 -728527.553 -772141.1968 -819382.4661 -872153.6651)
5(-657715.4679 -689656.1125 -732580.3055 -778604.1132 -829605.8169)
5(-620146.5579 -651657.9278 -693341.5322 -737824.2786 -786720.2277)
5(-583256.9007 -614462.6697 -654253.206 -696907.3567 -743359.1315)
5(-547089.2068 -577722.5349 -615168.2706 -655725.0086 -699499.9922)
5(-511662.9477 -541137.7814 -576001.7096 -614148.629 -655021.7101)
5(-476819.879 -504502.2051 -536600.8599 -572065.5508 -609765.5103)
5(-442350.9286 -467815.7874 -496880.1093 -529342.8729 -563577.5345)
5(-408069.6302 -430950.7202 -456754.3884 -485906.8753 -516340.7128)
5(-373816.3472 -393871.147 -416164.4597 -441644.3075 -467934.4698)
5(-339435.3302 -356559.108 -375096.2521 -396454.03 -418233.8589)
5(-304919.2848 -319041.5805 -333558.9959 -350406.4081 -367188.1655)
5(-271836.4101 -282561.3646 -294271.3362 -304147.2801 -315066.839)
)


60
(
5(-2565144.226 -2655302.537 -2759795.211 -2845420.402 -2942235.115)
5(-2526996.852 -2611686.467 -2723110.291 -2805371.554 -2907042.296)
5(-2488367.829 -2569744.447 -2682951.991 -2763332.397 -2866508.079)
5(-2449053.99 -2528667.951 -2640526.131 -2719976.027 -2822291.25)
5(-2408923.264 -2487699.498 -2597057.005 -2675975.138 -2776128.051)
5(-2368594.069 -2446768.954 -2553755.47 -2632043.111 -2729839.7)
5(-2328832.478 -2406119.956 -2511229.618 -2588628.258 -2684752.838)
5(-2289556.537 -2365635.426 -2469237.126 -2545551.925 -2640490.593)
5(-2250431.049 -2325235.941 -2427411.249 -2502574.83 -2596414.352)
5(-2211243.985 -2284843.779 -2385454.212 -2459522.997 -2552090.496)
5(-2172001.238 -2244455.922 -2343369.413 -2416413.224 -2507601.108)
5(-2132745.373 -2204077.028 -2301237.866 -2373294.827 -2463070.497)
5(-2093519.123 -2163721.468 -2259140.111 -2330206.212 -2418618.707)
5(-2054331.019 -2123378.634 -2217095.852 -2287143.179 -2374246.79)
5(-2015155.939 -2083036.445 -2175063.373 -2244091.8 -2329878.002)
5(-1975971.679 -2042687.427 -2133009.875 -2201026.064 -2285496.436)
5(-1936767.357 -2002316.988 -2090929.99 -2157931.736 -2241078.13)
5(-1897536.434 -1961921.444 -2048823.393 -2114817.549 -2196634.401)
5(-1858281.4 -1921499.356 -2006693.778 -2071649.987 -2152170.224)
5(-1818998.683 -1881043.766 -1964533.184 -2028455.562 -2107671.721)
5(-1779677.721 -1840541.196 -1922331.065 -1985227.455 -2063146.829)
5(-1740309.696 -1799996.654 -1880090.792 -1941970.312 -2018577.232)
5(-1700893.197 -1759400.51 -1837792.161 -1898670.283 -1973962.584)
5(-1661422.173 -1718748.778 -1795429.316 -1855312.778 -1929295.049)
5(-1621877.624 -1678023.27 -1752997.443 -1811876.488 -1884553.638)
5(-1582262.32 -1637222.346 -1710483.686 -1768352.579 -1839756.406)
5(-1542558.911 -1596341.162 -1667879.801 -1724730.245 -1794883.563)
5(-1502768.243 -1555362.038 -1625194.419 -1681034.318 -1749915.575)
5(-1462864.373 -1514276.446 -1582402.972 -1637250.393 -1704883.704)
5(-1422850.424 -1473079.721 -1539495.674 -1593362.796 -1659726.551)
5(-1382717.185 -1431759.442 -1496474.711 -1549361.895 -1614494.255)
5(-1342449.29 -1390304.376 -1453315.759 -1505248.854 -1569150.196)
5(-1302040.197 -1348715.387 -1410027.459 -1460984.199 -1523733.159)
5(-1261496.006 -1306965.687 -1366591.885 -1416647.152 -1478244.716)
5(-1220791.269 -1265083.095 -1323010.133 -1372175.171 -1432708.304)
5(-1179943.34 -1223034.181 -1279310.882 -1327584.311 -1387082.693)
5(-1138954.726 -1180883.397 -1235465.758 -1282926.294 -1341365.463)
5(-1097833.065 -1138584.548 -1191538.345 -1238202.497 -1295625.543)
5(-1056627.04 -1096207.478 -1147535.73 -1193468.698 -1250063.659)
5(-1015367.109 -1053795.791 -1103511.234 -1148794.091 -1204979.132)
5(-974098.2075 -1011344.971 -1059572.755 -1104274.573 -1160503.969)
5(-932940.069 -969004.9299 -1015735.876 -1060097.493 -1116562.087)
5(-891924.5348 -926861.0472 -972054.0275 -1016505.404 -1073043.315)
5(-851184.6418 -885031.4748 -928639.3684 -973658.4817 -1029774.395)
5(-810802.2226 -843569.7432 -885731.0048 -931469.7733 -986767.3191)
5(-770917.5211 -802567.3707 -843617.2508 -889821.417 -944069.6303)
5(-731636.0468 -762126.1725 -802424.397 -848558.3457 -901678.1236)
5(-692949.3379 -722340.8604 -762194.9881 -807593.281 -859488.6048)
5(-654993.4874 -683477.2926 -722620.8135 -766920.2373 -817306.5536)
5(-617598.1879 -645651.5747 -683533.8169 -726460.3075 -774990.5527)
5(-580982.6646 -608700.332 -644836.0074 -686107.5293 -732373.0512)
5(-545147.9562 -572309.118 -606342.1142 -645642.0557 -689350.8406)
5(-510054.8368 -536206.2657 -567933.7702 -604995.3107 -645812.4395)
5(-475615.8565 -500253.9537 -529488.8645 -563969.9938 -601624.2697)
5(-441630.186 -464369.1662 -490867.1825 -522428.3286 -556566.0722)
5(-407929.9879 -428424.5313 -451963.9572 -480252.1128 -510490.2596)
5(-374345.4535 -392383.561 -412686.9163 -437306.3507 -463376.1642)
5(-340777.7044 -356185.5285 -373012.9078 -393596.4969 -415060.8368)
5(-307319.2614 -319936.9188 -332991.5492 -349129.69 -365469.2009)
5(-275995.1789 -286114.5067 -295242.6061 -305105.3729 -315587.3172)
)


60
(
5(-2564851.151 -2656825.699 -2758438.294 -2844602.531 -2940129.622)
5(-2525188.322 -2611687.572 -2720522.805 -2803656.234 -2903632.171)
5(-2485862.699 -2569023.918 -2679649.35 -2761079.317 -2862357.699)
5(-2446317.705 -2527689.412 -2636888.516 -2717445.471 -2817815.138)
5(-2406089.454 -2486593.332 -2593314.95 -2673315.256 -2771552.615)
5(-2365703.15 -2445554.405 -2549996.074 -2629304.193 -2725227.664)
5(-2325926.487 -2404848.685 -2507444.873 -2585828.129 -2680093.001)
5(-2286656.677 -2364328.546 -2465436.902 -2542700.611 -2635776.535)
5(-2247551.388 -2323914.602 -2423619.052 -2499697.673 -2591661.425)
5(-2208406.84 -2283532.266 -2381691.561 -2456636.303 -2547330.254)
5(-2169222.909 -2243157.848 -2339648.599 -2413526.793 -2502843.623)
5(-2130036.33 -2202810.279 -2297569.056 -2370415.246 -2458332.572)
5(-2090885.771 -2162490.288 -2255530.739 -2327345.833 -2413902.398)
5(-2051783.529 -2122187.138 -2213550.016 -2284303.034 -2369544.819)
5(-2012696.477 -2081889.551 -2171586.929 -2241272.245 -2325210.048)
5(-1973602.052 -2041587.237 -2129606.938 -2198225.858 -2280853.126)
5(-1934488.176 -2001269.306 -2087594.359 -2155160.469 -2236459.502)
5(-1895353.134 -1960925.344 -2045556.571 -2112067.084 -2192044.316)
5(-1856190.761 -1920554.982 -2003496.395 -2068923.364 -2147599.33)
5(-1816999.082 -1880143.39 -1961399.18 -2025748.795 -2103122.674)
5(-1777768.266 -1839692.363 -1919260.052 -1982533.437 -2058603.909)
5(-1738489.638 -1799189.685 -1877071.758 -1939283.679 -2014048.216)
5(-1699161.731 -1758635.095 -1834831.318 -1895987.046 -1969435.076)
5(-1659767.861 -1718010.523 -1792518.52 -1852632.24 -1924755.366)
5(-1620298.149 -1677316.243 -1750122.126 -1809179.759 -1880009.473)
5(-1580759.959 -1636530.137 -1707635.976 -1765632.413 -1835176.527)
5(-1541121 -1595676.565 -1665057.817 -1721976.011 -1790247.266)
5(-1501384.444 -1554701.358 -1622388.276 -1678238.313 -1745231.427)
5(-1461534.997 -1513627.978 -1579601.215 -1634383.057 -1700109.331)
5(-1421585.221 -1472425.162 -1536692.87 -1590429.143 -1654878.71)
5(-1381496.899 -1431078.467 -1493643.999 -1546339.303 -1609529.736)
5(-1341273.12 -1389612.796 -1450469.231 -1502106.247 -1564064.807)
5(-1300918.005 -1347989.252 -1407128.151 -1457725.076 -1518483.707)
5(-1260421.255 -1306223.012 -1363614.561 -1413219.225 -1472811.374)
5(-1219782.525 -1264290.655 -1319981.881 -1368573.997 -1427050.571)
5(-1178998.233 -1222193.852 -1276177.188 -1323797.47 -1381180.429)
5(-1138081.148 -1179995.926 -1232220.403 -1278916.869 -1335182.102)
5(-1097069.484 -1137664.388 -1188153.536 -1233919.219 -1289124.261)
5(-1055977.852 -1095201.274 -1143993.272 -1188889.925 -1243198.37)
5(-1014864.312 -1052728.404 -1099842.4 -1143886.401 -1197677.247)
5(-973790.075 -1010244.079 -1055697.971 -1098982.225 -1152731.705)
5(-932824.994 -967881.596 -1011653.043 -1054416.315 -1108304.701)
5(-892066.1259 -925713.7435 -967778.2142 -1010385.216 -1064255.731)
5(-851599.1225 -883832.7209 -924179.8001 -967076.9885 -1020511.427)
5(-811516.1115 -842386.9812 -881079.769 -924455.0616 -977104.2698)
5(-771854.4772 -801390.9332 -838771.8804 -882398.9638 -934109.8039)
5(-732770.7256 -760939.4222 -797457.9737 -840859.4176 -891538.2379)
5(-694248.6107 -721241.6188 -757115.1391 -799755.7741 -849314.0351)
5(-656391.0003 -682460.5871 -717579.501 -759049.2678 -807294.609)
5(-619176.9356 -644754.7264 -678638.6521 -718784.7385 -765342.0154)
5(-582669.9812 -607936.6059 -640203.3702 -678777.2051 -723291.028)
5(-546951.0458 -571760.3182 -602152.3432 -638901.4232 -681020.6905)
5(-512054.0442 -535991.8964 -564323.8298 -598995.8667 -638389.4432)
5(-477864.6376 -500472.9693 -526581.1839 -558855.7115 -595212.1063)
5(-444190.7914 -465106.4807 -488804.9632 -518363.1588 -551317.1972)
5(-410887.2847 -429808.9317 -450899.1761 -477387.8904 -506530.4018)
5(-377795.7727 -394508.0521 -412717.989 -435779.4318 -460776.3939)
5(-344847.3246 -359172.1383 -374241.1181 -393453.5142 -413924.0175)
5(-312191.1362 -323983.3497 -335527.0422 -350445.0319 -365935.2881)
5(-282103.2258 -291260.3623 -300379.6079 -309045.3707 -318896.3322)
)


60
(
5(-2563841.083 -2657227.542 -2756317.578 -2842768.32 -2937191.095)
5(-2522696.714 -2610608.083 -2717256.8 -2801001.438 -2899513.46)
5(-2482697.537 -2567261.216 -2675728.863 -2757949.475 -2857584.237)
5(-2442934.634 -2525697.681 -2632668.846 -2714081.84 -2812762.466)
5(-2402616.788 -2484506.307 -2589021.046 -2669858.817 -2766426)
5(-2362181.889 -2443396.573 -2545711.085 -2625805.546 -2720084.211)
5(-2322398.082 -2402667.409 -2503170.402 -2582308.382 -2674932.189)
5(-2283148.491 -2362147.572 -2461182.894 -2539179.557 -2630603.432)
5(-2244078.982 -2321756.542 -2419411.806 -2496188.532 -2586491.919)
5(-2204991.397 -2281413.002 -2377548.291 -2453160.648 -2542185.087)
5(-2165880.845 -2241097.699 -2335588.961 -2410096.824 -2497745.586)
5(-2126780.715 -2200815.624 -2293600.34 -2367040.872 -2453285.406)
5(-2087724.321 -2160569.342 -2251661.055 -2324031.159 -2408918.365)
5(-2048719.899 -2120352.35 -2209785.416 -2281055.592 -2364618.156)
5(-2009739.121 -2080140.492 -2167927.795 -2238090.091 -2320346.889)
5(-1970757.228 -2039928.689 -2126056.329 -2195118.509 -2276052.382)
5(-1931757.709 -1999703.773 -2084159.404 -2152126.66 -2231732.644)
5(-1892737.691 -1959456.2 -2042239.815 -2109100.303 -2187383.596)
5(-1853693.066 -1919181.351 -2000290.413 -2066032.839 -2143001.362)
5(-1814617.739 -1878871.368 -1958307.116 -2022927.297 -2098591.995)
5(-1775502.314 -1838511.956 -1916279.748 -1979782.208 -2054136.932)
5(-1736345.652 -1798108.921 -1874208.057 -1936599.46 -2009630.733)
5(-1697130.217 -1757644.307 -1832065.046 -1893372.922 -1965066.649)
5(-1657849.554 -1717112.366 -1789852.817 -1850066.812 -1920433.826)
5(-1618496.8 -1676516.947 -1747564.173 -1806664.162 -1875718.466)
5(-1579064.926 -1635825.581 -1705170.59 -1763164.396 -1830920.039)
5(-1539540.445 -1595034.367 -1662691.849 -1719549.688 -1786020.493)
5(-1499915.089 -1554142.59 -1620095.31 -1675837.416 -1741020.265)
5(-1460175.873 -1513143.776 -1577391.624 -1632010.791 -1695890.432)
5(-1420327.956 -1472012.569 -1534549.15 -1588059.832 -1650638.023)
5(-1380349.64 -1430747.862 -1491575.6 -1543967.023 -1605253.884)
5(-1340251.096 -1389355.863 -1448436.252 -1499723.674 -1559734.98)
5(-1300017.522 -1347784.383 -1405163.197 -1455320.81 -1514088.617)
5(-1259650.128 -1306096.889 -1361704.963 -1410763.467 -1468334.777)
5(-1219156.522 -1264247.534 -1318105.492 -1366063.81 -1422446.357)
5(-1178532.982 -1222244.039 -1274345.573 -1321212.48 -1376434.303)
5(-1137824.557 -1180126.961 -1230415.122 -1276220.757 -1330267.568)
5(-1097026.212 -1137866.908 -1186379.302 -1231131.582 -1283999.598)
5(-1056202.384 -1095541.141 -1142240.382 -1185959.501 -1237835.245)
5(-1015384.998 -1053211.945 -1098054.114 -1140779.133 -1192011.853)
5(-974647.2401 -1010865.646 -1053941.898 -1095671.838 -1146744.999)
5(-934065.1457 -968659.8792 -1009871.33 -1050882.053 -1101884.809)
5(-893706.3566 -926679.6627 -966021.8869 -1006592.752 -1057433.979)
5(-853624.3345 -884967.4807 -922384.3953 -962967.3596 -1013260.459)
5(-813883.9838 -843687.1095 -879293.8325 -920018.5755 -969462.7166)
5(-774564.0923 -802855.4509 -836971.4 -877671.6687 -926096.9246)
5(-735772.1898 -762554.5899 -795660.4825 -835847.3335 -883265.4291)
5(-697445.319 -722971.0648 -755335.3529 -794599.7477 -840919.7118)
5(-659701.892 -684292.742 -715777.7545 -753885.5862 -798917.6996)
5(-622589.8002 -646666.5816 -676949.6367 -713677.8413 -757151.038)
5(-586090.5572 -609871.8385 -638717.9925 -673940.0852 -715532.3581)
5(-550400.9544 -573852.362 -600954.3191 -634481.4727 -673797.2648)
5(-515517.1002 -538204.1499 -563564.3194 -595141.0246 -631928.8783)
5(-481446.7711 -502963.0967 -526347.9364 -555802.5344 -589716.2954)
5(-447929.7567 -467963.7051 -489205.8956 -516200.0421 -546925.7588)
5(-414926.3407 -433114.8919 -452008.7143 -476237.7956 -503407.1605)
5(-382204.5015 -398385.1086 -414680.5177 -435795.3325 -458990.4368)
5(-349765.1154 -363730.8577 -377173.2012 -394750.6231 -413585.9464)
5(-317724.7072 -329394.9556 -339670.7812 -353158.383 -367216.2375)
5(-288558.0965 -297938.2305 -306071.7671 -313757.901 -322417.5574)
)


60
(
5(-2562151.166 -2656564.805 -2753456.993 -2839944.775 -2933437.169)
5(-2519502.685 -2608463.491 -2713301.944 -2797426.183 -2894683.126)
5(-2478802.646 -2564427.536 -2671152.93 -2753958.615 -2852179.778)
5(-2438793.743 -2522635.039 -2627820.983 -2709907.837 -2807135.604)
5(-2398353.481 -2481346.051 -2584112.201 -2665638.312 -2760771.909)
5(-2357837.656 -2440161.928 -2540834.264 -2621590.259 -2714461.191)
5(-2318018.411 -2399407.534 -2498324.058 -2578121.488 -2669339.305)
5(-2278758.868 -2358889.194 -2456383.234 -2535037.674 -2625055.476)
5(-2239698.248 -2318519.834 -2414682.512 -2492115.577 -2580999.595)
5(-2200639.31 -2278220.445 -2372912.464 -2449166.781 -2536775.342)
5(-2161576.149 -2237961.411 -2331057.773 -2406202.849 -2492432.627)
5(-2122534.864 -2197750.04 -2289188.087 -2363254.644 -2448084.56)
5(-2083545.974 -2157583.612 -2247374.287 -2320358.712 -2403828.113)
5(-2044617.312 -2117449.014 -2205629.883 -2277502.557 -2359651.077)
5(-2005718.771 -2077328.786 -2163909.512 -2234661.167 -2315498.157)
5(-1966821.977 -2037214.57 -2122180.568 -2191818.617 -2271328.112)
5(-1927914.461 -1997091.197 -2080424.469 -2148953.972 -2227134.39)
5(-1888990.077 -1956948.792 -2038655.524 -2106059.838 -2182911.924)
5(-1850038.392 -1916774.907 -1996848.991 -2063123.336 -2138664.035)
5(-1811064.601 -1876570.454 -1955018.949 -2020153.05 -2094375.642)
5(-1772050.691 -1836323.708 -1913142.842 -1977133.874 -2050047.372)
5(-1732987.905 -1796024.2 -1871209.763 -1934084.937 -2005666.37)
5(-1693876.627 -1755669.859 -1829218.665 -1890975.474 -1961223.449)
5(-1654691.771 -1715248.073 -1787153.7 -1847799.163 -1916706.687)
5(-1615445.771 -1674741.383 -1744998.168 -1804526.052 -1872105.868)
5(-1576112.001 -1634175.376 -1702758.151 -1761132.934 -1827404.428)
5(-1536683.384 -1593486.029 -1660413.796 -1717629.356 -1782600.432)
5(-1497153.876 -1552694.772 -1617929.764 -1674029.944 -1737688.224)
5(-1457536.907 -1511793.644 -1575380.684 -1630311.719 -1692640.863)
5(-1417796.411 -1470780.312 -1532676.133 -1586425.121 -1647473.753)
5(-1377947.54 -1429617.665 -1489824.794 -1542456.737 -1602142.099)
5(-1337957.014 -1388319.262 -1446819.647 -1498296.747 -1556686.844)
5(-1297866.084 -1346896.162 -1403672.385 -1453970.562 -1511074.979)
5(-1257661.323 -1305320.394 -1360354.407 -1409480.484 -1465340.055)
5(-1217341.236 -1263597.759 -1316849.582 -1364842.243 -1419450.9)
5(-1176926.945 -1221767.538 -1273243.021 -1320039.665 -1373414.49)
5(-1136447.782 -1179785.681 -1229454.076 -1275076.812 -1327205.923)
5(-1095932.2 -1137753.378 -1185542.029 -1230010.072 -1280879.284)
5(-1055424.118 -1095634.493 -1141555.59 -1184881.05 -1234619.378)
5(-1014981.435 -1053515.095 -1097535.629 -1139715.24 -1188660.488)
5(-974647.1715 -1011458.921 -1053571.936 -1094572.357 -1143168.97)
5(-934487.7618 -969535.1125 -1009698.715 -1049739.951 -1098101.999)
5(-894572.6489 -927869.0722 -965951.6317 -1005340.206 -1053349.45)
5(-854944.5453 -886497.5277 -922527.3363 -961626.9142 -1008879.013)
5(-815638.7842 -845501.9672 -879591.418 -918544.193 -964768.7435)
5(-776702.7311 -804935.6768 -837418.4366 -876024.9352 -921122.1102)
5(-738175.9312 -764922.7223 -796204.8217 -834082.0953 -878075.1123)
5(-700093.975 -725481.0603 -755899.758 -792739.55 -835579.9912)
5(-662507.0595 -686893.2472 -716461.6816 -751975.3487 -793545.5907)
5(-625473.4708 -649289.2799 -677737.853 -711901.6194 -751882.7256)
5(-589016.0553 -612501.3097 -639638.2052 -672340.2345 -710499.6414)
5(-553315.8944 -576430.3249 -602070.6133 -633209.7833 -669266.278)
5(-518382.5532 -540877.0142 -564979.6993 -594338.3756 -628036.5802)
5(-484240.9061 -505771.3828 -528094.1128 -555539.6856 -586631.6701)
5(-450748.4168 -471007.5832 -491442.033 -516659.7408 -544815.4642)
5(-417793.5521 -436479.1221 -454800.3539 -477545.6241 -502422.75)
5(-385324.5164 -402174.4944 -418118.1923 -438056.6277 -459302.926)
5(-353219.6615 -368087.1968 -381402.9284 -398082.3251 -415330.976)
5(-321663.6841 -334468.5566 -344911.5951 -357769.5277 -370502.97)
5(-293167.7019 -303839.4116 -312841.1487 -320548.8383 -328442.9148)
)


60
(
5(-2559829.194 -2654916.685 -2749898.68 -2836188.62 -2928901.637)
5(-2515638.72 -2605302.363 -2708647.998 -2792949.497 -2889139.855)
5(-2474198.909 -2560548.814 -2665870.516 -2749086.226 -2846119.163)
5(-2433901.898 -2518499.762 -2622249.942 -2704871.636 -2800896.457)
5(-2393298.778 -2477086.636 -2578469.272 -2660570.331 -2754538.48)
5(-2352660.398 -2435799.507 -2535202.766 -2616546.335 -2708290.464)
5(-2312766.578 -2394994.467 -2492706.231 -2573117.862 -2663243.335)
5(-2273458.552 -2354451.062 -2450799.264 -2530104.07 -2619037.601)
5(-2234368.608 -2314081.893 -2409154.304 -2487260.748 -2575083.139)
5(-2195300.993 -2273800.467 -2367467.251 -2444420.517 -2530979.467)
5(-2156246.594 -2233573.839 -2325703.581 -2401567.626 -2486778.729)
5(-2117225.573 -2193406.321 -2283941.03 -2358749.279 -2442578.124)