/*--------------------------------*- C++ -*----------------------------------*\
| =========                 |                                                 |
| \\      /  F ield         | OpenFOAM: The Open Source CFD Toolbox           |
|  \\    /   O peration     | Version:  2.3.1                                 |
|   \\  /    A nd           | Web:      www.OpenFOAM.org                      |
|    \\/     M anipulation  |                                                 |
\*---------------------------------------------------------------------------*/
FoamFile
{
    version     2.0;
    format      ascii;
    class       dictionary;
    location    "constant";
    object      la_i12;
}
// * * * * * * * * * * * * * * * * * * * * * * * * * * * * * * * * * * * * * //

la_i12_table
60
(

60
(
5(0.01394186619 -0.847332711 -1.841615972 -0.003092501965 0.2395583501)
5(-0.05722835942 2.10440532 0.4424194735 0.0009127171815 0.2667285259)
5(0.5472803947 2.030510259 0.8417935224 0.001269080159 -0.337899566)
5(0.8453203908 2.013271404 0.3368970489 0.004450814389 -0.2192299143)
5(0.7103441334 1.833793809 0.07568548412 0.003414434271 -0.06165101973)
5(0.5251154181 1.601498805 1.234172922 0.003038464845 -0.2102297922)
5(0.4247942647 1.659597278 1.362215327 0.003985033082 -0.1864072692)
5(0.5136135713 1.760488625 1.062076591 0.003468566023 -0.2185467486)
5(0.4727905297 1.6637471 1.074175083 0.003279809796 -0.2294036629)
5(0.4782660919 1.613162295 0.865536119 0.003227837177 -0.2089840259)
5(0.466356753 1.566853391 0.774629828 0.003152657199 -0.1955307361)
5(0.4510063639 1.523057891 0.8635677176 0.003119598301 -0.1997103989)
5(0.458825209 1.490230837 0.905166548 0.002859861224 -0.1926430404)
5(0.4300598038 1.416769493 0.8324825011 0.002921705523 -0.1930724589)
5(0.4374260953 1.41799715 0.8413501977 0.002793249025 -0.1890436727)
5(0.4270617052 1.375701593 0.7804951962 0.002618370327 -0.1846415816)
5(0.4173512076 1.337044654 0.7312885824 0.002520185348 -0.1774474278)
5(0.4085754036 1.299542029 0.6854435965 0.002314493768 -0.1676746123)
5(0.4026027542 1.26070906 0.6333035773 0.002208639762 -0.1605386152)
5(0.3879971743 1.167382297 0.5410779112 0.001892930529 -0.1510446785)
5(0.3777052471 1.124181514 0.5079311679 0.001638334397 -0.1411234877)
5(0.365873029 1.080571129 0.4104070777 0.00174343108 -0.1454594119)
5(0.3464544592 1.004962376 0.3459874861 0.001494537409 -0.1323401325)
5(0.3380318498 0.9028955901 0.2531028572 0.001233687237 -0.1214079412)
5(0.3194281706 0.8111809178 0.1532974982 0.0009430249138 -0.1076723166)
5(0.3016146642 0.7317915948 0.009983136326 0.0005248627833 -0.09234628829)
5(0.2794025045 0.6408547919 -0.06883508855 0.0001818047647 -0.07842379017)
5(0.2615464889 0.5433817069 -0.2160842392 -0.0002059327582 -0.0647287276)
5(0.2314200457 0.4054799694 -0.3473827154 -0.0005258396758 -0.0508189568)
5(0.2056477277 0.2523406958 -0.492932034 -0.0007440278108 -0.03980622722)
5(0.1723945646 0.08900922531 -0.6856868675 -0.001253141328 -0.01636993786)
5(0.1388358948 -0.06379243871 -0.8409790162 -0.001595999193 -0.01561610612)
5(0.1063897659 -0.2279815687 -1.033529916 -0.001914826625 0.005247500867)
5(0.0678923278 -0.4167779143 -1.275680161 -0.002427108433 0.01917296221)
5(0.0244548462 -0.596112115 -1.453991114 -0.002812442125 0.0269050333)
5(-0.0154150699 -0.805786983 -1.773906176 -0.003396610007 0.04264288471)
5(-0.06515967926 -0.981346631 -1.85178574 -0.003503825358 0.06689765627)
5(-0.1066054258 -1.195511751 -2.038411549 -0.004281182995 0.05842267285)
5(-0.1562168201 -1.36820145 -2.269816587 -0.004292784961 0.1126448098)
5(-0.2100238636 -1.545785999 -2.52529926 -0.006010330466 0.08702647825)
5(-0.2542886215 -1.695069492 -2.611409275 -0.006073727315 0.0250666567)
5(-0.2858707659 -1.823179408 -2.85383164 -0.004705258433 -0.009852452826)
5(-0.3237088426 -1.910580816 -3.248639607 -0.00235719589 -0.07075244865)
5(-0.3458318751 -1.920446602 -3.625192615 -0.002378043723 -0.06570141737)
5(-0.3687413315 -1.995606603 -3.447657824 -0.002313450135 -0.06578781597)
5(-0.3600541141 -2.072913059 -2.795665079 -0.002212581165 -0.06029510984)
5(-0.3677343148 -2.392869862 -1.664387348 -0.00141352128 -0.05549648895)
5(-0.3920881318 -2.268634064 -1.472855661 -0.001126763798 -0.05156412155)
5(-0.3747243734 -1.496845967 -1.475036404 -0.001133131541 -0.04367888362)
5(-0.6326836714 -0.6044776424 -1.09642169 -0.001196510549 -0.03165461613)
5(-0.2544879981 -0.9711687778 -1.057820375 -0.001344295288 -0.01492414769)
5(0.01030429308 -0.5835122521 -1.057960488 -0.001588560677 0.005036581178)
5(0.0168477126 -0.4263721343 -1.084541717 -0.001925489679 0.03130928271)
5(0.0229088152 -0.3971664468 -1.145188314 -0.002320404961 0.05477384322)
5(0.03841573884 -0.4048237863 -1.234342784 -0.002857162127 0.08784084707)
5(0.03349933147 -0.5172060964 -1.389653044 -0.003478101088 0.1228452701)
5(0.01335007972 -0.7590306431 -1.618105014 -0.004240086538 0.1495260213)
5(0.07121671142 -1.016021527 -2.002785814 -0.003990547813 0.212742823)
5(0.4145862373 -0.3191022815 -2.44461279 -0.005471334388 0.1164631881)
5(-0.0001173071515 7.445404726e-06 -4.603088923e-18 -0.01178634537 1.977815096e-05)
)


60
(
5(0.000301327862 -6.566225146e-06 1.571590543e-17 0.05525157527 -7.784409549e-05)
5(-145.5190894 0.190911726 194.758652 31.21089223 -942.3475249)
5(-25.12446525 -12.99228119 185.1520154 104.6650746 -148.4371025)
5(-21.37324137 9.637550323 61.09182974 96.39816187 -16.1396567)
5(-26.29127435 18.84909694 140.6472413 12.87299988 -21.51238758)
5(-6.167586988 -6.435025283 17.75564295 -36.38488371 18.41128245)
5(14.67628633 5.462320441 -79.07555637 -14.77612281 27.41101979)
5(-3.649603365 6.117343504 -9.988491808 9.337734773 14.40614795)
5(-4.628106819 -12.74483556 5.828785586 -1.72790426 -3.799289158)
5(-6.729609737 0.4812702793 13.95311232 20.62578361 -16.38240209)
5(-5.155958267 14.58375295 13.14492018 15.33107849 -5.019034437)
5(-6.789873874 0.9657392404 26.04507738 8.500247823 9.926363023)
5(4.001025031 9.454839002 12.06610698 -2.760566936 10.16155156)
5(-4.821765359 13.0886684 13.01274648 27.43845966 5.794177736)
5(-3.39569416 4.800098423 5.710754053 11.17401268 10.89699287)
5(-0.8837522249 13.89723034 13.62413221 12.69532238 9.985425516)
5(-1.896824669 16.01721313 23.99827422 29.25794156 12.84979311)
5(-4.67379083 25.10668201 24.09487355 23.01378453 11.80902171)
5(-1.920138019 12.54134859 24.20530774 25.91511985 22.15998464)
5(2.176135807 23.29687487 28.16569588 37.69876895 30.50908044)
5(2.397590955 30.08520027 42.36436404 37.79718759 29.90000765)
5(-2.943662554 36.72370527 35.86197004 54.8325954 30.41644463)
5(0.1334799467 28.18092983 41.90574607 54.28629755 41.40130506)
5(3.142973623 38.88001592 54.86343839 36.34455697 47.3005637)
5(6.237190811 44.99110081 28.5586389 47.73570663 49.88518959)
5(7.586375779 62.98652275 74.26716783 56.3933265 60.11932457)
5(15.67004868 46.36448478 71.09289206 67.70127561 55.8563316)
5(12.23583595 60.05208629 63.50568781 77.12027481 62.66377109)
5(15.21228445 67.38592837 83.33570639 75.121159 66.05701241)
5(22.5633172 66.06036175 79.38563794 86.29206566 73.57762311)
5(27.30254698 74.71097762 91.12330751 81.16709242 74.589073)
5(27.62606638 77.18049124 72.78598233 91.46016098 83.36220158)
5(33.70988311 77.99755437 83.04973109 80.4017352 75.52161302)
5(30.82045775 82.03985711 77.87677323 75.4530116 78.65945827)
5(36.89479844 75.69403391 72.77631969 64.84402501 79.29329422)
5(36.62653659 87.98932699 84.52449846 85.94240179 73.13338804)
5(38.35424397 76.08303356 95.24414394 48.0612256 65.38735391)
5(42.41881457 74.73195551 53.50769532 32.13185061 66.49349374)
5(47.95415535 49.27037506 34.30975542 45.72622239 68.30458433)
5(45.96925739 74.63350451 55.50585488 21.87681594 66.87497705)
5(36.43427284 16.46087654 21.42663587 31.60874756 53.38226666)
5(33.38618892 57.23512404 43.68012827 6.56610214 36.84308789)
5(36.98968683 38.51589281 1.252346446 -62.75452232 28.54886461)
5(48.70045831 -16.81333496 5.091093281 -18.73979952 22.81743814)
5(52.05049841 20.88020637 2.662747515 21.04997257 23.21202809)
5(56.26005006 30.28453622 7.141143873 49.05429382 22.33774475)
5(58.56134732 46.49753152 -45.74648991 55.22949022 18.17104023)
5(72.23532301 -1.625229651 0.1897990311 55.1290489 14.09440996)
5(80.94926351 16.38215301 40.24815352 47.04054323 13.07029244)
5(82.86951158 -25.02589286 54.4206975 51.42504874 12.29277483)
5(73.39931824 30.18664023 57.10008256 41.2980663 13.19381393)
5(57.57886565 48.12076717 44.94897814 33.86950382 12.43187929)
5(39.89432013 55.36839741 42.88403281 27.31531354 12.96701078)
5(26.16557823 36.83848963 33.95788379 20.5425282 13.78447153)
5(16.97523622 35.5648006 26.79175637 18.61108734 15.8784588)
5(13.25752626 26.513643 18.97147573 15.09036493 16.0554928)
5(13.40172012 18.08335108 15.84165777 12.0935405 16.89653389)
5(5.452477583 9.985228861 3.195056988 10.61446661 31.20388771)
5(-4.539090053 8.431519829 9.962233983 16.24520223 2.244145084)
5(0.02465571195 -1.026916707 -0.9377367425 -0.8550169341 -1.952572844)
)


60
(
5(1.164733624 4.61789065 4.138737818 2.410839641 0.7624270543)
5(-12.51847961 4.245452471 73.83669235 37.46915819 -411.1854014)
5(38.37457 2.470009391 46.47335001 28.32330386 114.3465002)
5(-0.7415293046 3.535031197 10.85812328 15.2051954 1.5981159)
5(9.132409437 2.675352534 9.042425365 14.05460241 29.38884694)
5(-4.490169161 4.149416807 -0.933225447 -11.74710463 -11.04293812)
5(0.8537282072 -4.112414565 -1.574848939 9.47106639 10.56971759)
5(-11.45965395 2.246778975 1.971306124 6.868602981 20.70112627)
5(14.10459777 6.78932965 15.12697313 13.193644 -20.15860621)
5(12.42531386 6.770269015 -1.13287462 9.406060044 42.94517174)
5(1.311871801 9.835650324 16.88386363 19.14216309 20.06679772)
5(-9.628499795 -1.740473819 10.35627354 12.91181543 17.54087195)
5(20.14257971 11.9525499 16.46760877 19.48919334 22.56813873)
5(5.321418673 16.52703612 12.57947787 23.59981034 30.852632)
5(26.96343468 14.7168917 26.91645082 24.5107766 34.61845714)
5(-14.14304208 19.13355272 14.37248083 23.10474646 27.97910066)
5(28.23449506 14.39612955 32.02626952 36.7133408 59.69360608)
5(19.3497495 19.85791771 20.84861015 44.38152475 36.25487676)
5(17.21831031 29.24594274 45.1764084 41.51950184 48.55107304)
5(41.5381295 25.06035541 37.0345248 53.84558236 48.33547036)
5(-2.942401163 33.21254992 52.24228433 60.16154858 94.3832833)
5(50.03985674 42.31436707 38.54006465 49.14167949 53.1363669)
5(32.88511143 45.54735838 60.94891844 78.94134863 77.65663513)
5(50.76287507 51.18817745 65.85662564 75.59947314 85.6796245)
5(29.81219904 54.8480458 75.69023953 80.45284381 109.4701013)
5(60.03150093 67.45802766 78.25001597 84.80005409 69.39892837)
5(77.10760002 48.94612021 62.29058078 81.05402597 114.8235354)
5(24.2839301 80.93063618 95.88310139 109.8544857 86.34417489)
5(98.396289 66.91911211 83.91545151 84.36148096 129.3202714)
5(53.26176886 65.35716994 88.84950096 107.6329697 70.39174817)
5(88.27522653 96.00164206 104.6031316 105.5797596 123.579444)
5(82.88135464 84.28063871 82.32377094 95.14719374 101.09826)
5(87.39987217 60.02760479 103.9860669 94.77497064 105.0193049)
5(94.70589493 97.49119551 104.4777919 101.8950223 86.45950137)
5(127.8590764 79.04838055 69.1983428 98.75371686 86.64954313)
5(52.35572157 81.31873768 96.9566719 87.91054743 97.1663112)
5(69.2003979 71.3433176 83.06923499 74.4085614 57.73752458)
5(107.6120481 73.06822847 74.4527788 69.02149027 75.46215188)
5(80.98895798 70.80573227 76.15341115 70.34301076 61.11604399)
5(90.58151039 39.49599831 46.54297958 59.92116205 38.12723438)
5(43.43892652 42.76304988 57.89478102 48.96714224 47.66082105)
5(74.21309743 43.82680791 47.94819246 59.44846417 39.48636717)
5(48.73517531 37.90368526 49.29303321 54.07058959 49.27305602)
5(49.25908333 47.31303866 53.10216472 42.40380697 28.09951065)
5(44.65694937 24.73416489 37.82306273 54.97417598 50.69934077)
5(52.80976712 42.57421101 67.32099701 50.60037953 42.52473949)
5(54.02831019 62.92853044 74.63973063 53.98538513 43.13927015)
5(62.47379525 76.69286282 72.67355774 60.13507859 44.85503751)
5(70.12110157 66.85373243 63.51677873 56.79361565 41.16914243)
5(83.19883459 90.64352827 70.05185435 50.86537382 36.9155291)
5(80.62290655 76.84441261 64.48301299 46.81335713 36.92524169)
5(82.02482663 67.19647914 55.9361377 42.82486441 28.00474213)
5(69.60348913 53.92974997 47.55080043 35.94080899 29.15778068)
5(57.08633944 50.85182037 40.06279958 29.17650778 20.72045617)
5(40.86222616 36.51112244 32.64237268 27.64989113 22.9109014)
5(26.69456462 27.55869046 28.83361432 22.05053981 19.8660511)
5(16.00767239 21.31452075 21.7876437 21.23974554 19.1161764)
5(9.395265792 13.71994433 11.99671178 10.12525109 18.98021367)
5(-44.00898264 4.666268951 7.877476695 14.47484717 20.15854313)
5(-8.240936584 -5.428613837 -5.970459698 -5.277154874 -4.254939045)
)


60
(
5(17.69804065 16.71995647 9.960904128 6.002694456 4.903709988)
5(50.47730216 -2.364251296 61.72961711 40.71214703 -17.92852177)
5(7.436395058 2.264875523 26.03225699 19.95873235 50.93615268)
5(10.35404113 9.103131125 11.54549428 12.33230781 31.79193772)
5(2.347316967 9.074184079 1.530179886 10.79702246 13.0374891)
5(-0.4089945264 -1.648541619 1.721776069 11.85148894 8.560352787)
5(0.1475837116 8.817740246 8.905427449 12.79546875 16.46065311)
5(12.45728298 9.79255369 9.846948721 9.955857802 30.68103122)
5(1.240524618 2.041050892 17.65637626 19.90649313 7.98166103)
5(0.04674623339 15.541577 14.68284857 27.54993176 42.63521775)
5(20.42975619 9.670226018 19.85239408 26.12136292 17.38996997)
5(8.601674205 17.09121544 19.65988031 19.14680635 35.56372013)
5(-3.499061869 16.31785262 20.61228644 30.10769077 58.14990173)
5(11.92470835 21.70159873 23.25351457 42.73147002 8.26559431)
5(28.82148644 16.60042199 29.4149687 38.65375593 70.27513512)
5(29.00396635 28.79147345 40.58573191 39.21675227 45.53330309)
5(-6.425261411 34.92113295 48.51707926 62.49008178 64.05202307)
5(54.46155155 28.57898623 39.07353108 55.74405279 84.19074635)
5(4.092270286 46.05228447 61.88581018 69.88538387 55.61211644)
5(46.0704765 49.63595488 49.13864459 63.92400343 88.52232161)
5(59.36951341 37.70327712 73.85318742 95.82971359 122.4724039)
5(28.19046915 69.50715321 81.16031885 80.35634186 71.60232013)
5(14.71950912 70.33331338 93.66088736 105.0931824 121.2585818)
5(90.15943939 74.56080681 70.35388473 117.1563133 81.01088275)
5(64.09988222 67.09568436 107.5994155 117.9050633 170.0912402)
5(69.31262365 94.21443973 115.9886556 125.0375902 132.5005984)
5(81.04547099 99.61571099 117.5270636 131.9460452 107.7898168)
5(83.06043747 105.9579012 124.8301095 142.2919502 185.6747074)
5(90.95972612 111.3913826 131.7897197 130.7243666 86.07563229)
5(100.6530284 116.8051773 138.9739472 152.3594495 199.1004628)
5(104.8637564 121.9366557 149.0645688 149.4004426 101.9931919)
5(110.1395911 123.5410542 108.930404 150.7590085 171.6899158)
5(115.3798295 127.6451825 154.8216629 132.2731426 115.5174953)
5(114.355037 125.2216467 147.7198052 146.3203318 186.1447308)
5(123.7125423 124.7625991 135.9670236 140.7405781 65.34764513)
5(130.2635191 121.1902515 139.7863772 131.5456677 149.2605909)
5(119.3948228 121.9042114 104.977775 127.9664524 129.5192514)
5(112.5954954 111.7599809 124.980409 112.8215916 56.85382472)
5(111.1714647 105.936229 112.8876885 98.49759089 130.9990374)
5(105.5509395 99.92591096 94.93296167 89.17709154 39.09234101)
5(104.4580436 84.28133123 90.48839776 90.5538132 77.84392121)
5(78.11090565 75.60788994 81.22333281 75.47439497 79.60616064)
5(79.91591981 68.20549533 67.66857105 74.75961514 55.79430553)
5(67.17576926 64.52671383 68.56787757 72.6643997 60.28388973)
5(74.17370478 63.99932087 83.78202914 76.52727969 58.05774355)
5(75.14637887 63.76801743 75.26033241 73.28533595 72.64197157)
5(71.38202325 75.28508412 95.64260994 81.96212265 76.52048069)
5(96.7247204 89.20569388 93.35635324 89.41380959 65.23018686)
5(71.48793358 103.4165835 100.9360288 93.2696632 76.51690847)
5(109.1605156 111.612559 107.698104 92.55674572 63.7621769)
5(104.0233126 106.5502154 103.7088962 76.59654743 58.02404743)
5(89.40473862 98.91095913 91.68540883 75.20115636 53.25243659)
5(92.91562763 89.56228457 77.86621284 58.78251704 45.89757239)
5(73.15002423 74.27998963 64.42184717 50.39110826 37.73173112)
5(51.09582625 51.45676239 51.06375411 42.90083018 33.75471945)
5(26.07585957 36.83269739 37.04259508 33.59539719 30.99704552)
5(9.832855893 19.94911612 29.47374553 31.80686001 26.99891013)
5(-10.57182236 3.875912684 14.58520105 15.22020609 25.93216531)
5(-60.10677646 -13.84322946 -3.558394258 10.46417921 18.20153209)
5(-19.51108777 -22.07755441 -15.97928098 -12.14125434 -9.012244449)
)


60
(
5(31.30278998 15.5668822 23.82026573 22.89097016 9.474214953)
5(16.83503816 -8.919361044 60.62084992 41.38324777 20.40873265)
5(3.224763279 10.88887248 25.12068142 26.09353304 39.73338176)
5(5.166291049 11.46015161 9.604839295 14.66224526 32.82600924)
5(4.79609506 10.11277701 4.212128126 14.70935274 28.67180812)
5(11.84515617 7.679351389 5.325238237 16.98256218 26.38691888)
5(-1.042107755 9.174531968 14.4465166 17.14757067 14.53726998)
5(5.552201557 9.552314034 14.61142177 27.50638432 45.6337299)
5(13.56286941 17.68804508 23.26397044 25.23062475 25.55358468)
5(0.709989683 7.044964734 21.36289466 33.94193079 45.89962523)
5(23.93478737 23.86823423 27.94805549 30.70246418 33.83528651)
5(4.374896955 19.63816111 25.59220095 42.92907987 57.25511097)
5(41.85618347 16.85606844 37.94650562 39.79825407 38.75568335)
5(-26.09577869 30.32009272 33.63216809 51.99517456 76.02146297)
5(31.69728744 27.78112623 47.92344332 54.12536843 59.97092686)
5(44.04874383 42.34295014 35.71117841 64.86031765 63.3965649)
5(18.33124085 38.46416589 57.10690006 75.3887106 82.95221463)
5(34.54446658 44.88730812 70.74382466 61.69598079 92.63953127)
5(43.65324092 59.37838999 69.87300952 96.55777414 106.1890351)
5(39.96277097 57.36354237 77.84163153 99.058107 98.00006219)
5(47.33383777 65.82801017 93.96952845 105.0184764 150.9691267)
5(71.94752791 82.09519496 97.53533464 123.89602 99.37385985)
5(65.67382728 88.33238134 106.9183618 126.8061435 169.336712)
5(61.64032779 97.83735622 121.8676203 138.3355362 119.6861701)
5(79.43868568 109.3612911 137.3842222 151.3846726 190.0947749)
5(86.87418244 79.79395806 138.1090549 165.5186317 151.226093)
5(114.362169 136.1863203 142.2903142 165.9406419 175.7697094)
5(107.3855126 132.9177624 156.1576611 175.4400897 202.2919866)
5(108.0832126 137.1992009 169.4106177 178.9798356 183.1230922)
5(118.4122279 143.2483916 177.4154625 188.666629 182.2064731)
5(124.2843022 145.61092 172.1147219 192.5673748 233.1692609)
5(133.1520885 157.2495766 178.9860139 186.4235599 95.98694103)
5(146.3957215 167.993234 180.0667332 182.5573058 233.8472257)
5(159.8787582 161.6476569 171.3114154 180.1453211 172.7377355)
5(146.0071407 160.446674 178.963381 178.4529161 165.5410363)
5(141.1838587 152.704036 183.3393862 175.9969234 165.7261234)
5(146.8646989 153.6924399 166.2554315 166.7165971 166.788867)
5(148.2283253 152.8663053 154.8961202 148.4078927 120.8532387)
5(144.8615193 140.9084523 137.9031953 134.9267742 125.0153835)
5(142.2917965 137.5944868 134.8756189 133.710497 128.6421332)
5(135.0123423 124.1236196 123.1667272 117.3034334 96.91672446)
5(133.0071321 114.5668973 115.7693964 106.4470459 66.67630406)
5(123.0286613 105.5468771 98.97532252 104.1187704 97.40122605)
5(116.4200976 93.7297732 100.8696215 94.68967158 82.33616473)
5(98.53734123 92.42043166 92.42047754 98.81234251 92.2275336)
5(119.6065363 93.88129185 107.3957263 93.99530945 83.11315463)
5(101.940302 99.45507075 114.9982052 113.8967412 97.02369988)
5(121.2182888 115.6679727 120.8652223 106.4105016 103.8346827)
5(112.3509666 124.7751523 125.983765 131.0002682 104.1641041)
5(111.674283 127.8568235 138.3227058 126.8851116 107.6799663)
5(117.1492401 133.4512598 140.4150043 122.3680932 101.553192)
5(112.1929785 123.9663632 132.7461135 110.770215 75.75499465)
5(101.4023548 114.5130418 114.1055321 95.03828621 82.26343183)
5(81.99598296 91.00122823 98.66601329 82.16645348 57.69173753)
5(66.71369806 68.00107783 69.15327134 65.34976841 51.23557917)
5(28.31667211 38.44712674 47.24614175 48.81728593 47.73782815)
5(1.88161353 8.795570758 29.69212439 37.03784944 35.77291097)
5(-23.42972401 -14.93207845 2.402941827 17.3486091 32.61310772)
5(-90.91449946 -43.44442932 -26.65081784 -5.277513659 10.13609899)
5(-34.00822361 -39.84702814 -34.73948021 -28.00794918 -20.94477893)
)


60
(
5(68.38706492 68.0862415 19.66660068 18.02060118 8.310972408)
5(12.49676042 -20.34457884 59.1169018 48.07088844 65.7233536)
5(9.281951328 8.73572571 25.56933014 33.46810569 56.57734236)
5(9.262925025 21.81784975 11.76327228 21.59483598 29.41177763)
5(3.436066298 21.42748287 8.683059157 23.48294938 30.4851419)
5(1.304439389 7.49020012 14.14452208 20.76151199 50.80577098)
5(16.3060947 9.995973052 13.37008741 26.57881884 20.61203444)
5(2.982915141 18.62073124 26.92095377 35.02170619 59.65381323)
5(14.19235155 13.78063092 25.30863823 37.55754504 31.11972868)
5(11.91077423 26.16495885 35.42364872 41.43675479 69.92169983)
5(8.905099924 18.60999462 29.45880984 44.41074697 37.07991663)
5(29.03217923 29.40251345 39.49413913 49.76580827 78.4076366)
5(6.177318986 27.6103073 39.22466088 54.16793967 46.56206861)
5(43.23675491 34.99757927 50.10803111 64.06898325 97.19634472)
5(12.06828775 38.59705287 54.29729861 67.35705338 61.02950738)
5(32.36710463 41.78809709 59.98179422 81.92733392 115.9294343)
5(47.50085052 57.65757238 71.56198609 85.71620184 79.21031505)
5(21.88077376 54.5185811 74.96001736 102.6201879 129.9576642)
5(68.68926092 67.42692407 92.30942674 105.6009423 115.7434087)
5(49.08181214 76.4354346 95.87910504 118.1515312 130.0670012)
5(42.61719692 78.9694853 105.2865218 134.7025525 166.5302461)
5(102.9629273 96.54989384 130.0186543 141.0094061 145.7670817)
5(65.31689864 107.4354134 128.515752 161.8722798 184.4791593)
5(74.89488724 111.1635641 141.5802934 171.9152416 194.8981597)
5(113.5572854 127.8041372 165.1678081 176.106087 175.0619379)
5(112.3628877 143.0441244 164.3429792 195.4864486 219.4700136)
5(98.75450077 144.1199351 177.1085076 208.5268913 221.4867522)
5(123.4940257 149.3641548 188.2574113 210.5545694 212.968004)
5(155.5501597 167.1629999 206.4090389 218.2349436 220.4484421)
5(153.0551169 183.2783811 205.5320664 232.2875183 260.1183052)
5(143.6449156 179.0693838 208.0150956 230.720002 226.8294015)
5(155.181134 182.2664669 212.8976203 231.8732492 226.7388107)
5(154.0515967 184.2113051 224.5105996 228.444791 235.0866002)
5(184.0485485 201.6657928 217.634071 226.8456857 222.4463162)
5(184.5997888 205.1971882 211.8408502 230.5543338 215.2185456)
5(180.983338 195.2329099 211.7941094 216.6670155 196.4295269)
5(183.7404832 194.8921019 210.5002667 201.8043633 198.8493647)
5(186.2784311 185.0247718 206.29062 201.6888032 198.6526162)
5(184.1488873 180.2517716 192.1139225 196.576881 155.5758168)
5(183.3797548 179.9920083 175.1922309 170.191619 162.2100596)
5(185.595409 165.7492706 169.2036625 152.3563157 121.1717289)
5(178.0982425 159.1668812 151.0207062 153.6922033 132.7003011)
5(169.315482 156.6279855 151.0346741 142.1346211 107.172388)
5(169.1937308 141.2980041 141.0416363 127.081207 121.8263175)
5(165.4838201 140.8226755 138.2792491 130.1707186 96.41794134)
5(168.9714068 143.0430598 139.9330465 126.0814249 116.193773)
5(144.6099196 145.6848886 151.2019624 132.8679092 135.8958238)
5(151.5614932 148.7275334 142.0018072 146.0111514 119.6291448)
5(145.7320005 152.7036861 167.6900423 156.1419089 142.490295)
5(128.2616462 155.0884176 169.1869017 167.2828134 141.5573449)
5(145.5522387 148.8354188 171.5685531 166.0085044 153.0238746)
5(127.968067 136.4885131 170.4811613 160.8126949 125.8681466)
5(142.4547878 137.6178502 146.9366319 148.0048642 121.6627044)
5(98.3250154 112.7765626 126.4494726 114.2727229 92.80238347)
5(105.604341 84.80357403 88.58148005 94.035503 78.53806657)
5(43.25184048 56.43016406 61.29858438 67.85095476 69.74752512)
5(28.03029672 -3.281086399 10.88357792 40.67971792 48.96021935)
5(-12.99512078 -30.5345897 -22.82374094 9.799732419 34.8167345)
5(-76.19149845 -72.19670748 -66.42810385 -37.08784083 -7.73239735)
5(-12.91488269 -50.53036678 -61.2820549 -54.1860085 -45.8967119)
)


60
(
5(122.9381174 89.02169403 103.20815 73.40550795 48.65787749)
5(-6.514417495 -32.140018 61.19757803 53.17957137 86.19011862)
5(20.51423859 8.574969611 31.46756133 41.25921656 49.36595397)
5(4.107823107 30.63062672 15.56434837 32.38090695 66.69117432)
5(3.569430809 31.06881259 10.46480858 27.73234268 37.40403771)
5(4.443519946 10.1954141 20.53641904 33.40772472 39.45597753)
5(23.21366229 16.1967888 19.55262672 33.51606151 71.08069243)
5(-8.093128803 20.195394 33.78632152 47.00909971 38.15317291)
5(39.8794946 20.50698008 33.41286382 46.58855499 71.32688341)
5(-5.722236422 27.16620063 44.5582598 54.32014485 57.30751779)
5(37.03190821 26.00675599 37.48523747 53.75635943 72.14277563)
5(4.893530139 36.04415646 50.32028139 63.43674071 76.59039579)
5(37.08841552 33.0492073 47.39829557 66.87672967 77.90712287)
5(22.78912419 48.25426172 62.76507342 77.93625001 98.28157344)
5(33.32961025 43.55070243 63.46302694 81.9146876 94.5367577)
5(46.28064289 58.92212766 76.76499706 96.91408553 113.4449707)
5(23.14265612 59.65467712 80.79908753 102.6538407 123.7363449)
5(82.81553218 70.72129039 93.97352372 120.5476727 126.2611964)
5(26.04890692 79.26900017 104.0125516 125.1519623 161.9294678)
5(87.79508042 84.12821314 113.394679 145.4942472 134.4553713)
5(65.63717145 106.0319719 136.1011775 152.3681748 214.8631224)
5(57.02423578 107.3277386 138.1639088 169.5185595 154.6369149)
5(144.8184901 122.3258148 155.2899371 186.3594419 227.7725883)
5(72.97107779 135.8635949 171.6030564 198.5834888 214.9466196)
5(96.57446837 137.2417904 179.1576123 218.2267395 215.393752)
5(169.0810265 162.2560962 203.7834882 223.1761408 282.8215529)
5(121.6265469 176.0811574 214.0139667 229.9113214 230.0228671)
5(117.4278584 175.1995272 206.7313867 255.8429965 254.6206458)
5(183.4399636 192.0148082 235.2412447 263.7290757 304.1178628)
5(173.5082666 214.408975 246.6614692 251.0290614 266.1891188)
5(162.5877407 205.7038178 242.2385973 272.8927065 268.1171043)
5(177.2461465 211.3156247 251.4199891 284.1255957 288.6539222)
5(218.9020981 227.8997307 269.6746839 271.4672938 287.2572123)
5(199.1895296 230.720918 257.7440924 269.4735872 261.5564854)
5(207.7123257 228.2755323 246.0745443 278.7452254 260.8454932)
5(213.2926649 234.6077858 257.4123886 268.7873352 288.230774)
5(211.5623256 232.1508415 261.9134996 246.5464077 226.273812)
5(220.0378402 238.0494488 246.9876889 243.8813932 221.9663595)
5(221.5673211 231.6553671 240.2663067 247.7748682 245.652855)
5(222.303601 227.4112364 231.3150516 229.4417264 194.5453384)
5(230.6286307 219.9312498 225.027837 210.1282459 192.1004324)
5(242.3300276 210.9822837 217.0581096 202.6909448 157.6433339)
5(240.0434768 213.677265 196.9609408 190.7590313 159.9045)
5(237.7111506 210.384303 198.3323866 180.4208169 142.7606709)
5(227.6438899 205.2040967 196.4043076 174.6546771 142.5966376)
5(216.8079124 201.9489573 198.2931159 169.0205793 142.4392098)
5(205.7641595 205.049252 203.509121 173.1326626 165.8383384)
5(211.5741342 193.1451128 201.3521014 185.6444083 156.8532193)
5(203.0809241 189.0638855 205.7551263 197.8023482 165.3480125)
5(161.8536515 180.3600024 207.7446795 205.9642869 201.6798476)
5(183.057615 182.7205919 205.4914121 208.431924 186.5659154)
5(142.1023195 177.6502732 197.7160646 213.7131059 199.9592826)
5(147.8874264 159.3025715 173.972854 180.0569033 163.0256063)
5(138.1640326 146.3509088 157.8340046 167.5403071 157.9834794)
5(118.2940568 108.3535933 111.4524306 122.8812152 119.5808556)
5(119.5962174 89.05020285 57.94850036 85.86267705 86.30646559)
5(71.05416738 37.76299716 14.41621246 34.12697183 63.89835996)
5(42.31993596 -2.05396099 -42.70293415 -20.44188797 23.53233569)
5(-33.48657397 -56.50839192 -99.79421232 -88.8341594 -45.89085122)
5(-31.54428104 -20.22846735 -72.65753484 -83.58033628 -72.17608828)
)


60
(
5(198.6884818 279.6876871 184.0876563 69.2742242 8.305005255)
5(-36.42157322 -42.08101406 66.71055344 58.74847503 105.0358538)
5(6.982372165 14.00704753 33.04079499 48.67592884 56.57363481)
5(20.23115145 44.26228083 25.591461 40.87402488 77.42965667)
5(16.26966595 32.09986253 21.65042178 43.63329675 48.28165798)
5(0.9854017429 19.18023576 18.15015069 37.27604394 63.01268347)
5(11.42011809 20.28855192 32.43847633 46.89321515 67.68872275)
5(20.90108181 24.75203181 35.06862448 52.7222892 71.47049478)
5(6.725466229 27.7321301 50.04758735 62.40544307 60.40978418)
5(33.54563657 31.87673691 45.57992163 61.4389593 101.1471224)
5(6.96154092 34.1280964 54.80184831 72.61741388 53.07362177)
5(45.98050951 38.44442157 51.3090745 71.50998361 130.4904402)
5(5.055982364 45.06049838 66.19756631 83.66114808 60.72465109)
5(66.18783912 49.25129954 65.64679658 88.4423255 141.6795392)
5(4.844932329 58.21367245 82.63881377 101.8681324 91.94399455)
5(87.68760776 62.94638567 84.73673427 108.0687073 154.4933069)
5(8.876249256 75.05806229 100.9244141 124.3344037 125.1561943)
5(103.1722752 79.24612528 103.8712819 131.8367382 175.8728251)
5(33.63696481 96.99812367 127.4311017 150.7378356 138.3138535)
5(94.73761839 96.07053438 130.6304995 158.5657122 223.2229911)
5(82.18292167 122.1570496 151.30421 183.9849977 157.7387006)
5(80.15459486 124.2017296 159.3856948 193.2711541 283.5564597)
5(134.6017032 140.8429379 177.1607367 214.5935586 177.585816)
5(78.85535022 154.2555842 197.7475897 225.5993716 287.6868649)
5(168.1305396 165.382881 202.071062 237.4979053 250.1335023)
5(125.1305034 194.6071471 230.5533581 261.8675425 272.6244035)
5(131.8263038 184.8225542 234.6811827 274.0118944 326.0871461)
5(224.236566 197.9431768 246.682149 291.4626472 286.3667056)
5(152.7641295 225.8155989 272.7848441 289.6537133 307.6979324)
5(159.8980098 231.3182843 272.0875908 296.5838334 343.8021399)
5(241.1800258 239.091797 282.9020841 319.7621448 290.4033588)
5(215.698331 258.2250511 296.9520165 316.1414502 337.7784118)
5(205.5439128 255.5347401 287.9167493 311.9964765 347.836009)
5(221.2579129 257.8952938 299.0838944 329.6682521 303.6709162)