/*--------------------------------*- C++ -*----------------------------------*\
| =========                 |                                                 |
| \\      /  F ield         | OpenFOAM: The Open Source CFD Toolbox           |
|  \\    /   O peration     | Version:  2.3.1                                 |
|   \\  /    A nd           | Web:      www.OpenFOAM.org                      |
|    \\/     M anipulation  |                                                 |
\*---------------------------------------------------------------------------*/
FoamFile
{
    version     2.0;
    format      ascii;
    class       dictionary;
    location    "constant";
    object      la_i9;
}
// * * * * * * * * * * * * * * * * * * * * * * * * * * * * * * * * * * * * * //

la_i9_table
60
(

60
(
5(-0.002139985169 -0.01201778312 -0.02658843169 -8.707461226e-05 0.00727877187)
5(-0.007838505373 -0.01626690926 -0.02112937343 -7.131996842e-05 0.005080507973)
5(-0.0006801044594 -0.01216273564 -0.02176038866 -7.467534932e-05 0.003020077085)
5(0.007690335599 -0.004832357032 -0.02498327293 -8.009801698e-05 0.003871350187)
5(0.01812311128 -0.001936193693 -0.03038789396 -9.879081616e-05 0.005530778674)
5(0.02968838973 -0.00465257142 -0.03547158441 -0.000122977847 0.005869196446)
5(0.002235336169 -0.03445553564 -0.04202973312 -0.0001421280802 0.007344908878)
5(-0.01332736161 -0.04048149797 -0.05231440878 -0.0001737603611 0.00851290539)
5(0.02876531033 -0.01959521812 -0.05961003977 -0.0002070795127 0.009741797585)
5(0.05141410949 -0.009599583739 -0.06873123378 -0.0002434987672 0.01178958295)
5(0.06642018663 -0.002870998739 -0.08191910694 -0.0002821012058 0.01404046875)
5(0.03495355343 -0.05126235529 -0.1007802436 -0.0003366135287 0.01616639392)
5(-0.008619572263 -0.09448392592 -0.1196223335 -0.000396199127 0.01867893822)
5(-0.01625133364 -0.1113139616 -0.1406466747 -0.0004565128703 0.02143885112)
5(-0.01986684557 -0.1369411991 -0.1653399392 -0.0005313414777 0.02454197955)
5(-0.01974016078 -0.1340670145 -0.1817290727 -0.0005900545704 0.02737024538)
5(-0.02191193941 -0.1538210746 -0.2024750235 -0.0006743058234 0.03138035072)
5(-0.0288939822 -0.1861292952 -0.2465557966 -0.0007915712641 0.03646080003)
5(-0.03634969113 -0.2276416088 -0.2907117424 -0.0009123223268 0.04102027577)
5(-0.0425099071 -0.2739425259 -0.337226443 -0.001043594806 0.04586940982)
5(-0.04966241604 -0.3181833994 -0.3877104323 -0.001187048812 0.05242175698)
5(-0.05783529454 -0.3680865062 -0.4434432355 -0.001348294009 0.0598861774)
5(-0.0675057823 -0.4252643111 -0.5093551659 -0.001536923163 0.06814100104)
5(-0.07849147933 -0.4918833598 -0.5864246912 -0.001756136681 0.07761065544)
5(-0.09121442945 -0.5632437993 -0.6718625763 -0.002000320466 0.08813793629)
5(-0.1062276824 -0.6360721032 -0.7674253385 -0.002275448495 0.09997000567)
5(-0.1228329485 -0.7288706852 -0.8766969452 -0.002579864313 0.1129798641)
5(-0.1405514749 -0.8448632411 -1.00086009 -0.002916070228 0.1272145101)
5(-0.1619330358 -0.9661510087 -1.136043765 -0.003282863197 0.142698764)
5(-0.1858091407 -1.098270633 -1.284982205 -0.003684785728 0.1595321518)
5(-0.2127564195 -1.24411707 -1.450081977 -0.004116190212 0.1769439329)
5(-0.2424357644 -1.403111742 -1.62809468 -0.004583683149 0.1966382276)
5(-0.2750296874 -1.575085416 -1.821112113 -0.005080562353 0.2159740996)
5(-0.3109601806 -1.761331133 -2.028798999 -0.005605394027 0.2361009036)
5(-0.3501005798 -1.961783719 -2.249830907 -0.006138079113 0.2582854661)
5(-0.3924609159 -2.171606558 -2.481456152 -0.006698182234 0.283103707)
5(-0.43741376 -2.394266485 -2.723521258 -0.00731290896 0.3033361143)
5(-0.4852231911 -2.623495346 -2.976369255 -0.007908214665 0.327688568)
5(-0.5352506319 -2.859311824 -3.233652772 -0.008521750975 0.3138259533)
5(-0.5864157827 -3.096469216 -3.490831541 -0.008605762591 0.3561330516)
5(-0.638088011 -3.339711845 -3.750036707 -0.009203285023 0.4019380395)
5(-0.6900915979 -3.57823414 -3.951968841 -0.01051102428 0.4407337695)
5(-0.7421322738 -3.823679547 -4.11832231 -0.01181297782 0.4895247107)
5(-0.7923661973 -4.038541093 -4.331036716 -0.01244170919 0.5116566457)
5(-0.8408409938 -4.272397026 -4.589359699 -0.01297022587 0.5302662096)
5(-0.8907615477 -4.489341127 -4.933458205 -0.01347603425 0.5505987069)
5(-0.9404010845 -4.702964943 -5.360462451 -0.01394570304 0.5668366754)
5(-0.9968360693 -4.997569196 -5.55329055 -0.01431607292 0.5789014202)
5(-1.041031652 -5.189025759 -5.731403807 -0.01460873947 0.5872138659)
5(-1.150111773 -5.436689028 -5.829184239 -0.01483510912 0.593349658)
5(-1.148537326 -5.669423492 -5.920976449 -0.01498583462 0.5966435658)
5(-1.150501759 -5.703241366 -5.997033845 -0.01505910597 0.5955207074)
5(-1.184663538 -5.759745461 -6.052245267 -0.01505924595 0.5940054472)
5(-1.217903025 -5.829431209 -6.083095093 -0.01498653093 0.5861117526)
5(-1.242845693 -5.884649647 -6.082035198 -0.01483965002 0.5766427996)
5(-1.292081609 -5.98666905 -6.081349678 -0.01462034229 0.5671895695)
5(-1.345937082 -6.178206277 -6.094825764 -0.01442542133 0.5436908847)
5(-1.293359613 -6.397830279 -6.21725288 -0.01291034511 0.5402582923)
5(-0.9365926688 -5.918890428 -6.652093849 -0.01418974374 0.4952142896)
5(-3.909643781e-06 1.545578654e-05 2.073912001e-19 0.001263149663 -5.71481394e-06)
)


60
(
5(0.0002820980506 5.794731184e-05 8.263348948e-18 0.02041137191 -3.058169435e-05)
5(2.976646895 4.060712518 8.211845372 9.784582914 0.01419597811)
5(3.179717122 3.859514899 5.918058959 8.158542443 13.04857489)
5(2.536217838 4.04756337 5.761099378 8.181535437 9.03555474)
5(2.474383947 4.385995457 5.924189557 8.070186438 8.179518951)
5(2.906265712 4.679013192 6.564720667 7.2546745 10.31819461)
5(3.863042956 5.452859384 6.943333609 9.207102553 12.17949507)
5(4.304618393 6.303807473 8.170858599 10.3528615 12.40032414)
5(4.59400738 7.326047925 9.529969314 10.8530634 11.60025297)
5(5.1483095 8.77643447 10.75925178 12.58431209 11.49851262)
5(5.990040349 9.053358868 11.66906141 13.73354312 13.16651735)
5(7.477370418 10.2163732 13.600655 15.37183971 16.1720599)
5(9.374002099 12.72032215 15.64299068 16.88810608 18.78130479)
5(10.93381689 15.57999319 18.08808075 20.83575404 22.35828975)
5(13.05404952 19.29779999 21.69435203 24.52573807 27.97388383)
5(15.59277416 22.64739036 26.26133731 29.72392108 33.99202952)
5(18.46306728 24.3407428 29.40892212 34.49668444 41.85484491)
5(21.63098006 27.44678194 34.83630574 41.47024829 51.14830267)
5(25.96914373 31.90008583 41.06479872 49.32689168 61.85089668)
5(30.39976953 38.95963625 49.59114994 58.36031933 71.87378147)
5(34.78048547 44.68119241 56.97433294 66.96220368 82.1918521)
5(39.98752413 51.15668078 63.16694667 75.57846492 92.39165419)
5(46.82548129 57.45668747 72.0723682 82.93840412 102.245893)
5(52.7128841 62.12053429 76.32202833 86.95239511 110.0123407)
5(57.88760568 70.54412001 82.97240861 94.13736715 115.0679878)
5(62.75150343 72.34491449 87.52985172 96.71367206 115.1027229)
5(68.71163262 72.7013565 89.28927424 96.29503663 116.0021151)
5(72.19157676 72.46219563 89.8008293 95.03105048 114.5639933)
5(76.44230012 72.04092795 88.07540766 89.987634 110.498046)
5(79.25315634 71.72697654 85.07490627 85.97279885 101.2359095)
5(79.97787952 66.17273294 72.71626084 74.03931399 94.42498598)
5(77.14894161 54.61488205 66.62257556 66.26368812 82.91378251)
5(75.93701997 48.76707438 54.66968036 56.70548971 72.35276802)
5(74.50954868 41.5506983 48.32121353 43.68205144 59.59839466)
5(68.5610637 23.29447522 32.64707291 33.84236697 48.62658535)
5(61.4840073 13.46413398 18.13336994 23.6543142 37.78949722)
5(53.97278761 3.29472372 11.11849703 21.52413032 28.9542204)
5(45.0087864 -19.15199147 -0.4211001163 7.130207519 16.54576214)
5(37.00802441 -15.38723384 -6.049489143 4.711253499 3.598044749)
5(17.9123526 -41.28098762 -21.01031968 -1.896716368 -3.839793707)
5(10.47824044 -34.17434443 -12.66683376 -12.37079885 -6.1662065)
5(0.3534506112 -53.41318014 -30.87852958 -8.023694194 -7.357570793)
5(-16.28445638 -56.98067921 -23.59045425 8.828368046 -9.758121321)
5(-39.92046038 -43.06147518 -32.43571687 2.32388806 -11.84864797)
5(-62.30811726 -61.85741487 -30.20053279 -13.85800747 -10.89684403)
5(-76.68592852 -59.90548604 -29.86699372 -33.53080343 -9.977996018)
5(-86.60951259 -66.60733578 -24.51960575 -35.98407795 -7.148851384)
5(-99.85837666 -47.50266318 -40.44290871 -36.74009537 -4.049591817)
5(-110.0238257 -53.57312484 -52.10185154 -32.55041468 -2.502784727)
5(-110.2401562 -51.19462166 -48.58739801 -30.36069874 -0.6808081597)
5(-97.58952627 -53.86544562 -44.18612921 -21.11912686 -0.07461667025)
5(-76.91584947 -50.53412245 -33.43920238 -16.26334726 0.5751201737)
5(-54.91778643 -42.41688859 -23.05669643 -8.648495597 0.5196320452)
5(-34.74306603 -26.87666382 -16.40598448 -6.256763992 0.228980346)
5(-18.98527693 -19.95369036 -9.529124761 -3.335631839 -0.7160047266)
5(-7.516074703 -10.23531838 -5.455002731 -2.53625515 -1.216939124)
5(-0.9368458904 -4.91384817 -3.029343888 -3.160303706 -1.933193544)
5(-20.69536719 -3.528271386 -4.486511062 -2.628343227 -26.77207873)
5(-1.098845598 -0.2139659479 -1.71123898 0.4005887904 -4.190503983)
5(-0.07022408502 0.8804359199 1.014880999 1.231887346 0.2611240317)
)


60
(
5(0.9357997099 5.859513412 4.892784372 4.671875405 3.210528138)
5(6.088792094 7.481043198 16.36150359 21.10107301 29.45115953)
5(5.323667296 7.872639509 12.17159393 17.27519004 26.23232154)
5(5.059473683 8.259387361 11.60045785 16.5822619 19.41934679)
5(5.375907534 8.766317751 12.24358099 16.45960503 20.69171111)
5(6.098050327 9.509097786 12.74250431 15.55687024 17.76284786)
5(6.928284139 10.35963645 14.10015386 17.38383641 18.45383185)
5(7.600039655 11.62541382 15.55496743 17.81029951 16.978472)
5(9.179448743 13.12091059 16.8956897 18.53920285 15.61182788)
5(9.908073488 14.83698122 18.0256261 19.10749046 16.46157316)
5(12.08780232 16.37413772 19.44807353 20.84113541 17.33812452)
5(12.80090523 18.4671753 21.83531165 22.75644563 19.62720032)
5(15.57300139 21.8764608 25.08965746 26.86509541 23.90901468)
5(19.01529429 25.20702127 29.61725556 32.20257592 31.72053882)
5(21.73013719 30.02986086 34.75922561 40.0050616 39.39427986)
5(23.87358604 34.46932394 41.68026665 49.29912638 52.83181073)
5(29.27238183 42.03741429 50.06799571 59.88020074 64.0276415)
5(35.81414344 48.70990821 61.20908612 73.64187024 82.26538759)
5(40.76007197 57.66438968 72.81793774 88.73873031 98.91255935)
5(47.63670007 67.49085014 86.55550047 105.1535975 118.6476395)
5(59.16439671 79.75522084 100.5525104 121.5307474 137.1064494)
5(59.59068079 91.10238319 114.3312835 137.3303193 145.5553609)
5(77.3459441 101.0111489 129.0798715 151.7351901 167.1430488)
5(80.03284704 112.0366816 141.8071433 163.7973657 178.2081061)
5(93.50624581 123.5652295 153.651213 177.1785563 181.9740807)
5(98.73924031 131.2791825 159.9010849 174.411711 195.0336981)
5(104.0310241 136.5105971 161.9502639 182.9513225 176.3300957)
5(110.9590163 140.123935 169.7362337 179.419219 194.4231538)
5(112.6405264 138.9015493 168.4143312 175.7249634 172.1853819)
5(109.3542967 139.0968413 155.276893 163.4867377 150.7985879)
5(108.0347854 131.7379928 147.7202188 153.4010353 155.1829285)
5(106.4145337 118.0107658 136.9162416 136.6444749 118.1939752)
5(93.63065448 107.9295662 121.8950459 109.4998812 121.2853582)
5(76.57309469 92.71137035 98.95698838 96.97839206 78.4389442)
5(61.00007369 73.13103857 78.77460058 78.727732 82.74206826)
5(76.84470865 52.19032643 59.56809122 56.3684973 46.30017988)
5(-3.640453342 39.01708465 35.17185655 37.54250644 42.65273314)
5(34.90833595 18.93571872 13.13336914 19.94572077 16.39151142)
5(-25.88878942 -13.36102736 6.89212922 5.76683887 23.523858)
5(-41.10371071 -29.78266662 -11.16156428 -6.66843703 -0.9601278444)
5(-18.2304658 -31.70138406 -36.78958655 -18.52935 7.6156711)
5(-96.17950632 -58.2703302 -39.79458143 -30.99349678 -22.13687513)
5(-65.68941826 -74.19156815 -57.27804842 -33.76263556 -22.22504738)
5(-107.5214921 -89.16895584 -71.38368891 -48.86422601 -24.25106271)
5(-102.2349373 -82.41290187 -76.97791162 -62.93051352 -39.12495282)
5(-133.992267 -119.2128009 -90.88711253 -62.67596353 -50.58182971)
5(-138.1189653 -126.8969061 -111.8151003 -80.05713745 -43.60262514)
5(-151.4698364 -139.9542537 -109.7559253 -81.54619322 -50.62888897)
5(-151.6159166 -129.5802289 -111.0096441 -74.70889754 -46.40053415)
5(-163.0017583 -143.7709907 -108.1106171 -71.0971113 -37.2395492)
5(-151.7184988 -129.8219513 -95.75191768 -59.57837671 -37.85406561)
5(-141.9493763 -108.1138471 -81.13709681 -52.9891014 -26.71725424)
5(-123.2251696 -95.25466721 -66.64026155 -39.18520713 -27.78360437)
5(-89.60092433 -73.59812584 -51.82899153 -35.26021955 -16.51488552)
5(-74.89940458 -52.5706791 -39.26506552 -27.89887053 -19.01332637)
5(-46.36607638 -38.46865099 -29.46905224 -22.04443243 -15.1122255)
5(-31.82518265 -25.47407164 -20.00493919 -17.04804943 -13.01723455)
5(-19.95020019 -16.62247094 -15.97606544 -15.42258593 -12.46429467)
5(1.930083898 -7.083424004 -6.217949759 -6.346810995 -10.2329392)
5(-4.160054927 -3.464746414 -1.616225877 -1.323653592 -1.415604819)
)


60
(
5(15.52439876 8.514814103 9.360401127 6.664391845 4.866155296)
5(9.183790383 12.19146594 25.19921588 35.43161921 57.50516966)
5(8.063489593 12.85627313 20.75375932 29.38298496 39.92948817)
5(8.379403152 13.57759803 19.46029064 27.68429906 33.51935161)
5(8.495496202 14.1189424 19.63506431 26.08572576 32.34928782)
5(9.810522392 14.86763838 20.63050989 25.22620397 26.76609471)
5(10.83780747 16.23113555 21.88741214 24.60772475 23.54828515)
5(11.94131482 17.69625093 22.68677005 24.12396288 20.66432069)
5(13.98234377 19.37451709 23.5337991 23.8459545 17.72406614)
5(15.20034844 20.99158854 24.20907169 23.80826256 16.97756013)
5(16.93412777 23.22516354 26.18881386 25.0522293 17.88413836)
5(19.38743621 25.77575858 28.57931798 28.00006552 23.43229809)
5(21.81576501 29.40481582 32.57895267 33.47829934 28.32477686)
5(26.36653484 33.86641874 38.48964191 41.47813407 41.62570771)
5(29.95837365 39.41371658 46.12013849 52.88809619 55.71660775)
5(35.25154501 48.06955779 56.90880309 67.84346832 73.0844868)
5(40.13902113 57.33788739 70.05483715 84.90423716 96.79839688)
5(51.0602271 67.3919459 84.19110409 104.1330685 116.3105767)
5(54.06428732 81.5304611 103.5875401 125.5362231 146.0406353)
5(71.88990459 96.97609481 121.8048276 149.4374914 171.8498959)
5(82.82202139 110.4133661 141.6450858 175.6129522 198.6925074)
5(88.27462562 128.7396828 165.8517979 198.9183024 213.0840461)
5(99.46374609 146.6817005 184.608958 219.3445396 246.7758755)
5(130.0311172 162.7977502 203.3863651 238.530207 266.6766141)
5(125.7584253 175.6180832 221.4753525 252.4874903 263.7490568)
5(145.6427905 188.0910099 234.4107362 264.6258657 281.0561392)
5(150.6774142 200.690364 239.2830864 266.4899054 287.0108377)
5(167.6595425 206.11774 246.0330501 266.8657411 256.9321415)
5(164.2488514 204.149042 244.2770847 259.3866894 287.8189754)
5(165.9625572 201.2698596 233.4661695 245.7454833 234.3985371)
5(166.2393294 195.0460175 220.4778037 228.7651368 236.4328537)
5(156.6242135 180.6736817 203.0655557 209.2429157 192.8263705)
5(139.4699569 167.6380301 181.1656891 174.3344066 174.0539618)
5(138.2114567 141.797446 156.0464779 156.4826658 148.1924139)
5(98.22987052 117.7723455 123.5234852 127.3845503 112.4135966)
5(87.63799985 83.26738577 98.2562567 90.37573523 97.68112224)
5(75.48998521 65.78611668 62.48022092 65.42685399 53.24616597)
5(20.10875584 29.27787144 40.2221135 38.69258041 55.00582094)
5(2.239726968 5.182404415 14.82415943 11.46496295 3.033000565)
5(-17.68098749 -9.209217974 -21.02400273 -6.528320041 36.00330045)
5(-64.93997427 -46.13384735 -34.78691301 -18.96743123 -13.24514032)
5(-57.4218035 -69.89350764 -50.20455823 -40.12118442 -35.6398128)
5(-98.73855068 -87.26643522 -73.0454706 -54.91914713 -27.24445286)
5(-99.13082753 -97.82507087 -90.85722254 -70.09250218 -43.3266321)
5(-138.6719477 -117.9742475 -108.7802699 -88.43368652 -47.89292)
5(-143.89931 -141.4804362 -117.2221147 -105.9400482 -97.90764878)
5(-161.6016002 -146.4866257 -154.7114983 -112.425492 -82.03986105)
5(-188.4494921 -173.1729285 -151.2543159 -133.7317502 -94.96943623)
5(-167.1587349 -189.8057245 -166.9459726 -137.7435694 -98.82544879)
5(-211.9486427 -197.0119243 -180.1097588 -139.1887196 -87.99141159)
5(-209.7287645 -185.9550148 -165.520486 -114.9109999 -67.49116498)
5(-184.9360957 -181.1590964 -149.5836163 -110.364881 -78.21117582)
5(-185.791832 -157.889701 -124.0611821 -90.82052011 -56.83100887)
5(-149.5991076 -130.0528548 -100.0440661 -71.97463514 -48.4938423)
5(-130.0872839 -98.14734598 -77.17108593 -61.23537921 -40.58103793)
5(-87.30956988 -74.45178728 -58.22557481 -45.09832023 -35.07432255)
5(-66.82486706 -49.5594568 -41.07010655 -36.28970796 -28.39062252)
5(-42.92085435 -35.41853631 -30.13329493 -29.58472676 -21.89445295)
5(-18.71093724 -15.40127333 -11.67808943 -13.70953407 -15.5720276)
5(-15.30809669 -8.795959969 -8.120994243 -3.128345527 -2.289405472)
)


60
(
5(12.76368363 20.175778 11.70964371 12.41986215 7.489327047)
5(12.29810644 17.82337808 35.86206744 53.6198352 83.52924041)
5(11.15856339 18.62689135 31.55131502 44.55912615 57.77042484)
5(11.50072278 20.00081706 29.58830165 40.05446161 51.30984648)
5(13.13668206 20.70021873 28.4034886 37.23729298 42.52180873)
5(13.98725475 21.10844738 29.1396843 34.28116303 35.23876238)
5(15.31184711 22.41860923 29.12553797 31.78838341 26.2733373)
5(16.78463257 23.17815757 28.833599 28.92872071 22.6001498)
5(18.35566313 25.28764277 29.7727255 27.2890765 15.92032794)
5(21.13249845 27.24257095 29.72907149 26.46836052 16.41721682)
5(22.1191148 28.93187771 30.90613717 27.2311243 16.36581396)
5(24.74019056 31.87502008 33.3416983 31.14879259 23.87876395)
5(28.35430863 35.6418542 38.08268087 38.02693427 33.30175015)
5(32.26929968 41.0904223 45.56647596 49.22857138 50.01205726)
5(37.54228584 48.29680847 55.85468821 64.61791624 69.27706246)
5(45.84814895 59.11872177 70.45514322 83.56754161 95.94485152)
5(48.65932572 71.80593218 87.4502775 107.1709354 121.6075609)
5(63.55430097 85.34842391 107.87953 134.5814369 155.4785353)
5(73.28595518 102.1862751 132.3993926 162.8327368 190.4576777)
5(86.23895638 120.7835052 157.8887183 194.1376362 226.081609)
5(107.0691148 144.2759337 183.4477165 225.442315 258.9176038)
5(111.9829566 166.9430187 211.3537979 258.029276 289.0128552)
5(143.8044933 190.822044 241.6577397 285.5045467 331.550641)
5(155.4104835 211.2666226 268.7863774 314.7535917 326.9133491)
5(166.2200387 227.7302653 290.0138992 333.8489102 371.4639377)
5(195.3875557 241.7898681 304.7833478 350.06426 378.9300032)
5(201.2481791 264.6823606 313.5087366 355.2184092 368.8981741)
5(222.710058 272.0688854 326.4953304 360.1824169 373.8003278)
5(196.4622569 278.7637673 327.1292843 348.4460337 355.7052836)
5(243.4400261 274.8388118 316.245416 333.5439446 344.6514703)
5(221.2311645 256.4531801 296.9378556 317.5966318 317.5871024)
5(201.1856093 250.2936117 285.3200935 286.8919531 284.5815162)
5(200.7408675 230.6765778 257.4362167 250.7966341 245.3940477)
5(179.0638886 205.1202046 214.1856521 215.7010654 210.4848335)
5(163.4564784 173.2647407 186.4114677 179.5230216 174.0895975)
5(135.0587632 129.2433166 148.6562431 143.231987 143.4702778)
5(85.1378094 104.3507767 103.6794971 111.6835382 104.7877861)
5(79.86835 72.57344443 66.22473757 68.77506978 61.40204256)
5(23.46496199 21.53249176 25.51667042 33.26281095 48.84766961)
5(-5.152056809 -4.339151633 4.2519504 10.71960491 29.1320676)
5(-47.07880453 -41.35688883 -27.87607215 -18.01935675 -32.0847152)
5(-77.58886903 -64.17946517 -50.53112422 -36.43903394 15.82392566)
5(-105.7282323 -80.61552181 -73.54938554 -58.74925329 -48.72654814)
5(-112.0234652 -109.9554523 -83.49699867 -74.56929167 -57.11734313)
5(-119.1414807 -120.0924867 -127.0925525 -98.00919212 -82.61254628)
5(-174.9920529 -136.4297993 -130.8964276 -128.2100414 -88.40530312)
5(-160.0020858 -168.0093959 -155.8557532 -144.067723 -117.4483409)
5(-184.0067409 -179.6672758 -182.0245208 -156.5363495 -137.8474553)
5(-196.5937513 -203.6226878 -206.3029943 -198.104757 -137.2072642)
5(-206.3453313 -216.168109 -216.0514069 -192.3287069 -152.6929002)
5(-221.4327503 -224.7187357 -221.2238228 -188.4507573 -141.270364)
5(-220.7640935 -225.7774726 -211.9483363 -166.5139948 -131.3328401)
5(-223.2955007 -212.9043881 -182.8649331 -151.9157642 -92.63395211)
5(-200.9073719 -184.8088222 -158.2887657 -125.9341886 -96.27722741)
5(-181.9995535 -152.3549612 -124.1064023 -101.1702915 -75.71368427)
5(-145.3786364 -119.9321284 -92.29823079 -79.18302679 -60.5061527)
5(-111.7202051 -86.48457454 -69.86097957 -58.07463704 -48.11353811)
5(-82.99948586 -64.61155038 -49.6249485 -46.40652247 -35.65648409)
5(-48.39055855 -33.95437238 -21.12764401 -20.425869 -18.91014235)
5(-41.45524274 -30.11990274 -13.93949724 -10.82614116 -5.030518602)
)


60
(
5(6.32446392 12.77853504 15.55757415 11.89049641 10.86924116)
5(16.00900782 24.37188298 48.8272372 75.13034979 111.9300442)
5(16.46009931 26.36943556 43.66508482 62.96121558 88.25850889)
5(15.62060058 26.96569814 39.70159185 54.89388354 61.39788401)
5(17.09248999 27.50617569 38.96597899 49.21198345 52.5093189)
5(19.31822915 28.15525347 38.03418245 42.48073603 43.2104342)
5(19.23009747 29.26737438 36.70539181 38.02241988 26.49808135)
5(22.35073606 30.0036159 35.30803888 33.16085381 23.05944753)
5(23.13232294 30.70494483 34.52701566 29.04570859 14.43445088)
5(26.31065702 32.01847068 33.2893079 27.13155228 11.59142639)
5(26.30955516 33.84243347 33.90803731 27.54936111 14.27463691)
5(31.3034884 36.81534571 36.74144941 31.8050698 20.93287233)
5(34.34386613 40.78496828 42.61430505 40.96261708 37.90162849)
5(37.7511566 48.04851547 51.95219842 54.93235739 55.63422858)
5(43.13423126 55.92117646 64.46385807 73.78057082 86.68898547)
5(53.02073556 68.20282104 81.18258562 98.40740436 110.7887739)
5(63.145126 83.60455506 102.6452092 128.8447598 151.7624732)
5(72.70590927 101.2521193 129.6256402 161.9218923 196.218565)
5(86.29188049 122.6140755 158.6194613 197.7486259 231.0821406)
5(110.3140177 146.788834 190.0638933 236.9518743 280.3743199)
5(115.6764062 172.103388 224.6412157 277.2097834 315.3356866)
5(152.9978939 202.1780281 261.911274 316.1306858 364.8393601)
5(162.187973 231.0936479 294.2499462 355.2051408 403.9075791)
5(193.9371069 257.2925709 326.8371042 385.3512242 440.2596471)
5(207.7805996 285.8679851 355.3682487 410.261559 428.2153498)
5(237.1699157 303.5332275 374.4565848 434.4172234 480.4261842)
5(243.5014768 324.6740763 398.4961848 446.3838579 476.3418416)
5(280.2712315 335.5563034 403.5998541 451.8058507 478.0228668)
5(271.1984315 345.9807495 407.6558547 447.6134807 455.6499793)
5(295.3889296 344.2464127 400.808969 432.045697 444.1499118)
5(267.6310752 337.7628709 384.315579 403.6773398 403.2930915)
5(273.312992 325.0002407 356.3188483 377.4748629 378.189964)
5(256.5646052 293.3497773 323.0079941 338.0525112 350.9913736)
5(236.5266943 271.6421553 288.4058742 292.0094649 268.6128566)
5(208.038547 238.061327 249.7630978 246.7196865 235.6835588)
5(152.9636654 194.8909733 206.1178982 200.6846484 199.5592445)
5(166.3399837 154.0700143 154.0158753 150.0409437 154.7374629)
5(82.59729988 95.82995581 107.0545246 108.0618732 106.9145507)
5(75.61581265 52.60422156 63.62694791 64.95871593 81.4604022)
5(6.625935671 25.10332849 14.96170046 25.17206589 19.45746437)
5(-30.3243851 -24.15651359 -15.72985192 -12.00274986 37.56373542)
5(-56.70161941 -54.59750771 -52.53976255 -31.91356741 -26.87536989)
5(-112.0455215 -73.43456455 -58.69017886 -51.2372496 -12.51556063)
5(-132.1795537 -114.6031288 -87.01260798 -74.57013336 -71.21763169)
5(-129.8392689 -123.6595998 -114.6635397 -94.33299452 -62.50319161)
5(-164.5347949 -135.5729459 -132.7500376 -120.856351 -106.2882839)
5(-167.6458788 -153.6321091 -145.6604586 -152.3120129 -136.197183)
5(-180.3482407 -173.7862391 -175.6072077 -175.8375425 -145.9088958)
5(-180.9938409 -192.9982659 -206.4812452 -203.7285731 -182.113352)
5(-196.2604962 -204.5819448 -227.7897061 -232.5927995 -206.9780119)
5(-212.9366709 -234.4608892 -245.2854135 -240.3872201 -195.9725346)
5(-211.1227802 -226.9765875 -253.512511 -225.1966888 -184.43724)
5(-231.9500445 -245.6458847 -230.5709282 -220.9637102 -166.8009915)
5(-226.2013523 -229.9922149 -211.7202091 -172.8491594 -141.9902336)
5(-223.5026795 -204.9704282 -175.3565877 -152.7746842 -123.5266612)
5(-195.7034307 -178.5075435 -144.7345353 -116.7929681 -85.91089261)
5(-173.5978989 -136.7103122 -104.8590955 -89.01889048 -75.60561931)
5(-135.9859595 -108.6972321 -80.03909108 -68.04342788 -50.76998184)
5(-101.909061 -67.57368716 -40.16270467 -30.70118423 -27.46667708)
5(-91.75924699 -67.84788687 -45.53058769 -27.19322484 -20.23144857)
)


60
(
5(-35.01292664 -4.931324737 8.759357661 10.44005478 10.53902878)
5(20.1299191 33.33102294 66.08815098 98.81499737 136.8519137)
5(20.46400634 34.45308821 57.93189115 83.45998302 108.0862602)
5(21.54468509 35.062975 52.64023434 71.55007585 87.19505369)
5(21.08492658 35.41518872 48.03020732 60.5765753 59.86580217)
5(25.19545593 35.73805924 46.93952417 51.54649635 49.06959141)
5(24.63613531 36.03738782 44.4221327 43.70945832 27.60921679)
5(26.95925515 36.13842293 41.09485967 35.81928765 19.36291203)
5(28.84377233 35.6528784 38.41966061 29.74130478 10.39163216)
5(30.43454241 36.52911894 36.34492033 25.88798175 5.800994038)
5(30.996726 37.71925883 35.75333307 26.33127072 10.76865502)
5(36.93578395 40.93044182 38.47013708 31.56703315 20.6983424)
5(39.53009044 45.78555714 44.89613907 42.28509662 36.4654418)
5(42.91824939 52.61848142 55.93459833 58.9170496 66.2374014)
5(49.17329935 61.80706133 71.29666573 82.21626542 91.59101282)
5(59.50238453 76.30353443 92.3189536 112.3215159 136.5722432)
5(69.46186096 95.14021842 117.9044835 147.2737562 177.0441607)
5(87.92661549 117.1130057 149.4713761 186.5503736 226.1258345)
5(98.07074704 141.4437399 183.792682 230.8350425 277.1691508)
5(127.4915492 169.5133593 223.3084816 278.5276232 326.8679644)
5(143.0343766 200.1339911 264.7983161 325.0757575 386.7463875)
5(164.0260715 237.7689936 305.830118 373.1095494 417.3219351)
5(212.3538226 272.6267452 346.8158035 416.75084 486.1580931)
5(201.331477 300.0289424 387.6019135 461.567172 508.6198871)
5(264.4690141 329.2261038 423.1326231 494.7657642 569.3460968)
5(282.9586442 367.4736684 455.3486497 513.3400046 551.4349616)
5(302.7197708 390.3173229 475.7472211 529.4251093 569.4026267)
5(288.3734365 404.5483344 476.0354771 547.2347508 598.255315)
5(321.6741341 414.0824917 491.7927041 542.7467589 548.5900734)
5(347.1712824 420.6864414 490.8872843 515.6571154 590.8996642)
5(378.7141601 410.3961648 473.4838421 503.5476873 499.320093)
5(305.4060224 389.793428 445.7290189 474.4276853 447.9545325)
5(321.8690078 367.1300138 413.7101111 428.9067681 448.0829624)
5(307.3920137 337.7099523 371.9004503 377.437926 397.9304573)
5(270.6482777 300.8189783 312.3984821 324.2609304 294.3189049)
5(227.1128302 261.297531 265.3802523 266.7620836 271.0705596)
5(181.2358402 205.2954918 212.6293701 201.0185389 187.693767)
5(156.4788296 161.0319119 155.4771273 148.0134072 159.9222258)
5(77.63957109 104.7981811 99.7601458 105.2396808 121.663459)
5(75.01997589 49.66490711 46.43569091 61.53231609 58.66167929)
5(-17.20481709 -5.303529499 8.40396127 12.95104371 23.19744656)
5(-63.76085598 -53.43557635 -25.62628304 -16.18014603 24.21157238)
5(-72.81551632 -75.95601627 -71.67047801 -42.4781122 -11.17134021)
5(-138.7712221 -101.6710045 -85.38444787 -63.06079323 -46.39652583)
5(-151.2643522 -126.212694 -99.93129647 -75.6000487 -38.21940792)
5(-153.2596224 -139.2021513 -115.5232717 -104.8615511 -107.064663)
5(-169.3503761 -140.7775296 -132.8641151 -134.2912412 -101.1653955)
5(-181.3129432 -157.7225901 -161.5085141 -160.7162854 -187.9973855)
5(-177.8686418 -166.4460006 -183.296102 -198.2267932 -162.0271774)
5(-170.6310473 -187.5764771 -209.6175708 -228.7120483 -226.6220307)
5(-195.5221463 -203.7363299 -234.0514465 -256.6889469 -241.0015327)
5(-202.5956197 -222.1811536 -258.0411611 -257.9036745 -242.8965155)
5(-207.0425689 -235.5430486 -248.6805407 -260.1291667 -229.2519977)
5(-217.8685248 -241.870962 -255.147845 -231.3917791 -192.4157004)
5(-222.2811207 -232.3522266 -223.009229 -203.0152851 -161.3469311)
5(-224.8566298 -222.021829 -193.9445995 -167.4356656 -139.7599607)
5(-209.3020078 -194.0853974 -159.5096632 -127.6496351 -96.20642385)
5(-192.1133242 -165.9282141 -126.5142026 -100.6804133 -73.17093901)
5(-147.8219537 -124.3021263 -73.63336473 -49.01870678 -33.81782698)
5(-149.9886859 -133.3757707 -84.94801649 -54.46693304 -20.96692059)
)


60
(
5(-39.21900145 -54.67362084 -16.0637086 -1.122359351 14.17063776)
5(24.0457229 43.45774144 84.6234941 127.4417795 161.8104519)
5(26.73867624 44.21516003 72.90392242 105.1085972 132.2518607)
5(27.13150075 44.55550417 66.31774626 88.8478123 106.2169637)
5(26.78401084 44.20951749 61.65104893 74.2683526 70.83795254)
5(30.01781799 43.41008553 56.54038613 60.98537731 52.89351137)
5(30.80669835 42.72652098 51.13815328 48.32649174 29.8047059)
5(32.25246376 41.85133675 45.36699543 37.58120246 14.56587329)
5(34.52709242 41.29757062 41.0885261 28.76816848 3.882402624)
5(35.08988582 41.10622611 37.96154757 23.92380542 -0.3148309805)
5(36.66617043 40.99546587 36.47216428 23.65936429 5.377585321)
5(37.64127761 43.41825189 39.32314351 29.28403854 15.54338595)
5(44.20862052 48.79147205 46.56222941 41.94393441 38.94279593)
5(49.99809997 56.17283126 58.88817993 62.29804346 68.83856643)
5(55.00160952 67.83609614 77.51075247 89.61186946 106.6011392)
5(70.10415364 84.18569921 101.5451417 124.1255433 148.7334261)
5(73.42938409 105.1142263 130.4747453 164.947466 211.3184406)
5(99.83148774 130.4487707 166.8908114 210.7453006 250.1438312)
5(109.7449009 159.4414909 209.6487662 261.8021896 313.5471212)
5(134.6675973 191.0457366 255.1468727 315.9263627 384.7732675)
5(171.2242701 230.14304 302.6988772 373.3807313 441.034044)
5(204.0153128 271.2793447 350.1747119 430.4787057 517.1741094)
5(215.2216702 311.1380777 399.4807097 482.3422891 519.8358233)
5(257.4769727 352.2422198 447.1678502 528.6430389 609.3087761)
5(298.967632 392.7836964 484.4279626 566.2097784 630.9827446)