/*--------------------------------*- C++ -*----------------------------------*\
| =========                 |                                                 |
| \\      /  F ield         | OpenFOAM: The Open Source CFD Toolbox           |
|  \\    /   O peration     | Version:  2.3.1                                 |
|   \\  /    A nd           | Web:      www.OpenFOAM.org                      |
|    \\/     M anipulation  |                                                 |
\*---------------------------------------------------------------------------*/
FoamFile
{
    version     2.0;
    format      ascii;
    class       dictionary;
    location    "constant";
    object      la_i19;
}
// * * * * * * * * * * * * * * * * * * * * * * * * * * * * * * * * * * * * * //

la_i19_table
60
(

60
(
5(6.269631242e-07 2.365421822e-06 8.410192235e-07 4.11524541e-09 -1.362460652e-07)
5(5.774689956e-07 2.392137458e-06 9.579148227e-07 4.414683159e-09 -2.46720108e-07)
5(6.379160931e-07 2.436831062e-06 9.71684954e-07 4.437243528e-09 -2.859912095e-07)
5(7.406486917e-07 2.534908313e-06 9.584796821e-07 4.478781077e-09 -2.808580548e-07)
5(8.260970637e-07 2.57388329e-06 9.322926902e-07 4.358201816e-09 -2.619730912e-07)
5(8.746270645e-07 2.532080046e-06 9.310032254e-07 4.18787882e-09 -2.577712121e-07)
5(6.793441487e-07 2.346612133e-06 9.059079392e-07 4.087718577e-09 -2.352117275e-07)
5(5.826114197e-07 2.330620767e-06 8.532107018e-07 3.831502898e-09 -2.21215586e-07)
5(8.318362562e-07 2.495535268e-06 8.074627558e-07 3.547238321e-09 -2.065382838e-07)
5(1.046842257e-06 2.594848706e-06 7.269452463e-07 3.212040747e-09 -1.731606643e-07)
5(1.182566433e-06 2.591918379e-06 6.274086397e-07 2.785241119e-09 -1.346462243e-07)
5(8.666821598e-07 2.284353102e-06 5.263976047e-07 2.267987089e-09 -9.824581736e-08)
5(6.274814862e-07 2.082251352e-06 4.004800802e-07 1.567582055e-09 -4.812250072e-08)
5(5.895833187e-07 1.980916463e-06 2.220258167e-07 9.071020494e-10 -9.187460899e-10)
5(5.744717187e-07 1.864611959e-06 3.412064712e-08 6.305636823e-11 5.227663203e-08)
5(5.721157376e-07 1.743395188e-06 -2.036909688e-07 -9.097335712e-10 1.083253865e-07)
5(5.513816189e-07 1.56700005e-06 -4.826627799e-07 -1.945316523e-09 1.70598837e-07)
5(5.141224986e-07 1.341369107e-06 -8.232956796e-07 -3.208015078e-09 2.377998736e-07)
5(4.714839184e-07 1.064203555e-06 -1.223368061e-06 -4.50581255e-09 3.024660679e-07)
5(4.226213584e-07 6.981865806e-07 -1.724655618e-06 -6.213187011e-09 3.716240649e-07)
5(3.625365308e-07 2.801049073e-07 -2.269839628e-06 -8.106317707e-09 4.498519981e-07)
5(2.850311086e-07 -2.385765325e-07 -3.000323048e-06 -9.767148191e-09 5.059363507e-07)
5(1.811148075e-07 -9.307673941e-07 -3.863240379e-06 -1.239036867e-08 6.104824268e-07)
5(5.759427943e-08 -1.867882656e-06 -5.013357092e-06 -1.579983537e-08 7.401898959e-07)
5(-1.210284304e-07 -3.067409938e-06 -6.520415798e-06 -2.030749508e-08 9.176416826e-07)
5(-3.557789302e-07 -4.607745332e-06 -8.629330751e-06 -2.67911252e-08 1.166222596e-06)
5(-6.803320424e-07 -6.802561605e-06 -1.136330824e-05 -3.54729848e-08 1.505269618e-06)
5(-1.110292664e-06 -9.940151225e-06 -1.53970719e-05 -4.771413635e-08 1.975498722e-06)
5(-1.757536927e-06 -1.441766011e-05 -2.09610647e-05 -6.439196463e-08 2.628974415e-06)
5(-2.646529402e-06 -2.077356228e-05 -2.882903148e-05 -8.67641091e-08 3.517796614e-06)
5(-3.957146147e-06 -2.976399643e-05 -4.01569389e-05 -1.197235334e-07 4.807916662e-06)
5(-5.807129375e-06 -4.221657802e-05 -5.536628927e-05 -1.624778164e-07 6.282932383e-06)
5(-8.382165458e-06 -5.925360462e-05 -7.628051267e-05 -2.174131996e-07 8.415270092e-06)
5(-1.199590687e-05 -8.248895443e-05 -0.0001046720287 -2.910884267e-07 1.092564814e-05)
5(-1.69933227e-05 -0.0001128833687 -0.000139814962 -3.779239337e-07 1.37087474e-05)
5(-2.353355365e-05 -0.0001518258184 -0.0001867710086 -4.844779584e-07 1.69363074e-05)
5(-3.221238502e-05 -0.0001984623782 -0.0002339308124 -5.851223364e-07 2.059987434e-05)
5(-4.261906295e-05 -0.0002541216919 -0.0002892979019 -7.155874751e-07 2.270258994e-05)
5(-5.52637961e-05 -0.0003127838625 -0.0003483864544 -7.962388458e-07 2.704069559e-05)
5(-6.969965567e-05 -0.0003725828412 -0.0004048993055 -9.590418922e-07 2.628529704e-05)
5(-8.425429416e-05 -0.0004247186337 -0.0004378661466 -9.793348905e-07 2.231424442e-05)
5(-9.686198463e-05 -0.0004623375365 -0.0004641725266 -8.47205273e-07 1.825080713e-05)
5(-0.0001073758508 -0.0004746685875 -0.0004762324605 -6.241003578e-07 1.275680231e-05)
5(-0.0001118231163 -0.0004523859666 -0.0004580138256 -5.076697951e-07 9.264863952e-06)
5(-0.000110247971 -0.0004104151323 -0.0003707212057 -3.728823756e-07 5.910608504e-06)
5(-9.866164562e-05 -0.0003472911495 -0.0002493918135 -2.430019791e-07 3.266632568e-06)
5(-8.31932951e-05 -0.0002785586322 -0.0001337205942 -1.30344041e-07 1.483542791e-06)
5(-6.471644919e-05 -0.0001819540559 -7.587854799e-05 -6.238561844e-08 4.891688847e-07)
5(-4.379735846e-05 -9.358155802e-05 -3.847098187e-05 -2.503230427e-08 3.27701395e-08)
5(-3.149876484e-05 -3.722235128e-05 -1.511864969e-05 -7.129446378e-09 -1.414791686e-07)
5(-1.119202396e-05 -1.649683726e-05 -5.116316871e-06 -2.596747588e-10 -1.997538431e-07)
5(-2.941100774e-06 -4.034449181e-06 -1.33374476e-06 2.006681946e-09 -2.166620705e-07)
5(-6.541675209e-07 1.604270001e-07 -1.473172067e-07 2.659607548e-09 -2.191711342e-07)
5(2.155509465e-07 1.384650635e-06 1.905576152e-07 2.824318931e-09 -2.18028084e-07)
5(4.454295412e-07 1.685043033e-06 2.816799524e-07 2.81806016e-09 -2.123482344e-07)
5(5.011054683e-07 1.771439674e-06 3.056298903e-07 2.7341677e-09 -2.044392605e-07)
5(5.206194399e-07 1.800262685e-06 3.006261785e-07 2.589808176e-09 -1.936110551e-07)
5(5.431604137e-07 1.820467202e-06 2.694391868e-07 2.400209485e-09 -1.752167204e-07)
5(5.864624816e-07 1.953847581e-06 2.696399157e-07 2.295531991e-09 -1.88463851e-07)
5(-2.344598595e-11 2.400614545e-12 -1.28037642e-24 -3.819425297e-09 1.03092936e-11)
)


60
(
5(-1.620665572e-12 2.270907538e-12 6.047587942e-25 4.951300451e-09 -1.957269586e-11)
5(-6.310806924e-07 3.031309005e-06 1.38953184e-05 1.67087536e-05 -1.589107725e-05)
5(2.290218974e-06 2.941801933e-06 1.100630894e-05 1.988348365e-05 0.0001305088369)
5(1.16105627e-06 3.927788776e-06 7.812651405e-06 2.38533595e-05 9.059054084e-05)
5(1.46508096e-07 5.740065672e-06 1.7037877e-05 2.972118073e-05 4.496446698e-05)
5(1.57477979e-06 7.035525942e-06 2.081707077e-05 2.671418702e-05 5.342470678e-05)
5(5.100651553e-06 1.006402727e-05 1.41096649e-05 4.073753903e-05 8.144540283e-05)
5(5.591603186e-06 1.31489114e-05 2.381083817e-05 5.313366546e-05 0.0001081670312)
5(6.311848946e-06 1.322118759e-05 2.665334387e-05 4.484285109e-05 9.249063206e-05)
5(6.367405409e-06 1.840464936e-05 3.690148567e-05 6.932005277e-05 5.355394859e-05)
5(8.461610197e-06 2.601916872e-05 4.165287155e-05 7.823046982e-05 6.024563284e-05)
5(1.455899186e-05 2.816020393e-05 5.900171103e-05 8.331310503e-05 7.351745072e-05)
5(2.253818608e-05 3.757081325e-05 6.230509379e-05 5.558614493e-05 4.055616996e-05)
5(2.369134689e-05 4.742171703e-05 6.669000453e-05 9.878899471e-05 -8.985852525e-06)
5(3.28836658e-05 4.806778337e-05 6.211806488e-05 6.295233441e-05 -2.709141844e-05)
5(4.372604482e-05 6.703088065e-05 7.97872537e-05 6.193077298e-05 -7.752424442e-05)
5(5.437349389e-05 8.118742037e-05 0.0001038821939 9.651133656e-05 -9.626538315e-05)
5(6.62082177e-05 0.000112989384 0.0001237134202 8.850680579e-05 -0.0001056818085)
5(8.814742097e-05 0.0001224824881 0.0001529960217 0.0001293559212 7.03667193e-07)
5(0.0001277239586 0.0001873413554 0.0002167664114 0.0002347304924 0.0001335285039)
5(0.0001721029391 0.0002562337116 0.0003386408415 0.000331878675 0.0002742604007)
5(0.0002147503841 0.0003875789918 0.00045051131 0.0005974546088 0.0005056067071)
5(0.0003282753614 0.000535983834 0.0007108961334 0.0009196653841 0.0009200510651)
5(0.0004746073226 0.0008104998306 0.001093710205 0.001242518909 0.001449342935)
5(0.0007160818327 0.001248935083 0.00150697055 0.001999354732 0.002154834486)
5(0.001075000014 0.001926209945 0.002564523306 0.002991828734 0.003116408283)
5(0.001701101413 0.002769871921 0.003702652788 0.004370568189 0.004297054414)
5(0.002471796063 0.004166663185 0.005315662688 0.006249111513 0.005916571846)
5(0.003761401928 0.006044719401 0.007712033175 0.008463651423 0.007759313648)
5(0.005583850913 0.008540226776 0.010611341 0.01139801285 0.009668312687)
5(0.007854360121 0.01174958807 0.01383859459 0.01391785979 0.01161570506)
5(0.01049311614 0.01495576374 0.01724309991 0.01675900448 0.01251983544)
5(0.01379155242 0.01891053306 0.02032196137 0.01809105609 0.01170657115)
5(0.01668847737 0.02221886851 0.0221964247 0.01681700011 0.008853393515)
5(0.01872539943 0.02236050741 0.02020718308 0.01233032794 0.003017267558)
5(0.01836023759 0.02076154651 0.01446144662 0.004470800745 -0.00632264563)
5(0.01387350484 0.01302145505 0.003669551318 -0.01025217409 -0.0182619123)
5(0.003954183444 -0.002954918545 -0.0170171823 -0.02898547306 -0.0305804348)
5(-0.01334877588 -0.02395085509 -0.04186018337 -0.0474117348 -0.03963822288)
5(-0.04073859575 -0.05220077492 -0.06727566106 -0.0650007736 -0.04299874066)
5(-0.07353290107 -0.08230557825 -0.08784940682 -0.07181177162 -0.0396825986)
5(-0.1053753291 -0.105574097 -0.09890873254 -0.06821059487 -0.03022092569)
5(-0.1301195666 -0.1183199696 -0.09636826358 -0.05197815222 -0.01591861334)
5(-0.136287952 -0.1069410687 -0.07031987791 -0.02178870906 -0.002295902506)
5(-0.1177278718 -0.07633308073 -0.03249319233 0.005665822921 0.006462442743)
5(-0.07665049382 -0.03127411189 0.006419729837 0.0223353152 0.009723187043)
5(-0.02335399875 0.01467685167 0.03246647143 0.02428893107 0.00872888768)
5(0.02715320594 0.04417457962 0.04187460002 0.01863568398 0.005911719413)
5(0.05890455584 0.05368958087 0.03460763675 0.01065613085 0.003238501486)
5(0.06347560525 0.04335787662 0.01939098453 0.004817632371 0.001452233261)
5(0.04951983325 0.02578629321 0.008834219961 0.001550714796 0.0005225774204)
5(0.02886689593 0.01096138119 0.002776465058 0.0004265541114 0.0001441344018)
5(0.01344715492 0.003291998995 0.000667380071 0.0001012260502 2.418398148e-05)
5(0.0048341691 0.00074901087 0.0001419319286 2.246249984e-05 1.898832905e-06)
5(0.001472627859 0.0001135496645 2.501382686e-05 5.903022351e-06 1.980821887e-06)
5(0.0003019037435 1.96493646e-05 5.813132002e-06 2.526755418e-06 2.766959561e-06)
5(4.305309202e-05 5.294188126e-06 3.281224788e-06 1.93756559e-06 3.269325883e-06)
5(4.792967858e-05 2.362999194e-06 1.843109968e-07 1.835730442e-06 1.614678043e-05)
5(1.922735223e-06 2.08708571e-06 2.826724479e-06 3.883549832e-06 5.7352507e-06)
5(2.553586773e-07 5.889437734e-08 -3.046383303e-09 1.391697451e-07 -4.53444241e-07)
)


60
(
5(4.541474943e-07 1.422940994e-06 1.410585081e-06 1.641210432e-06 1.711422846e-07)
5(8.61855469e-06 1.460196349e-05 3.999904494e-05 9.549308279e-05 0.000112557591)
5(8.859486225e-06 1.513892376e-05 4.438314945e-05 0.0001037071539 0.0003251134925)
5(6.727437903e-06 1.783702914e-05 4.053025751e-05 0.0001055529425 0.000152759107)
5(9.747457374e-06 2.365000219e-05 5.701368817e-05 0.0001299368682 0.0003095566076)
5(1.41559278e-05 3.356087568e-05 7.620829808e-05 0.0001356964826 0.0002724435355)
5(2.011386251e-05 3.787451339e-05 8.425296269e-05 0.000176826112 0.0003815891121)
5(1.792462487e-05 4.844379889e-05 9.727727333e-05 0.000183870217 0.0004048068182)
5(3.360533858e-05 5.942703198e-05 0.0001151291798 0.0002017432676 0.0001602065058)
5(3.93033191e-05 7.300515017e-05 0.0001173095452 0.0001999233607 0.0004125702592)
5(5.129862774e-05 8.696833689e-05 0.0001504718309 0.0002300628789 0.0002916875153)
5(3.352000718e-05 8.569950152e-05 0.0001517233952 0.0001809408508 0.0001310948246)
5(7.857275451e-05 0.0001137959604 0.000171430009 0.0001659248141 -1.740373937e-05)
5(8.738223672e-05 0.0001295484678 0.0001510856641 0.0001147421635 -5.132745064e-05)
5(0.0001400181399 0.0001442734989 0.0001765800206 4.907919257e-05 -0.0003396442869)
5(3.007222871e-05 0.0001563693401 0.0001089430865 -4.355999229e-05 -0.0005524037769)
5(0.0001602198208 0.0001647979031 0.0001658656749 -3.05148029e-05 -0.0002701371041)
5(0.0001713041845 0.0001803972835 0.000104198247 8.391720274e-06 -0.0006152665304)
5(0.0001767322839 0.0002410152895 0.0002617658353 4.075839043e-06 -0.000401630682)
5(0.0003284982227 0.0002487930861 0.0002564557308 0.0002555507468 -0.0001891061505)
5(8.901394239e-05 0.0003965283571 0.0005223359384 0.000585381276 0.0009568938708)
5(0.0003852962052 0.0006065382502 0.000602482239 0.000839717023 0.0007764521846)
5(0.0005977497281 0.0008671124336 0.001254502789 0.00187425558 0.002070531065)
5(0.0007846462364 0.001361187309 0.001999488879 0.002805576075 0.003361260873)
5(0.0008930780079 0.002145330871 0.003280915749 0.004491700892 0.005514966136)
5(0.00184347063 0.003491014781 0.00498635052 0.006488214248 0.006927776963)
5(0.003167852508 0.00490570621 0.007017666562 0.009650082964 0.01072010458)
5(0.003366989919 0.008178904213 0.01145030158 0.01426776877 0.01467442779)
5(0.007601688803 0.0115314087 0.01596804308 0.01915022706 0.02096729952)
5(0.009213028303 0.01658229878 0.0220119562 0.02611972434 0.02271541546)
5(0.01514142275 0.02405727259 0.03008910214 0.03337668858 0.03309636623)
5(0.02112450951 0.03107186657 0.03790313609 0.04025495807 0.03450411827)
5(0.02845820424 0.03845930751 0.04616180152 0.04367289154 0.04019446708)
5(0.03591971942 0.04731377035 0.05188438569 0.04624429289 0.03180597055)
5(0.04683879981 0.05046753903 0.04908326377 0.03969772166 0.02542564586)
5(0.04890112764 0.04803874271 0.04144655527 0.02209097592 0.006970515633)
5(0.03632624296 0.03568060747 0.01675288975 -0.008101739044 -0.02936214032)
5(0.04229999476 0.009411504121 -0.02269251526 -0.05102307202 -0.06335944302)
5(0.003847780929 -0.03624141234 -0.0720222793 -0.1028307292 -0.1006779021)
5(-0.03526376404 -0.09862995309 -0.1408277643 -0.1574844575 -0.1390174012)
5(-0.09490517881 -0.1646710925 -0.2049685556 -0.2000675385 -0.1506569815)
5(-0.1653939443 -0.2342828449 -0.2560947336 -0.2150692937 -0.1390532654)
5(-0.2381105179 -0.2820035635 -0.2692271127 -0.1947370148 -0.1056864944)
5(-0.2758227259 -0.2920274143 -0.2433555879 -0.1430320585 -0.05491595395)
5(-0.2918891343 -0.2564977903 -0.1710448152 -0.06653836262 -0.005611750027)
5(-0.2496773839 -0.1662211853 -0.06995348727 0.004900678391 0.03355051145)
5(-0.1569956128 -0.0604424777 0.02909069457 0.05919646046 0.04397816554)
5(-0.04554617391 0.04986353742 0.09155373669 0.07608126702 0.04097093348)
5(0.05460079159 0.1151999561 0.1112575023 0.06236939764 0.02665698943)
5(0.1227285838 0.1273603542 0.08873589762 0.04188618774 0.01352748841)
5(0.1262932145 0.09934922531 0.05363677106 0.01965451932 0.005657439018)
5(0.09850616319 0.05786177809 0.02488544383 0.00780622419 0.00166959293)
5(0.05232499117 0.02398253997 0.008171381192 0.002206358756 0.0004668484519)
5(0.01964259038 0.007157083496 0.002053640524 0.0005170691091 9.291151488e-05)
5(0.004476256452 0.001417070596 0.0003440302387 9.125496333e-05 2.786143589e-05)
5(0.0006705189612 0.0001957698181 5.564746715e-05 1.955470666e-05 8.940635402e-06)
5(7.36267929e-05 3.195007044e-05 1.612412263e-05 1.070783815e-05 7.983244699e-06)
5(1.831639505e-05 9.278395711e-06 7.689240596e-06 1.519008083e-06 8.690674363e-06)
5(-1.670631578e-05 8.645982301e-06 7.66907287e-06 9.584229628e-06 1.035326531e-05)
5(3.05617435e-06 2.646643207e-06 1.260293343e-06 2.987702521e-06 2.680514357e-06)
)


60
(
5(1.53935116e-05 1.13628671e-05 9.207708734e-06 1.063506552e-05 6.648778737e-06)
5(2.654359382e-05 4.491751642e-05 0.0001177602288 0.0003093151955 0.0006581570993)
5(2.067728914e-05 4.583221799e-05 0.0001309491889 0.0003144268231 0.0008242206806)
5(2.436759822e-05 5.357854747e-05 0.0001295807405 0.0003135293721 0.0006896144606)
5(3.102115725e-05 7.016169372e-05 0.0001623482744 0.0003597307685 0.0007811823501)
5(3.966422472e-05 9.089893028e-05 0.0002095395823 0.0004224592482 0.0007743065345)
5(5.147820046e-05 0.0001104957498 0.0002343672591 0.0004302661383 0.0008057736376)
5(7.014954321e-05 0.0001379441353 0.00026056633 0.0004556803569 0.000975240927)
5(8.968224556e-05 0.0001576722873 0.0002951411323 0.0004906699222 0.0006201122154)
5(9.717954611e-05 0.0001983489417 0.0003208819384 0.000526643143 0.0007947754747)
5(0.0001370287237 0.0002198334627 0.0003791959483 0.0005033416796 0.0002823684306)
5(0.0001609935541 0.0002618483332 0.0003964244265 0.0003877868196 0.0002971327214)
5(0.0001306819223 0.0002811332019 0.0003678502101 0.0002898750561 6.633694789e-05)
5(0.0002316932253 0.0003170927829 0.0003440039757 0.0002192006005 -0.001171150628)
5(0.0002814444487 0.0002976482085 0.000294056551 8.604301566e-07 -0.0006779050975)
5(0.0003601868694 0.0003770249909 0.0003148280248 -0.0002519315128 -0.001454901883)
5(0.0001159580881 0.0004042255543 0.0003242245849 -0.0001212062841 -0.001519327835)
5(0.0006572603803 0.000293031594 7.312948556e-05 -0.0004201372172 -0.000923347373)
5(-1.627607587e-05 0.0004406168206 0.0003286556157 -0.0002039655687 -0.001687502922)
5(0.0006237462026 0.0005041384456 5.05758081e-05 -0.0002982106841 -0.0004158888908)
5(0.001023067524 0.0002323223819 0.0005109191924 0.0007348496736 0.001358914741)
5(0.0001150750365 0.000833174315 0.0009031657473 0.0008585731646 0.0005693697973)
5(-0.0007206452265 0.001044558904 0.001710172876 0.002414127582 0.003729859898)
5(0.001879473797 0.001553015664 0.001810593137 0.004273104833 0.003990648132)
5(0.0008907325401 0.002036669748 0.004404647661 0.006594967552 0.01025337609)
5(0.001871020191 0.004312636819 0.007104208283 0.01032756919 0.01295762427)
5(0.00285982265 0.006977227022 0.01085590945 0.015479477 0.0167361056)
5(0.00523251453 0.01102679926 0.01676092195 0.02301662956 0.02757988822)
5(0.008437873046 0.01684308829 0.02503941774 0.03142245715 0.03221721143)
5(0.01374912389 0.024998766 0.03571064017 0.04435090412 0.04952978227)
5(0.02152566462 0.03638550384 0.04954819326 0.05752777879 0.05500089382)
5(0.03125311747 0.04921058328 0.06228449018 0.07210832376 0.07144962237)
5(0.04375380834 0.06531519674 0.08051209274 0.08248098936 0.07304533525)
5(0.05853155009 0.0808028064 0.09371068328 0.09228827537 0.0864401355)
5(0.07148063513 0.09160202863 0.09882651651 0.08864678931 0.05201191035)
5(0.08702760656 0.09549892853 0.09480735772 0.06761263877 0.04435653375)
5(0.0944151926 0.0889688156 0.06224738711 0.02771932626 -0.008113717302)
5(0.07870929054 0.05506417352 0.01579457525 -0.03995917556 -0.0888364408)
5(0.0522156137 -0.0003373620437 -0.06645541082 -0.1308073771 -0.1531684604)
5(0.003503705084 -0.0837801729 -0.1758219996 -0.2342525309 -0.2520026148)
5(-0.08871242763 -0.1979023972 -0.294962928 -0.3360638829 -0.2900609356)
5(-0.1826963228 -0.3198403264 -0.4071720747 -0.4051548626 -0.3283314522)
5(-0.3065948509 -0.4287306418 -0.4835116247 -0.4228667224 -0.2860362038)
5(-0.4014890176 -0.4957020708 -0.4923838691 -0.3704741972 -0.2144394786)
5(-0.4674236373 -0.4973237709 -0.4152304829 -0.2589142962 -0.1150546833)
5(-0.4628395245 -0.4118291363 -0.2741156787 -0.1061236615 0.009894517949)
5(-0.3744981547 -0.249688231 -0.08202864921 0.02876278048 0.07139040654)
5(-0.2305161097 -0.06853856872 0.07228629651 0.1260421681 0.1098627088)
5(-0.0577069344 0.09944287437 0.1725247781 0.1534852712 0.09304231788)
5(0.1029946553 0.1919393086 0.2033006961 0.1346624844 0.06368505709)
5(0.1795996668 0.2009791892 0.1511908969 0.08005719153 0.03301828371)
5(0.1844341237 0.1560840749 0.08619332542 0.04113961378 0.01399568417)
5(0.1429622768 0.08264661912 0.03747318727 0.01452670893 0.004104492463)
5(0.07572320528 0.0326283559 0.01184757065 0.004004152826 0.001024315695)
5(0.02645549916 0.008725463551 0.00250341137 0.0008214631525 0.000208483984)
5(0.006619720356 0.001538300926 0.0003533204491 0.0001288327223 4.989709202e-05)
5(0.001064562382 0.0001888463329 6.625812894e-05 3.914981396e-05 2.277519338e-05)
5(0.000125844402 6.454731233e-05 2.750952219e-05 3.963797792e-05 2.16093047e-05)
5(-1.687612904e-05 1.125850507e-05 1.136879383e-05 1.748899283e-05 2.192736265e-05)
5(1.942745717e-05 1.072480935e-05 2.102025495e-05 6.334121369e-06 5.969093117e-06)
)


60
(
5(6.644652334e-05 6.095451569e-05 5.491616279e-05 3.49006528e-05 2.055714661e-05)
5(5.93879482e-05 0.0001078358832 0.0002679136908 0.0007198965056 0.002167181415)
5(4.663048253e-05 0.0001094151206 0.0003038871299 0.0007420537823 0.00180931716)
5(5.223004784e-05 0.0001217347416 0.0003101439602 0.0007016698737 0.001645231737)
5(7.330968383e-05 0.0001579743927 0.0003629692118 0.0007664744907 0.001639940613)
5(9.835729007e-05 0.0002059891894 0.0004497285911 0.0008831257023 0.001718846043)
5(0.0001201087265 0.0002424049449 0.0005023401359 0.0009022579977 0.001442708824)
5(0.0001481051707 0.0002856228772 0.0005294456604 0.0009573819737 0.00182921382)
5(0.0001946882756 0.000357856528 0.0006123474699 0.0009207122723 0.001113369323)
5(0.0002243648303 0.0004016299879 0.0006793902636 0.001016138955 0.001546528948)
5(0.0003266524722 0.0004966665672 0.0007605398902 0.0009056196729 0.0003691873411)
5(0.0002798659317 0.0005509817794 0.000750400431 0.0008687499599 0.0004785605996)
5(0.0005454242399 0.0005653193446 0.0008323192376 0.0004944078178 -0.0009498365238)
5(0.0002202849843 0.000667185338 0.0006630099182 0.0003559509436 -0.0008053882924)
5(0.0005547993904 0.0006233470052 0.0007234281394 -2.665127579e-05 -0.002150825975)
5(0.0008577040173 0.0007810173239 0.0003527370078 -0.0003591717651 -0.002784431035)
5(0.0004626906504 0.0007109790238 0.0004178186092 -0.0005033840913 -0.003059288384)
5(0.0007797375419 0.0006332760419 0.000398626735 -0.001317218491 -0.002658182419)
5(0.0007880661479 0.0007557530695 0.0001367432548 -0.0005600087483 -0.002198196922)
5(0.0006336053161 0.0004603571642 1.791962494e-05 -0.0006416285657 -0.002025456638)
5(0.0005631727539 0.0004003698269 0.0002789241012 -0.0003985718002 0.001164935414)
5(0.0008274457028 0.0006081704031 0.0002108648741 0.0009178558928 -0.0003524871573)
5(0.0005728324432 0.0006717954948 0.0007507481723 0.001911224425 0.005494400655)
5(0.0001742474863 0.0009918468923 0.002011618793 0.004046109465 0.004659299312)
5(-0.0005758114938 0.002015795174 0.004260585516 0.007442679888 0.01327697118)
5(0.0008144292348 0.00112844242 0.006913269876 0.01259585115 0.01580508383)
5(0.00279467863 0.007196053608 0.01152210072 0.01915966666 0.0246700716)
5(0.004137180131 0.01122480538 0.01951336806 0.02941474921 0.03794784504)
5(0.006689226298 0.01852353796 0.03110705804 0.04274268018 0.04996552758)
5(0.01386872333 0.02929121793 0.04612613941 0.059583153 0.06725536252)
5(0.02280244162 0.04347729034 0.06386174732 0.08253213232 0.09418166339)
5(0.03663325041 0.06424402171 0.08893469112 0.1039643696 0.09367802749)
5(0.05625236961 0.08978552183 0.1150356916 0.1275224543 0.1325710784)
5(0.07977534469 0.1113847135 0.1370758697 0.1439827104 0.1322942808)
5(0.1025223195 0.1370735308 0.1578595196 0.1506917007 0.1254097163)
5(0.1226432408 0.1524148683 0.1642105623 0.138109175 0.1013333205)
5(0.138795987 0.1543777578 0.1402303599 0.09717653151 0.04208077885)
5(0.1503152891 0.1349266501 0.08686021484 0.01468028138 -0.05826172128)
5(0.1254221737 0.0755397753 -0.01174359042 -0.1067626555 -0.18614106)
5(0.07559363903 -0.02210676091 -0.1464467181 -0.2580016019 -0.3139514231)
5(-0.01590926093 -0.1625014325 -0.3211868833 -0.4316722086 -0.4398377264)
5(-0.1386506915 -0.3276264519 -0.5090810238 -0.5822256145 -0.5589679714)
5(-0.3006577322 -0.5077451616 -0.6617499383 -0.6695641002 -0.5440614043)
5(-0.4574219031 -0.6588658232 -0.7644911528 -0.6841767791 -0.4912502924)
5(-0.5963122911 -0.7301151936 -0.7148305086 -0.568090342 -0.3334960889)
5(-0.6321954774 -0.708471712 -0.6003916871 -0.3706387256 -0.1560629223)
5(-0.6306169891 -0.5555663031 -0.3615986992 -0.1303721754 0.026151031)
5(-0.5181737471 -0.3311103089 -0.07803610907 0.08193032028 0.1503512573)
5(-0.3008310756 -0.06926713475 0.1491114022 0.2273793393 0.1924924811)
5(-0.07450551128 0.1450622627 0.2765038004 0.2497517367 0.1754192179)
5(0.1233626247 0.2623182901 0.2829348573 0.2064721375 0.1132861141)
5(0.2336071629 0.2877582583 0.210664384 0.1231350206 0.05418304423)
5(0.2415054995 0.2009593753 0.1139217711 0.05895189668 0.0235782132)
5(0.1858010344 0.1069193196 0.04612602524 0.01975054852 0.006171965886)
5(0.1097911725 0.04380493437 0.0126255658 0.004865447868 0.001480625647)
5(0.03985948323 0.01137722456 0.002356546321 0.0007867658227 0.0002587580757)
5(0.0125204473 0.002078779995 0.000322270556 0.0001313440338 6.431661362e-05)
5(0.002463391265 0.0003228485041 7.214480077e-05 6.376709985e-05 4.996442754e-05)
5(0.0002996886747 3.96272351e-05 2.396710575e-05 3.319843008e-05 3.356795835e-05)
5(0.0002209014118 6.338856106e-05 2.584663001e-05 3.053828393e-05 2.08702729e-05)
)


60
(
5(0.0004660035314 0.0002112350918 0.000131746572 0.0001028072016 5.92269025e-05)
5(0.0001157311349 0.0002164575675 0.0005210762915 0.001397787403 0.004415795204)
5(0.0001050987134 0.0002222189607 0.0005935395783 0.001473367994 0.003932352211)
5(0.0001106969618 0.0002385094139 0.0005967545598 0.001369746835 0.002814999544)
5(0.0001358517779 0.0003021897342 0.000699961044 0.001440521885 0.002745125789)
5(0.0001950208623 0.0003940615536 0.0008348289132 0.001543227304 0.003371672545)
5(0.0002272760976 0.0004547344859 0.0008960136737 0.001590027216 0.002104024898)
5(0.0003025973887 0.0005592610184 0.001022189986 0.001695254053 0.003141683801)
5(0.0003435065103 0.0006391830349 0.001085160914 0.001679149692 0.00203568217)
5(0.000507172361 0.0007971602492 0.001268886842 0.001736148633 0.002279603788)
5(0.0004252076527 0.0008677375431 0.001304169503 0.001609447528 0.0006610285404)
5(0.0007867329256 0.001047324884 0.001447032333 0.001461907444 0.0008877007314)
5(0.0006129755202 0.001087908528 0.001373171832 0.001014689607 -0.001631393152)
5(0.001117940587 0.001235225191 0.001389370054 0.0006392323016 -0.001067807355)
5(0.0008135150404 0.001284646751 0.001194238966 -5.993496367e-05 -0.004397884868)
5(0.00112238331 0.001285115136 0.000983065046 -0.0003306611593 -0.002691351075)
5(0.00153104247 0.00148175588 0.0008656770958 -0.001077259022 -0.006057401218)
5(0.0008044471083 0.001113995589 0.0003889035468 -0.001174724194 -0.003524202213)
5(0.0020525824 0.00110567233 0.000376725575 -0.001870001597 -0.005057832155)
5(0.001220783336 0.0009549540025 -0.0002893945691 -0.001782622183 -0.003404887263)
5(-0.0004997386656 0.0001589585564 -0.000817780748 -0.001208772582 -0.0001366175157)
5(0.002635918849 5.050461247e-05 -0.0001034847078 -0.0009861416811 -0.00119603155)
5(-0.0004643407223 -0.000307601019 -0.0009763003629 0.0008091039567 0.00380882194)
5(-0.002242731925 -0.001146962452 -0.0004353690711 0.002741367059 0.007724650232)
5(-0.0001103895182 -0.0007498049706 0.002179915894 0.00540475542 0.009907919497)
5(-0.001390953545 0.0008976640831 0.004110300951 0.01147871472 0.0201106602)
5(-0.003679624288 0.002244307113 0.009205706779 0.02032082219 0.03044913872)
5(-0.001103693331 0.006490103895 0.01793869506 0.03156811575 0.04219600428)
5(0.00526094809 0.01530040228 0.03252117317 0.04846346002 0.06105817817)
5(0.01088952182 0.02944302616 0.05008409899 0.07316539264 0.09216621307)
5(0.01916183637 0.04638277336 0.07449520929 0.09926355722 0.1135893827)
5(0.03629522609 0.06969026095 0.1078239454 0.1357043741 0.1464409722)
5(0.05571772633 0.1021957284 0.1416132779 0.1709403143 0.1857193959)
5(0.09383623558 0.1407236461 0.1831933445 0.2042934148 0.1915691631)
5(0.1253624513 0.1808035486 0.2173076332 0.2294104729 0.205850133)
5(0.1607336389 0.214437742 0.2420218832 0.2300750097 0.1814416038)
5(0.1997764039 0.2339693631 0.2400356888 0.1929569766 0.1277106104)
5(0.2177176483 0.2249619596 0.1932591833 0.1192242445 0.0278050297)
5(0.2227775483 0.1862475841 0.103157964 -0.01698902673 -0.1514442871)
5(0.179683925 0.09570726862 -0.05200524305 -0.2117298939 -0.3718848398)
5(0.1057073664 -0.05497540084 -0.2617373613 -0.4487368978 -0.4964508234)
5(-0.0321290054 -0.2563987395 -0.511063392 -0.6807993637 -0.7703038631)
5(-0.2122799903 -0.4895851559 -0.7654594876 -0.8732034467 -0.8248569999)
5(-0.4095722757 -0.7104442357 -0.9700535443 -0.9949376464 -0.8427586784)
5(-0.629519317 -0.8915126956 -1.029251106 -0.9607485914 -0.6940706213)
5(-0.8015428577 -0.97154966 -0.9737571967 -0.7721535139 -0.4666269914)
5(-0.7675061724 -0.916105452 -0.761265969 -0.4670187136 -0.1702839435)
5(-0.8096626055 -0.7123480192 -0.4217908942 -0.1265561859 0.07957989324)
5(-0.6615099648 -0.407405321 -0.06192568183 0.1620220303 0.2585367628)
5(-0.3687104514 -0.0789769262 0.2265167712 0.3425711795 0.3116224716)
5(-0.1273178948 0.1928736212 0.3727486388 0.356008255 0.2597243278)
5(0.1086514594 0.3112082408 0.3738644765 0.2745125124 0.1562000459)
5(0.2951141045 0.35433907 0.2559337078 0.1645084813 0.07842368522)
5(0.2905480677 0.259678366 0.1417969674 0.06637524302 0.02695252366)
5(0.2731480329 0.1476324072 0.05374089729 0.02138857334 0.007475690313)
5(0.1468699118 0.06344008307 0.01487483771 0.004483286035 0.001237627998)
5(0.07417612576 0.01836615483 0.002423372322 0.0006474202065 0.0002476187733)
5(0.02704395031 0.004088098323 0.00036708412 0.0001280795173 9.79713543e-05)
5(0.009168883304 0.0003950600111 8.059440821e-05 5.155326793e-05 5.333041146e-05)
5(0.00758766386 0.00159422912 -9.151114824e-05 6.286655258e-05 4.913982695e-05)
)


60
(
5(0.01038417898 0.002338846729 0.0002076099654 0.0002794319962 0.0002079932319)
5(0.000191182615 0.000398876623 0.0009238375951 0.002325658968 0.007223826488)
5(0.0001897293117 0.0004003450898 0.001058822356 0.002554722015 0.006040206503)
5(0.0002066991997 0.0004208428666 0.001061654375 0.002391358937 0.005749357937)
5(0.0002248472586 0.0005273960928 0.001157322681 0.002383883529 0.004349848385)
5(0.0003555012663 0.0006736305451 0.001393491677 0.002610094134 0.004700085372)
5(0.0004346525167 0.0007933628082 0.001502430483 0.00256465457 0.004421848232)
5(0.0004307563385 0.0009483780966 0.001700588845 0.002706222678 0.003990202337)
5(0.0007573869468 0.001079255719 0.001802813617 0.002673100563 0.004167650233)