/*--------------------------------*- C++ -*----------------------------------*\
| =========                 |                                                 |
| \\      /  F ield         | OpenFOAM: The Open Source CFD Toolbox           |
|  \\    /   O peration     | Version:  2.3.1                                 |
|   \\  /    A nd           | Web:      www.OpenFOAM.org                      |
|    \\/     M anipulation  |                                                 |
\*---------------------------------------------------------------------------*/
FoamFile
{
    version     2.0;
    format      ascii;
    class       dictionary;
    location    "constant";
    object      la_i17;
}
// * * * * * * * * * * * * * * * * * * * * * * * * * * * * * * * * * * * * * //

la_i17_table
60
(

60
(
5(0.0006001658741 0.001885072558 0.001688484715 5.889438412e-06 -0.0003736037865)
5(0.0006006242786 0.001887548597 0.001692443815 5.892044987e-06 -0.0003734955986)
5(0.0006013988562 0.001887507844 0.001693106174 5.892348807e-06 -0.000373730914)
5(0.0006016059213 0.001887458184 0.001692836293 5.894480515e-06 -0.0003736813575)
5(0.0006015162821 0.001887376723 0.001692666937 5.89400156e-06 -0.0003736194118)
5(0.000601366297 0.001887273215 0.001693474673 5.893973636e-06 -0.0003736955384)
5(0.0006012934843 0.001887449238 0.001693652587 5.894828398e-06 -0.000373701962)
5(0.0006014063842 0.001887688378 0.001693651192 5.895037444e-06 -0.0003737295187)
5(0.0006014101693 0.001887830239 0.001693887401 5.895527579e-06 -0.0003737500525)
5(0.0006014645551 0.001888062293 0.001694053597 5.896160624e-06 -0.000373766036)
5(0.0006015116739 0.001888336477 0.001694327308 5.896820116e-06 -0.0003737859683)
5(0.0006015756346 0.001888585733 0.001694667122 5.897455489e-06 -0.0003738089879)
5(0.0006016289876 0.001888811491 0.001694949344 5.897975708e-06 -0.0003738268347)
5(0.0006016669969 0.001888994226 0.001695154356 5.898424707e-06 -0.000373841231)
5(0.0006017058561 0.001889134177 0.001695316253 5.898719579e-06 -0.0003738512566)
5(0.0006017305032 0.001889253374 0.001695428957 5.898933593e-06 -0.0003738583186)
5(0.0006017487867 0.001889324274 0.001695503858 5.899069083e-06 -0.0003738625228)
5(0.0006017610758 0.001889365885 0.00169554731 5.899146855e-06 -0.0003738651049)
5(0.0006017700209 0.001889391001 0.001695577325 5.899205937e-06 -0.0003738670124)
5(0.0006017762986 0.001889406825 0.001695598245 5.899243821e-06 -0.0003738683022)
5(0.0006017810138 0.001889422786 0.001695614827 5.899270425e-06 -0.000373869076)
5(0.0006017844462 0.00188943497 0.001695625033 5.899292294e-06 -0.0003738696646)
5(0.0006017866957 0.001889442544 0.001695632103 5.899300819e-06 -0.0003738698506)
5(0.0006017886793 0.001889446379 0.001695635106 5.89930129e-06 -0.0003738697822)
5(0.0006017896192 0.001889447541 0.001695634805 5.899294011e-06 -0.0003738694154)
5(0.0006017899098 0.001889446018 0.001695630483 5.899275771e-06 -0.0003738686893)
5(0.0006017894211 0.001889439858 0.001695622345 5.899246457e-06 -0.0003738675357)
5(0.0006017882141 0.001889428035 0.00169560747 5.899201028e-06 -0.0003738658175)
5(0.0006017856469 0.001889409453 0.001695585468 5.899135959e-06 -0.0003738633192)
5(0.0006017817865 0.001889381933 0.001695553086 5.89904587e-06 -0.0003738598405)
5(0.0006017757928 0.001889342489 0.001695505882 5.898912706e-06 -0.0003738547981)
5(0.0006017672295 0.001889287414 0.001695441675 5.898736052e-06 -0.0003738487409)
5(0.0006017553108 0.001889212381 0.00169535322 5.898507022e-06 -0.0003738400378)
5(0.0006017387113 0.001889110372 0.001695232723 5.898195182e-06 -0.0003738293962)
5(0.00060171606 0.001888976414 0.001695080702 5.897817751e-06 -0.000373817058)
5(0.0006016865368 0.001888805599 0.001694878638 5.89734569e-06 -0.0003738022352)
5(0.0006016478612 0.001888596745 0.001694662103 5.896864278e-06 -0.0003737845804)
5(0.0006016011892 0.001888347343 0.001694405273 5.896236004e-06 -0.0003737723693)
5(0.0006015448506 0.001888076492 0.001694122564 5.895786713e-06 -0.0003737491315)
5(0.0006014807809 0.001887795076 0.001693840591 5.894933811e-06 -0.0003737480935)
5(0.0006014148615 0.001887534996 0.001693639675 5.894690815e-06 -0.000373762449)
5(0.0006013555234 0.001887332471 0.001693463938 5.895188887e-06 -0.0003737786803)
5(0.0006013052278 0.001887236953 0.001693346634 5.896190674e-06 -0.0003738040712)
5(0.0006012805778 0.001887307409 0.001693398656 5.896720392e-06 -0.0003738211863)
5(0.0006012830896 0.001887476073 0.00169378189 5.897379223e-06 -0.000373839058)
5(0.0006013298587 0.001887760132 0.001694372777 5.898055899e-06 -0.0003738540123)
5(0.0006013987036 0.001888075117 0.001694976924 5.898681436e-06 -0.0003738646324)
5(0.0006014869317 0.001888561721 0.001695285295 5.899074336e-06 -0.0003738707806)
5(0.0006015850351 0.001889019657 0.001695491976 5.899297384e-06 -0.0003738736766)
5(0.0006016449662 0.001889318094 0.001695623706 5.899406859e-06 -0.000373874803)
5(0.0006017479549 0.001889430507 0.001695681443 5.899449333e-06 -0.0003738751864)
5(0.0006017906668 0.00188949771 0.001695703316 5.899463376e-06 -0.0003738753003)
5(0.0006018026213 0.001889520352 0.001695710046 5.899467359e-06 -0.0003738753309)
5(0.0006018071104 0.00188952678 0.001695711802 5.899468348e-06 -0.0003738753382)
5(0.0006018081923 0.001889528093 0.001695712152 5.899468557e-06 -0.0003738753397)
5(0.0006018083724 0.001889528319 0.001695712209 5.899468593e-06 -0.00037387534)
5(0.0006018083901 0.001889528343 0.001695712216 5.899468598e-06 -0.00037387534)
5(0.0006018083913 0.001889528345 0.001695712217 5.899468596e-06 -0.00037387534)
5(0.0006018083914 0.001889528346 0.001695712217 5.899468601e-06 -0.00037387534)
5(-5.220151762e-17 -2.777944934e-16 -1.992000485e-28 -1.176617977e-13 -3.0158889e-17)
)


60
(
5(2.219498974e-10 -3.086278859e-11 7.705173805e-24 1.27520034e-08 -4.067380673e-12)
5(-0.000395480922 -2.606913781e-05 0.0001888404182 -6.728139816e-05 -9.279806141e-05)
5(-1.649920749e-05 -3.972221564e-05 0.0001360803393 8.947339571e-06 -6.766354731e-05)
5(-8.896757255e-06 -3.734951577e-05 -4.941681049e-06 -6.936352328e-06 -4.031203642e-05)
5(-6.782748479e-05 -5.019390241e-05 5.998461495e-05 -5.147693003e-05 -5.221202786e-05)
5(-6.09873929e-05 -9.339402268e-05 -2.639078096e-05 -0.0001087912485 -6.730355703e-05)
5(-3.394330825e-05 -6.660823111e-05 -0.0001900812198 -9.770990966e-05 -8.148870503e-05)
5(-7.698311144e-05 -6.661296607e-05 -9.508794341e-05 -8.094108387e-05 -8.253198752e-05)
5(-6.116572775e-05 -0.000104237768 -9.415172669e-05 -8.190558803e-05 -6.398282933e-05)
5(-2.165191885e-05 -3.332166029e-05 -4.328549674e-05 -2.0143727e-05 -2.319802894e-05)
5(4.048872874e-05 6.663622271e-05 2.53221404e-05 5.375443945e-05 3.569658324e-05)
5(0.0001010924382 0.0001248645961 0.0001291026845 0.0001227715153 9.74926446e-05)
5(0.0001761189377 0.0001902462066 0.0001882558278 0.0001760297184 0.0001396714236)
5(0.000193367437 0.0001977462484 0.0002160046521 0.0001869300726 0.0001499891485)
5(0.0001893617055 0.0001719843222 0.0001895053342 0.0001535973788 0.0001309714295)
5(0.00016081388 0.000133710474 0.0001453251036 0.0001108796646 9.878186314e-05)
5(0.0001209509411 9.258058627e-05 0.0001044650927 7.617903554e-05 6.809060348e-05)
5(8.564987517e-05 6.671488577e-05 7.045894477e-05 5.011499884e-05 4.478571654e-05)
5(6.148151893e-05 4.52723043e-05 4.864216408e-05 3.465744386e-05 3.019001902e-05)
5(4.635417585e-05 3.46902057e-05 3.477363028e-05 2.572720278e-05 2.181375039e-05)
5(3.649088799e-05 2.762777476e-05 2.739525887e-05 1.942733543e-05 1.62926561e-05)
5(2.95686643e-05 2.347878076e-05 2.156249605e-05 1.672541225e-05 1.335133353e-05)
5(2.532075863e-05 1.932932e-05 1.885098228e-05 1.514950176e-05 1.217474192e-05)
5(2.285485084e-05 1.848183222e-05 1.77346326e-05 1.345045252e-05 1.231541974e-05)
5(2.221371934e-05 1.82495304e-05 1.663451553e-05 1.543684928e-05 1.360881582e-05)
5(2.178522966e-05 1.990632949e-05 2.060193747e-05 1.810431689e-05 1.616068985e-05)
5(2.362548725e-05 2.188581643e-05 2.363609405e-05 2.269724858e-05 2.015823123e-05)
5(2.592099854e-05 2.732897765e-05 2.906956039e-05 2.934239115e-05 2.59984476e-05)
5(3.101489784e-05 3.454969783e-05 3.820973355e-05 3.778990676e-05 3.327467124e-05)
5(3.87241673e-05 4.415278259e-05 4.954554126e-05 4.960378638e-05 4.163570004e-05)
5(4.844932508e-05 5.775879447e-05 6.266671639e-05 6.064041326e-05 5.151115621e-05)
5(6.041365802e-05 7.094906021e-05 7.819150298e-05 7.506146598e-05 5.878356366e-05)
5(7.578172143e-05 9.012232069e-05 9.473997303e-05 8.550377653e-05 6.146303463e-05)
5(9.076579047e-05 0.00010651014 0.000107352028 8.742912657e-05 5.665685681e-05)
5(0.0001033622154 0.0001120870979 0.0001070185277 7.798538032e-05 3.975963516e-05)
5(0.0001074360619 0.0001123199088 9.226452186e-05 5.347693294e-05 6.01218092e-06)
5(9.449634695e-05 8.49554595e-05 5.379222503e-05 -2.92997644e-06 -4.469155062e-05)
5(5.688869536e-05 2.376606686e-05 -2.899219153e-05 -8.400010227e-05 -0.0001071330885)
5(-1.65133728e-05 -7.206238936e-05 -0.0001426514999 -0.0001774801469 -0.0001653679594)
5(-0.0001409004084 -0.0002025610852 -0.0002706378451 -0.0002784141567 -0.0002034754972)
5(-0.000298691544 -0.0003580746125 -0.0003947824774 -0.0003424973975 -0.0002093773327)
5(-0.0004645186899 -0.0004920881656 -0.0004801363167 -0.0003586563498 -0.0001779653219)
5(-0.0006090385595 -0.0005817447607 -0.0005037568808 -0.0003051726833 -0.0001118686286)
5(-0.0006745413344 -0.0005615200139 -0.0004041345651 -0.0001685196666 -3.74926096e-05)
5(-0.0006184805099 -0.0004303295477 -0.0002265057645 -1.839451783e-05 1.85963717e-05)
5(-0.0004415613803 -0.0002199245521 -2.90713256e-05 8.740590617e-05 4.597599456e-05)
5(-0.0001870243616 2.136651319e-05 0.0001282582822 0.0001197157341 4.636584868e-05)
5(6.890641518e-05 0.0001900744707 0.0002012431389 0.0001020034454 3.305214102e-05)
5(0.0002458493281 0.0002541858389 0.0001811797232 6.199068783e-05 1.845083834e-05)
5(0.0002919240157 0.0002193647169 0.0001058775314 2.929797852e-05 8.340682297e-06)
5(0.0002399744902 0.0001351996498 5.037934211e-05 9.688347909e-06 3.048750799e-06)
5(0.0001441414402 5.885928344e-05 1.611690526e-05 2.720615127e-06 8.754674543e-07)
5(6.794174332e-05 1.801286062e-05 3.922209433e-06 6.535024526e-07 1.593142724e-07)
5(2.39507234e-05 4.135947271e-06 8.241102431e-07 1.403444694e-07 9.390962025e-09)
5(7.104049726e-06 5.875615502e-07 1.236858113e-07 2.521689744e-08 -5.702103335e-09)
5(1.387892144e-06 7.204030307e-08 1.442878308e-08 3.467118063e-09 -2.091537156e-09)
5(1.648408054e-07 4.183709099e-09 1.217087466e-09 6.136602362e-10 -3.363584106e-10)
5(5.898171543e-08 2.872961379e-09 4.314675646e-11 4.919385483e-08 4.891233254e-10)
5(1.19212258e-11 -8.371534827e-09 4.741491535e-10 -1.23333514e-08 -2.908810285e-13)
5(2.308645195e-11 4.516062587e-11 -2.154625942e-11 6.419498665e-11 1.74581129e-11)
)


60
(
5(-1.337360792e-07 -2.230295322e-06 -2.430450332e-06 -3.091317657e-06 -1.029105657e-06)
5(-0.0001041802374 1.361040754e-05 -0.0001083734058 -0.0001455307236 -9.656786706e-05)
5(5.31080992e-05 -0.0001086021392 -9.847111666e-06 -0.0001077523623 -0.0001072779799)
5(-0.0002247855749 -0.0001716135482 -0.000147129141 -0.0001406785845 -0.0001205127015)
5(-0.000114633805 -0.0001940995318 -0.0001310903038 -0.0001489192947 -0.0001192117598)
5(-0.0001812170749 -0.0001968021438 -0.0001879046067 -0.0002057840389 -0.0001381705842)
5(-0.0001991429935 -0.0002977575246 -0.0002699365549 -0.0002217542733 -0.0001634592134)
5(-0.0003463940805 -0.0002721406396 -0.0003078445107 -0.0002392695197 -0.0001755167818)
5(-0.0001405603054 -0.0001928207149 -0.0002264773652 -0.0001976354385 -0.0001913378732)
5(-3.164408782e-05 -6.884531824e-05 -0.0001703529376 -8.910990754e-05 -9.055944928e-05)
5(1.212321741e-05 0.0002111167732 0.0001169972566 9.355904245e-05 1.215951197e-05)
5(0.0003740460101 0.0004489933713 0.0003668664246 0.0003054571783 0.0001554627286)
5(0.0007258437059 0.0007164462668 0.0006037889316 0.0004680598776 0.0002842447512)
5(0.0007971177823 0.0008378270509 0.0007225085554 0.0005506243768 0.0003368471911)
5(0.0009079612896 0.000782683703 0.0007397264296 0.0005099315865 0.0003462824657)
5(0.0007448071232 0.0006656149134 0.0006069003224 0.0004189048102 0.0002750419631)
5(0.0006130056518 0.000488255537 0.0004668733152 0.000311367199 0.0002112279965)
5(0.0004492933006 0.0003552623493 0.0003209032351 0.0002178178417 0.0001424091405)
5(0.0003154400631 0.0002544810191 0.0002337556381 0.0001516608015 0.0001013772425)
5(0.0002521009641 0.0001866208197 0.0001656045669 0.0001106097064 7.27635238e-05)
5(0.0001587551102 0.0001428376374 0.0001256018978 8.324128014e-05 5.781370721e-05)
5(0.0001610345136 0.0001153072249 9.430833557e-05 6.417930043e-05 4.322428742e-05)
5(0.0001090037669 9.414508883e-05 8.048916247e-05 5.73180272e-05 3.802537149e-05)
5(0.0001103813899 8.152873732e-05 6.974819221e-05 5.026428033e-05 3.696736587e-05)
5(8.176815738e-05 7.384858996e-05 6.546936303e-05 5.021164563e-05 3.901688596e-05)
5(8.463851904e-05 7.180604351e-05 6.397509107e-05 5.159905013e-05 4.114780789e-05)
5(8.197455348e-05 6.959830123e-05 6.519928074e-05 6.078474901e-05 5.251666598e-05)
5(7.091173685e-05 8.064497944e-05 8.08032787e-05 7.543739534e-05 6.527014855e-05)
5(9.165737455e-05 8.899138918e-05 9.402605832e-05 9.233958795e-05 8.748701084e-05)
5(9.200853678e-05 0.0001065816587 0.0001152384695 0.0001186242191 9.689387991e-05)
5(0.0001140452616 0.0001359360016 0.0001464227198 0.0001474265781 0.0001376548947)
5(0.0001357635188 0.0001617327512 0.0001791379735 0.0001788991987 0.000151496861)
5(0.0001654803953 0.0001926251598 0.0002145286209 0.0002010311315 0.0001839901066)
5(0.0001944145858 0.0002319903368 0.0002472351551 0.0002263189239 0.0001696445571)
5(0.0002396317097 0.0002528542767 0.0002504392755 0.0002189904928 0.0001664526764)
5(0.0002527555445 0.0002546136564 0.0002387998454 0.000170976975 0.000104873493)
5(0.0002106809346 0.0002172409415 0.000159575793 6.881167341e-05 -1.856126882e-05)
5(0.0002365600773 0.0001220855503 1.566329973e-05 -9.824854044e-05 -0.00016515514)
5(8.504605351e-05 -5.802227176e-05 -0.0001924083325 -0.0003239768241 -0.0003414580566)
5(-7.690676519e-05 -0.0003195093446 -0.0004946414789 -0.0005903077457 -0.000554673052)
5(-0.0003356061631 -0.0006313593222 -0.0008112682108 -0.000834617143 -0.0006680174881)
5(-0.0006599108691 -0.0009689495589 -0.001102261743 -0.0009823951194 -0.00068979287)
5(-0.001006339294 -0.0012390429 -0.001248168832 -0.0009775343975 -0.0005871617678)
5(-0.001216128878 -0.001351262924 -0.001204877821 -0.0007877988247 -0.0003685465732)
5(-0.001331254331 -0.001251515909 -0.0009213169623 -0.0004530471157 -0.0001228702798)
5(-0.001188641686 -0.0008835388107 -0.0004819170446 -9.541167719e-05 0.0001018225636)
5(-0.0007914499427 -0.0004031229772 1.161127085e-05 0.0002131697888 0.0001942618316)
5(-0.0003032485763 0.0001270567469 0.0003514395143 0.0003452255888 0.0002037263703)
5(0.000164394427 0.0004596168071 0.0004975604146 0.000300130116 0.0001419052844)
5(0.0004938538776 0.0005547449278 0.0004201854271 0.0002165114888 7.514272914e-05)
5(0.0005377294579 0.0004536679103 0.0002625539449 0.0001037777439 3.195263234e-05)
5(0.0004302377721 0.000271590569 0.0001252118506 4.20393683e-05 9.628577584e-06)
5(0.0002324501919 0.0001143813394 4.145278179e-05 1.197692877e-05 2.647486822e-06)
5(8.864510939e-05 3.416073512e-05 1.040036119e-05 2.797109367e-06 6.011891552e-07)
5(2.005671203e-05 6.700101782e-06 1.675189366e-06 4.521830634e-07 1.056468515e-07)
5(2.938472835e-06 8.309414704e-07 2.014111107e-07 6.036539654e-08 1.576231393e-08)
5(2.185664264e-07 5.18600682e-08 1.411029494e-08 -5.925994806e-09 1.518507183e-09)
5(8.407850081e-09 -2.736743918e-06 6.882090074e-09 -2.322988104e-06 2.008419492e-10)
5(4.348001614e-07 7.451758056e-07 3.990351918e-09 5.414662137e-07 1.023941091e-07)
5(9.376276234e-12 -3.672254239e-08 -1.218569904e-09 -6.389505797e-09 -2.085668667e-14)
)


60
(
5(-1.6503539e-05 -1.389333611e-08 -1.030105021e-05 -7.643560883e-06 -2.465792079e-06)
5(-8.085256602e-05 1.76216977e-05 -0.0003184058838 -0.0002362295757 -0.0001440437307)
5(-0.0002400738772 -0.0002960694611 -0.0002229576953 -0.0002514510097 -0.0001679818438)
5(-0.0002944562375 -0.0004077969988 -0.0002962516235 -0.0003015348905 -0.0001888073831)
5(-0.0004046109247 -0.0004264011134 -0.0003796048422 -0.0003250837642 -0.0002264328233)
5(-0.0004770216695 -0.0005697072187 -0.0004598161381 -0.0003649889282 -0.0002622498896)
5(-0.0005729438871 -0.0005368256627 -0.0005461426239 -0.0004295921474 -0.00031865885)
5(-0.0004404328691 -0.0005743963837 -0.0006067189813 -0.0004923012002 -0.0003478160918)
5(-0.0006621460456 -0.0006306154533 -0.0005312280199 -0.0004377736765 -0.000376290762)
5(-0.000382455401 -0.0001349591992 -0.000310343028 -0.0002593780398 -0.0002677901184)
5(0.0004070879592 0.0002819884308 6.163581217e-05 2.916386769e-05 -0.0001137293383)
5(0.00081881528 0.0009952785652 0.0005940371241 0.0004084162488 0.0001280870996)
5(0.001549669788 0.001591384058 0.001206398311 0.00081607649 0.0004339316788)
5(0.0020130485 0.002012974487 0.001557114191 0.001083184868 0.0005459615716)
5(0.002499420668 0.002045958687 0.001690155164 0.001098886696 0.0006815976259)
5(0.002211534323 0.001785883216 0.001534676764 0.0009873799681 0.0005812477277)
5(0.001802233587 0.001472602765 0.001250314899 0.0008086820737 0.0005047284634)
5(0.001450315552 0.001102288584 0.0009176147116 0.0005886798486 0.0003618415047)
5(0.001023558992 0.0008112900583 0.0006759218687 0.000431793329 0.0002638307575)
5(0.0007675411922 0.0005851990251 0.0004748949676 0.0003072834976 0.0002003277609)
5(0.0005627286628 0.0004315927368 0.000363642574 0.0002393442038 0.0001506013883)
5(0.0004567615124 0.0003497092578 0.000278759266 0.0001784334845 0.0001141092221)
5(0.0003496651974 0.0002780299832 0.0002240945886 0.0001503202259 9.83235843e-05)
5(0.0003028531491 0.0002298767916 0.0001769126782 0.0001309028789 8.069536545e-05)
5(0.0002626888336 0.0001941614102 0.0001661681674 0.0001184534273 9.330049339e-05)
5(0.0002193809874 0.0001839065927 0.0001551250271 0.0001185930448 9.27514317e-05)
5(0.0002123547145 0.0001752864454 0.0001522101549 0.0001271556154 9.785949261e-05)
5(0.0001842922015 0.0001764080873 0.000163372132 0.000147695045 0.0001343015649)
5(0.0001951202085 0.0001874237481 0.0001863339411 0.0001721590004 0.0001464298084)
5(0.0002079003179 0.0002104595085 0.0002197831368 0.0002181496053 0.0002103781836)
5(0.0002272807582 0.0002492132407 0.0002667563142 0.0002664950366 0.0002364253562)
5(0.0002570206013 0.0002922371684 0.0003141077129 0.000324312001 0.0003040743396)
5(0.0003045010526 0.0003525349187 0.0003853401712 0.0003755388441 0.0003299280696)
5(0.0003505216591 0.0004127787102 0.0004438112969 0.0004299515762 0.0004023613971)
5(0.0004011082266 0.0004562768889 0.0004806510682 0.0004418316113 0.0003108033949)
5(0.0004600179842 0.00048317736 0.0004875569611 0.0003969991322 0.0003144283837)
5(0.0004888670231 0.0004708150369 0.0003921191101 0.0002748536095 0.0001381790158)
5(0.0004295875928 0.0003549590348 0.0002313188626 3.454838297e-05 -0.0001569795315)
5(0.0003226441033 0.0001476021546 -8.272825216e-05 -0.0003259942054 -0.0004453882628)
5(0.0001245174974 -0.0001963633601 -0.0005306868046 -0.0007810722686 -0.0008961295117)
5(-0.0002497626945 -0.0006728259438 -0.001067750377 -0.00127826317 -0.001167655266)
5(-0.0006628983256 -0.001220067228 -0.001620170013 -0.001688693812 -0.001458349483)
5(-0.001208452598 -0.001744720718 -0.002048674035 -0.001899949122 -0.001389360267)
5(-0.00165435158 -0.002125293787 -0.002208463462 -0.001800252846 -0.001154912986)
5(-0.001989130343 -0.002211871334 -0.002000029318 -0.001374769483 -0.0007368542311)
5(-0.002031181017 -0.001899335418 -0.001431021229 -0.0007137849602 -0.000143764304)
5(-0.001688214501 -0.001293929355 -0.0005764031748 -7.182492224e-05 0.0002242002395)
5(-0.001096498315 -0.0004693885982 0.000134986713 0.0004660962089 0.0004748396476)
5(-0.0003619343332 0.0003046111224 0.0006538315699 0.0006594036877 0.000436673685)
5(0.0003337836066 0.0007494553683 0.0008878834664 0.0006290030491 0.0003183185816)
5(0.0006955371057 0.0008301716024 0.0006747412932 0.0003813231234 0.0001706440481)
5(0.0007411192617 0.0006756022831 0.0003954336982 0.0002021681755 7.289169415e-05)
5(0.0005867916398 0.0003603534134 0.0001743606486 7.202369164e-05 2.159417006e-05)
5(0.0003158740221 0.0001434738621 5.534946413e-05 1.97630161e-05 5.407528438e-06)
5(0.0001093595291 3.833958018e-05 1.148928188e-05 3.939753719e-06 1.036032461e-06)
5(2.759069548e-05 6.513030504e-06 1.442965506e-06 5.200259574e-07 1.417161341e-07)
5(4.183227505e-06 6.655611174e-07 1.184347197e-07 1.204144821e-07 1.376437177e-08)
5(3.493772023e-07 1.083920873e-05 -1.268480891e-07 1.482683951e-05 -6.857375636e-10)
5(-1.562910762e-06 -2.928437213e-06 3.441173731e-08 -3.742610132e-06 -9.191193918e-07)
5(1.60981041e-09 -1.342615127e-07 9.488804924e-09 3.21227868e-07 1.057870214e-13)
)


60
(
5(-3.626949753e-05 -7.269602391e-05 -1.79819232e-05 -1.036487519e-05 -5.77741226e-06)
5(-0.0004860555319 1.596018003e-05 -0.0005028913482 -0.0003191069697 -0.0001056272417)
5(-0.0005510824148 -0.0004651278429 -0.0005268173842 -0.0004287051816 -0.0002124472224)
5(-0.0006602770032 -0.0008684982672 -0.0006431960912 -0.0005115635389 -0.0003089580642)
5(-0.0008462590068 -0.0009608622953 -0.000695997378 -0.0005630507125 -0.000353752758)
5(-0.0007638168625 -0.0008979724587 -0.0008483971932 -0.0006380106412 -0.0004443404221)
5(-0.001223479554 -0.001111297397 -0.000959203998 -0.0007728746763 -0.0005505578185)
5(-0.001183766004 -0.001086185537 -0.001039441772 -0.0008149148186 -0.0006286070767)
5(-0.0009553452283 -0.0009555061629 -0.001043418433 -0.0008517118595 -0.0006721755995)
5(-0.0008925237272 -0.0008175432991 -0.0007525287561 -0.0006517695109 -0.0006046540114)
5(0.0002938538798 0.0004187872042 -0.0001200436389 -0.0002513370193 -0.00035384966)
5(0.001542691087 0.001346356089 0.0008016780887 0.0004164276295 2.027882413e-05)
5(0.003011052977 0.002622508547 0.001735347508 0.001094800635 0.0004421079734)
5(0.003664202382 0.003603736343 0.002648058438 0.001656701918 0.0008429187189)
5(0.004850523564 0.004021459489 0.002992299159 0.001888751968 0.001030371068)
5(0.004786781768 0.003833542672 0.002894793315 0.001879597316 0.001022862163)
5(0.004022379827 0.003223659781 0.002574488842 0.001623053964 0.0009734561123)
5(0.003365344782 0.002556604185 0.002042890848 0.001249952609 0.0007342926549)
5(0.002494036783 0.00190277563 0.001503355596 0.0009647255966 0.0005820150453)
5(0.001847334313 0.001400509837 0.00111022211 0.0007064875172 0.0004161023763)
5(0.001398859593 0.001051269882 0.0008284267342 0.0005320960662 0.0003488180676)
5(0.001057371656 0.0008157669557 0.0006305316993 0.0004155287841 0.0002454153349)
5(0.0008481576326 0.0006407913539 0.0004962268839 0.0003279756227 0.0002085226041)
5(0.0006481097117 0.0005243968566 0.0004099825457 0.0002759712631 0.0001800521554)
5(0.0006100109673 0.000443442638 0.0003535232193 0.0002454647056 0.0001771161)
5(0.0004557965477 0.0003625840718 0.0003112119948 0.000233691742 0.0001606994781)
5(0.0004583112692 0.0003654315632 0.000291411219 0.0002326070182 0.0001854349671)
5(0.0004039047716 0.0003421451001 0.000299146168 0.0002537782083 0.0002167034182)
5(0.0003894640806 0.0003437518332 0.0003239255937 0.0002885760194 0.0002565703221)
5(0.0003705444089 0.0003648735151 0.0003621342923 0.0003400654968 0.0003127255507)
5(0.000394166887 0.0004016329523 0.0004142269758 0.0004207933386 0.0004086766434)
5(0.0004382567318 0.0004711479864 0.000502089583 0.0004971570083 0.0004259694942)
5(0.0004963895863 0.0005564814039 0.0005942484803 0.0005919675414 0.0005760738658)
5(0.0005673734616 0.0006240651119 0.0006782890459 0.0006698751838 0.0006112659149)
5(0.0006409054833 0.0007181520039 0.0007670649368 0.0007231596674 0.0006289430039)
5(0.0006996542028 0.000778572128 0.0008108043575 0.0007150743586 0.0005911327649)
5(0.0007532645911 0.000789179893 0.0007476285661 0.0006045573247 0.0004250038533)
5(0.0007859318077 0.0007228602366 0.0005733448058 0.0003332985912 5.458601148e-05)
5(0.00067746576 0.0005081362147 0.0002196692696 -0.0001195919257 -0.0004185981356)
5(0.0004714862292 0.0001238703251 -0.0003164487777 -0.0007416759951 -0.0009979199661)
5(8.985848789e-05 -0.0004415908286 -0.001046946538 -0.00150181526 -0.001627623358)
5(-0.0004216541501 -0.001153472771 -0.00188164997 -0.002250581957 -0.002272310243)
5(-0.001105087509 -0.001954065908 -0.002642535501 -0.002803989256 -0.002422879191)
5(-0.001793541149 -0.002650559702 -0.003205866251 -0.003028959367 -0.002366019066)
5(-0.002412965183 -0.0030729173 -0.00319362216 -0.002715099272 -0.001786315029)
5(-0.002630171078 -0.00306548448 -0.002796273695 -0.001911280875 -0.001018693965)
5(-0.002676583189 -0.002510914196 -0.00183466178 -0.0009450271885 -0.0001546624276)
5(-0.002256637534 -0.001604348138 -0.0006106629325 0.0001222350018 0.0005126329565)
5(-0.001378582042 -0.0004861837974 0.000440995691 0.0008638313976 0.000818474784)
5(-0.0004392123793 0.0004465409628 0.001069138701 0.001048427172 0.0008001511099)
5(0.0003961946404 0.0009784840041 0.001172662662 0.0009172977519 0.0005389535018)
5(0.0008762417171 0.001175334253 0.0009028846059 0.0005615565466 0.0002650083515)
5(0.000931480857 0.0008208034186 0.0004949428251 0.0002745582494 0.0001172676285)
5(0.0007301578451 0.0004401945102 0.000202476414 9.221058783e-05 3.009540314e-05)
5(0.0004370448082 0.0001825121034 5.5287031e-05 2.243693685e-05 7.135236399e-06)
5(0.0001567921528 4.698628109e-05 9.972396044e-06 3.377090071e-06 1.085604094e-06)
5(4.945433126e-05 8.339327245e-06 1.038662687e-06 3.750316925e-07 8.490751385e-08)
5(9.425576793e-06 8.810169357e-06 3.77506915e-08 8.115215749e-06 3.337932647e-09)
5(2.884480468e-07 -5.946353463e-07 -1.843514351e-08 -7.05376235e-07 -3.033171965e-07)
5(6.687642216e-07 4.252421455e-07 1.135727854e-08 6.056690177e-08 5.215524568e-11)
)


60
(
5(-0.0001876383856 -5.19293486e-05 -6.914936246e-05 -3.251200659e-05 -1.380665096e-05)
5(-0.0010872067 -2.551928687e-05 -0.0006905893935 -0.0003099122878 -3.950974478e-05)
5(-0.0009825597141 -0.0009771082732 -0.0009365953526 -0.0006357237871 -0.0002397298847)
5(-0.001122926205 -0.001379624907 -0.001023621871 -0.0007798463104 -0.0004376837799)
5(-0.001451339077 -0.001436165586 -0.001192264716 -0.0008777018857 -0.0005586142645)
5(-0.001912203965 -0.001638896053 -0.001317494652 -0.0009868138118 -0.0006659582183)
5(-0.001488276988 -0.001886088131 -0.001596146835 -0.001229190364 -0.0008919356692)
5(-0.002291354678 -0.001853395649 -0.001679098229 -0.001389509518 -0.00100744396)
5(-0.001647876183 -0.001858961246 -0.00182756477 -0.001446670875 -0.00117503307)
5(-0.001767273652 -0.001172343839 -0.001372120371 -0.00128193666 -0.001035195579)
5(0.0003770542618 -0.0001644659794 -0.0006619724344 -0.0007492729811 -0.0008346436186)
5(0.001589398037 0.00165580396 0.0006510827733 9.751104231e-05 -0.0002512758818)
5(0.004557123665 0.00372566771 0.002211328365 0.001181710722 0.0003421483383)
5(0.006159547273 0.005435003462 0.003669120826 0.00218461481 0.001000771102)
5(0.007945778786 0.006352958422 0.00463174402 0.002818511945 0.001482370559)
5(0.008334804269 0.006541801162 0.004793550271 0.002965988052 0.001596161823)
5(0.00783162205 0.005995262228 0.004396484489 0.002773505958 0.001600958604)
5(0.006124184639 0.004924289618 0.003705919041 0.002338010563 0.001301066222)
5(0.00492913977 0.003798089969 0.002912188957 0.00182378403 0.001112110577)
5(0.003911579663 0.002838526398 0.002173445941 0.001388186644 0.0007858792752)
5(0.002780729694 0.002135045573 0.001637160408 0.001059987146 0.000640415713)
5(0.002254660424 0.001647112467 0.001265615222 0.000810036422 0.0005081928628)
5(0.001600490492 0.001290286645 0.0009734796756 0.0006525497509 0.0004118377686)
5(0.001366917257 0.001025996777 0.0007887698715 0.0005346231008 0.000344070929)
5(0.001139390002 0.0008601174993 0.0006717506543 0.0004531314098 0.0003013122758)
5(0.0009627833341 0.0007423509507 0.0005732472626 0.0004177945518 0.0002969987862)
5(0.0007738318876 0.0006499976685 0.0005263713595 0.0004047533168 0.0003091377401)
5(0.0007133745087 0.0005971588204 0.0005083836184 0.0004100834374 0.0003174861038)
5(0.0007188018166 0.000585974946 0.0005276341575 0.0004468748176 0.0003859110142)
5(0.000651545032 0.0006048852373 0.0005598428994 0.0005173074439 0.0004798745454)
5(0.000670192844 0.00063394674 0.0006247029204 0.0005952166355 0.0005504892147)
5(0.0006883249688 0.0006930737726 0.0007279359484 0.0007215781564 0.0006782825016)
5(0.0007253944384 0.0007924090356 0.0008317709236 0.0008478293421 0.0008431480697)
5(0.0008669772588 0.0009149194312 0.0009792770324 0.0009791095058 0.0008655213525)
5(0.0009210302907 0.001043555762 0.001104311043 0.001092877175 0.0009917122391)
5(0.001044196809 0.00115104266 0.001203500133 0.001133168677 0.0009582899257)
5(0.001143403144 0.001206391174 0.001212202806 0.001042705918 0.0008227769332)
5(0.001183847953 0.001166040752 0.00105301092 0.0008128085146 0.0005004066101)
5(0.001160858234 0.001016665896 0.0007367175809 0.0003281327559 -0.0001440401916)
5(0.0009576385796 0.0006541792055 0.0001575857319 -0.0004246596128 -0.001041470023)
5(0.000633862807 5.835198748e-05 -0.0006956622605 -0.001388807843 -0.001666957513)
5(6.342127133e-05 -0.0007665521516 -0.001735186956 -0.002457979627 -0.002934303238)
5(-0.0006915595509 -0.001764731595 -0.002894937289 -0.003454039353 -0.003414574253)
5(-0.001518296494 -0.002733586646 -0.00385643118 -0.004143860781 -0.003756226869)
5(-0.002456999171 -0.003581396426 -0.00433602685 -0.004237023916 -0.003324496833)
5(-0.003208045681 -0.004027017394 -0.004252392491 -0.003617678796 -0.002479872476)
5(-0.003131138787 -0.003888933172 -0.003480781136 -0.002385102539 -0.001200586279)
5(-0.003355859885 -0.003111567586 -0.002082185744 -0.0009624766591 2.718817065e-05)
5(-0.002790395651 -0.001884602037 -0.0006087137833 0.0003713888494 0.0009292705959)
5(-0.001629875503 -0.000590789894 0.0007297738223 0.001326201696 0.001311201822)
5(-0.0006687431063 0.0006447631101 0.001432551896 0.001475063054 0.001164781371)