/*--------------------------------*- C++ -*----------------------------------*\
| =========                 |                                                 |
| \\      /  F ield         | OpenFOAM: The Open Source CFD Toolbox           |
|  \\    /   O peration     | Version:  2.3.1                                 |
|   \\  /    A nd           | Web:      www.OpenFOAM.org                      |
|    \\/     M anipulation  |                                                 |
\*---------------------------------------------------------------------------*/
FoamFile
{
    version     2.0;
    format      ascii;
    class       dictionary;
    location    "constant";
    object      la_i1;
}
// * * * * * * * * * * * * * * * * * * * * * * * * * * * * * * * * * * * * * //

la_i1_table
60
(

60
(
5(-21828.0495 660031.4867 433072.7775 885.7214623 -113302.4737)
5(-6807.983366 -80705.7779 -107114.207 -199.6809692 -255339.6174)
5(-258138.3849 202487.3358 50252.73921 -256.239282 -66168.05375)
5(-44850.89924 4228.911601 14356.98431 -14.79203575 -94237.39188)
5(180330.1807 -88680.47675 -230616.0321 187.8180016 55056.43993)
5(140963.8301 -72090.84548 -289751.7306 -254.0147726 14216.5292)
5(-7102.144898 -27150.08044 126735.6134 -110.5808791 16751.70276)
5(-24857.70325 13781.51576 88430.04479 136.8521267 18234.49263)
5(1090.214614 26363.16418 41160.69137 8.567205725 -26375.97173)
5(-10121.38369 8759.115198 51396.25752 -31.21216366 -4290.6905)
5(11678.90647 -4986.619279 -54097.75863 -5.250180324 7117.874803)
5(12035.3042 812.2434834 -64165.66583 21.50097994 5061.625909)
5(9683.677344 5135.725126 -18566.46182 -28.312672 1124.713474)
5(1544.687476 -8117.222516 -14018.19979 -35.49927025 3448.141716)
5(-6502.259465 -11919.3231 -10335.18733 23.61908535 -648.0034238)
5(1071.823202 -3440.672571 -2608.878721 -3.956311173 -3056.262381)
5(-684.0378303 -4798.49644 -11888.29809 5.776328353 -1118.328915)
5(-1426.123736 -1690.731184 -10855.82735 -3.163586754 1031.038658)
5(1134.860299 9429.707162 -2440.502836 8.76011783 2116.077303)
5(717.3276339 -452.9600101 -13713.0036 7.07389512 2907.874774)
5(-2158.435701 -12605.73423 -18682.62526 -61.7512794 4281.498481)
5(1762.606739 -1086.319735 -9584.384373 -24.97726251 359.1251128)
5(209.4631019 8950.390019 -12429.65079 24.72658717 -1527.498442)
5(-1209.246197 6652.758732 -5885.936629 14.58994279 -26.90530001)
5(698.8395378 -2038.151403 2980.283083 37.33532026 -1149.712987)
5(360.3511427 -3783.044576 -9101.003109 45.03074039 -1004.462523)
5(-431.7206722 666.3233517 -11172.26624 55.5640404 -1348.970033)
5(1605.338066 8795.184961 -2822.681619 75.09647087 -2193.844775)
5(3307.496 15500.42102 -4346.376866 106.7844783 -2961.215312)
5(2901.339449 20364.11715 11101.08987 138.1649274 -4642.521978)
5(3554.169353 25708.84376 18165.39023 200.9743617 -5304.176938)
5(2889.679547 36409.64658 29533.79991 274.9514242 -9412.392816)
5(4767.99274 48561.15208 50050.85868 317.1901227 -11860.50558)
5(7435.585693 67885.66822 72773.75459 414.2819374 -13357.22226)
5(9755.491912 86683.27939 95700.803 486.8462468 -15726.34802)
5(13113.26472 129040.406 160371.2403 695.9867094 -24447.47971)
5(17976.82665 170240.2238 224461.0046 795.6026614 -34338.08495)
5(23980.86293 191356.0866 217936.7863 951.4733277 -30989.60553)
5(30528.80289 260229.4797 248826.3815 1093.976043 -12335.81195)
5(41182.83127 344790.2545 391466.8868 1456.695301 -11506.92789)
5(59616.89687 437167.5898 532772.0016 2533.383556 -17814.0104)
5(75061.21392 526851.0214 643706.6324 3365.29128 -21141.43342)
5(89504.43376 571201.4063 500221.6557 1401.848651 -36839.38318)
5(108022.6679 638282.9656 669433.7653 1019.724737 -40381.77462)
5(142681.3427 811916.4151 1384491.029 1138.31244 -49611.01819)
5(173654.7185 1087724.726 2122052.692 1291.566835 -67416.00732)
5(220118.8912 2053282.36 1093842.019 1656.282313 -72958.50263)
5(243535.1537 1694529.443 764565.3263 1984.660957 -79206.00799)
5(251865.835 3066807.091 758054.9424 2368.854751 -99105.57205)
5(574109.7951 1851817.769 852159.9134 2606.051675 -114081.1847)
5(799457.3499 901983.4588 977467.2956 2879.69156 -126578.7228)
5(414234.5879 900711.9974 1107480.537 3359.082492 -152823.3294)
5(256887.5026 1026265.062 1191244.997 3856.209415 -165851.707)
5(212425.7841 1188372.806 1311744.914 4224.049071 -179929.0411)
5(168584.4248 1301048.828 1488197.239 4852.485129 -217654.2535)
5(16023.77991 1399853.271 1686358.504 5617.012928 -233181.1882)
5(-114559.4957 1281507.92 1836237.085 6005.871313 -304825.7143)
5(-177331.3681 560077.3268 1542348.635 11754.53572 -351337.9663)
5(-524559.2667 -2762814.627 -2113492.057 251.8333643 -41056.21199)
5(40.21038325 -44.93713734 4.219942317e-12 28039.29701 -71.93322783)
)


60
(
5(-1.3588185 -0.03200302341 -3.705776933e-13 93.22491583 2.728742583)
5(-3041395.05 -12789.84852 8017233.936 1242191.422 -60547382.52)
5(-536169.4628 76632.90754 2407571.701 784029.8204 -9772053.303)
5(380273.6438 -119099.5466 -187386.9127 -845866.4767 8702.533396)
5(868026.1805 -186445.2157 -1226646.917 24103.6788 405236.6679)
5(87769.14359 118996.4127 238663.0462 699335.8754 -576546.0039)
5(-163052.1308 -11361.59171 779292.0363 205688.0235 -413398.149)
5(13286.57087 -42747.12728 31643.00843 -85494.52688 -220758.9398)
5(15685.76138 7514.511427 -259309.0354 -229314.6335 -52509.75196)
5(46469.50228 -54527.64806 -220704.6371 -318611.3289 156500.9121)
5(32470.10119 -116179.9454 -220013.149 -269387.4052 -54861.40086)
5(41495.7116 -61047.04569 -250646.3942 -214138.5911 -417730.1725)
5(-109033.6555 -138978.2386 -190773.1572 -202806.4516 -499313.2458)
5(-787.8191633 -230139.3089 -302796.8977 -542368.7815 -476019.3006)
5(-39870.78805 -286156.7171 -393948.3852 -580494.0843 -749004.4837)
5(-105035.5844 -392865.3705 -569340.6534 -809768.9072 -905655.5076)
5(-129791.2918 -545107.2522 -806930.083 -1192281.173 -1242280.897)
5(-126964.717 -719178.5136 -1051525.08 -1492717.612 -1564162.51)
5(-278824.8224 -792492.2764 -1345167.765 -1947881.423 -2482728.682)
5(-487889.3791 -1274828.818 -1960959.106 -2780611.788 -3451379.777)
5(-623972.9951 -1807568.128 -2757913.103 -3618148.591 -4259511.729)
5(-666378.4625 -2395383.866 -3226405.956 -4984632.705 -5202301.69)
5(-1105965.8 -2858068.438 -4354369.2 -6063223.835 -7199823.689)
5(-1577270.792 -3626565.218 -5447446.466 -6418136.464 -9045011.315)
5(-2090968.825 -5070893.111 -5784334.791 -8204456.373 -10663839.51)
5(-2632402.663 -6566179.292 -8939364.853 -10021703.83 -12817165.48)
5(-3803725.125 -6855409.742 -10308733.83 -12022103.31 -13842518.52)
5(-4245020.09 -8330647.57 -11258968.6 -14212117.11 -15969472.84)
5(-5297403.744 -9845892.811 -13921146.54 -15208440.2 -17621546.19)
5(-6786527.523 -11200766.8 -15128924.35 -17420406.13 -19101664.12)
5(-8110167.824 -12647818.45 -16145709.47 -17149309.31 -20007689.96)
5(-8612187.227 -12668095.02 -15083271.89 -18806306.44 -21245251.69)
5(-10170741.12 -13303476.28 -15599761.12 -17248515.63 -19592751.2)
5(-10707620.31 -14295812.42 -15515849.45 -15297749.87 -18966894.23)
5(-11786739.59 -11200410.68 -12865031.16 -12627068.48 -18137046.22)
5(-11531606.92 -12357223.38 -13300475.9 -14703140.53 -15382317.94)
5(-11363044.86 -8956060.192 -14614683.32 -7280193.035 -12413579.27)
5(-11186079.84 -2721671.539 -2762430.982 -109113.4026 -10285171.25)
5(-11982055.42 1379205.349 4151169.175 -1468545.227 -8988329.931)
5(-6565589.465 4609727.849 4241160.767 6066274.77 -6403342.337)
5(-1696289.203 17669796.42 9809449.278 8418790.673 -3829735.67)
5(2910663.672 15706058.83 10432524.44 16070015.58 -1253047.85)
5(8823215.241 25091719.98 21472518.28 24611078.07 -30987.40917)
5(14781535.31 38008467.29 27122776.01 14041027.07 1108346.069)
5(24329036.66 33534234.13 28952672.12 5849938.237 -47590.98388)
5(29640462.76 27782732.56 28194728.64 1531147.426 -995232.5128)
5(34717739.44 26210229.59 30830533.28 -1136235.441 -1009961.995)
5(31972555.66 36894684.12 17747055.85 -2226223.376 -1059020.441)
5(29725508.76 34118938.62 7955614.629 -2704919.769 -1493523.856)
5(22809615.85 29875466.8 1004818.851 -5871356.487 -2036846.394)
5(17692049.89 11976856.48 -2660628.646 -6722998.452 -2961857.223)
5(11114062.88 3053380.146 -3628276.562 -6491993.803 -3266717.877)
5(7162784.666 -4505776.732 -7805739.814 -7303079.096 -4028597.408)
5(3504856.939 -4119639.998 -8222662.193 -6818165.773 -4940533.42)
5(1271208.622 -8206404.156 -8802370.388 -7463149.818 -6505555.142)
5(-3074806.194 -9843690.442 -7946848.858 -7072738.163 -7344583.148)
5(-11166895.4 -10076849.19 -8588465.574 -6044552.74 -8939806.4)
5(-5065972.556 -8421827.973 -1876215.43 -8792713.799 1116843.605)
5(-16243861.19 -36886894.56 -42523478.26 -32998097.59 -12870199.16)
5(1006003.781 3392059.084 3440020.171 4319040.662 718126.9489)
)


60
(
5(-2283.190293 -29360.88844 -77321.3807 -36257.96886 -33148.60532)
5(-13808.71699 83267.74559 305740.3947 -149369.813 -5579477.491)
5(-119230.5734 -27319.17556 -5580.926991 -92237.79919 -196696.5991)
5(-2266.264526 -154770.9077 77630.93612 -63171.58046 -93224.42011)
5(-59595.99965 -97927.16072 266395.6929 66249.41247 -381905.5988)
5(30789.00314 61066.04218 483199.5394 354725.6727 50033.19454)
5(-9966.379501 -24158.73212 96463.88374 -65800.80359 -288966.4849)
5(78641.75609 -97923.29323 -230308.6909 -322372.1063 -511927.1371)
5(-136471.8021 -180511.0657 -519031.2752 -557877.3142 51615.09701)
5(-148260.6069 -213854.4138 -364560.3586 -510838.6686 -1084745.505)
5(-83625.7461 -223389.9113 -376554.746 -619168.0371 -860609.0627)
5(82721.16743 -207689.948 -373885.4733 -636923.4267 -946513.9045)
5(-331075.7125 -404292.6722 -553197.5008 -963372.974 -1250334.749)
5(-242801.7874 -588403.7398 -823124.6265 -1297873.984 -2003831.925)
5(-652829.9637 -770099.4226 -1237961.735 -1763331.349 -2226606.796)
5(60786.03454 -954099.708 -1404761.098 -2113403.183 -2771122.647)
5(-875234.3254 -1278807.463 -2013600.794 -3025945.779 -4568585.247)
5(-1010053.087 -1651916.283 -2513067.228 -4121719.862 -4656417.894)
5(-1126711.443 -2397513.623 -3791652.36 -5136478.925 -6161166.503)
5(-2129790.764 -2887422.902 -4674317.389 -7031076.196 -7951238.634)
5(-1457528.098 -4195106.321 -6517797.821 -9158558.898 -13753216.15)
5(-3255243.155 -5627570.587 -7507268.376 -10584446.99 -11293685.75)
5(-4333026.892 -7101887.463 -10607821.71 -14880151.88 -17471995.45)
5(-5322254.736 -9022328.137 -13334343.56 -17742809.6 -21043449.54)
5(-6026588.427 -11419570.72 -16813275.87 -21872416.05 -27173520.32)
5(-9007468.46 -14543243.22 -19913331.43 -24315059.57 -26070728.58)
5(-12158476.53 -15407413.21 -20878759.58 -28060965.18 -32384884.43)
5(-9159006.458 -20833213.13 -28440687.36 -34549263.61 -36418147.27)
5(-18676101.82 -21902226.53 -30528994.36 -34656935.4 -43162428.43)
5(-14263026 -24731006.31 -32397261.22 -40040431.54 -29440634.29)
5(-21336478.8 -30654505.69 -37402136.22 -42097793.79 -48045014.48)
5(-22829824.87 -29635689.89 -35340175.89 -40253191.69 -35386438.89)
5(-23430080.3 -26582294.55 -40380883.76 -37100985.54 -43898867.73)
5(-24284583.77 -33667008.36 -37986307.59 -38381601.62 -24817718.9)
5(-31110187.81 -27672020.77 -27018191.28 -35274984.29 -31164748.56)
5(-21864597.24 -24815463.01 -30435562.24 -26750240.65 -26191489.25)
5(3353500.063 -20096534.42 -19634868.07 -16296750.93 -6238465.259)
5(-31699551.91 -14388707.96 -9002170.903 -7309251.882 -4267481.162)
5(3744867.197 -201568.4942 -5378057.384 -586434.4979 -3282220.596)
5(7661914.116 20413043.79 16007420.6 11111785.17 20635921.37)
5(13572699.58 23663814.36 26177799.84 25054192.51 8829132.241)
5(46334569.41 41206913.62 35461820.15 30111850.49 25861003.8)
5(42721253.23 57265306.46 46116330.84 35790314.16 15750695.58)
5(74822514.72 66046944.28 57498277.36 43897940.92 24499334.59)
5(74960146.9 77662154.85 72657934.43 36561021.92 12268865.64)
5(99991945.15 90042616.55 63730065.74 30898532.91 17621211.1)
5(100478197.2 84511859.59 61234938.61 30177590.41 9640019.267)
5(107606103.3 83791274.99 49331022.66 21847674.78 7350284.923)
5(96008195.17 81630612.35 44029453.42 14772225.02 3562924.941)
5(89515336.67 58198519.42 27373028.21 10965128.68 -304835.6192)
5(70664590.92 42675206.8 17479448.94 3920328.194 -518420.8967)
5(56741959.29 25732780.35 10355915.09 358074.6532 -2812874.259)
5(36920837.39 19756658.25 1811303.364 -2977250.077 -4824799.523)
5(18047434.94 2421409.152 -2559908.827 -2611341.314 -2812486.716)
5(4963593.558 -1583010.246 -5925763.216 -6679463.578 -5713706.156)
5(-6651117.936 -6206020.359 -10184989.61 -6567795.593 -5670892.17)
5(-12616343.26 -12677872.16 -11640314.9 -9977543.583 -7783742.122)
5(-22738179.69 -19797151 -12564376.36 -6378567.874 -9203871.634)
5(14846789.25 -35722631.64 -42122794.79 -54597720.53 -34588942.96)
5(5592509.732 694319.4082 3476742.995 2904029.329 -194753.9819)
)


60
(
5(-25776.07384 -128727.8413 -151849.5346 -70310.36062 -65141.15667)
5(-96729.45546 256972.1853 -309718.8795 -409299.9866 -148518.1036)
5(-4266.547533 -6083.026142 -95909.24089 -205402.4048 -304642.0689)
5(-66892.09628 -341161.8036 72849.7344 -125266.3125 -468472.5301)
5(-20170.25589 -263981.0601 385533.3905 37442.36403 -418253.3476)
5(-12574.53198 81689.93153 572865.5426 196381.1834 -422343.1559)
5(-26521.48084 -131235.9811 27996.16703 -224700.4416 -668291.3695)
5(-146077.6248 -232307.5455 -451626.7008 -625598.4374 -1096970.422)
5(-84787.7749 -298249.4801 -904458.1467 -1055787.158 -846829.3471)
5(-84094.91736 -412422.7693 -779259.9317 -1176608.478 -1751224.362)
5(-368244.1463 -443498.9622 -823751.9616 -1265044.181 -1455959.871)
5(-286942.617 -584855.1227 -864414.4817 -1335464.342 -2486591.533)
5(-136869.8904 -760775.025 -1057425.673 -1896314.791 -3357775.593)
5(-601469.5181 -1065040.74 -1578156.704 -2728376.901 -2559603.478)
5(-919607.9467 -1237951.492 -2162660.286 -3397111.617 -5450647.93)
5(-1239021.202 -1989235.738 -3047716.92 -4232909.129 -5630589.167)
5(-505739.5117 -2563816.169 -4073545.044 -6138706.837 -7660029.697)
5(-2802587.239 -2871577.281 -4544995.033 -7309484.085 -10701351.15)
5(-1087134.272 -4405460.036 -6913081.272 -9500706.781 -11010897.62)
5(-3924891.197 -5929535.451 -7977192.97 -11517850.81 -15812009.99)
5(-5805177.358 -6446268.562 -11217244.92 -16656691.73 -23563884.74)
5(-4176465.335 -10178121.99 -14862955.2 -19036629.01 -19169562.82)
5(-4068736.006 -12766725.57 -18972527.36 -25187387.51 -32531898.57)
5(-13243052.82 -15807861.14 -20442086.93 -31404953.76 -32819650.01)
5(-11102139.76 -17853845.96 -28686858.09 -36832851.5 -48076809.2)
5(-15455738.22 -24152835.24 -34606786.94 -43519394.44 -49955038.71)
5(-17969501.56 -29515415.64 -39296018.77 -49305290.92 -53161022.23)
5(-24105051.5 -34515930.66 -46286183.98 -56776705.07 -64503045.16)
5(-26235506.2 -38886333.05 -52332794.7 -59771674.38 -64848006.3)
5(-30766142.53 -43674466.28 -57088231.97 -67446024.39 -77160443.58)
5(-35756851 -47930731.67 -62752721.76 -69644842.7 -64339051.33)
5(-39266693.3 -50485743.92 -55431524.95 -71734446.18 -73019556.77)
5(-39158564.88 -53572547.5 -67063271.68 -61940852.52 -59597174.63)
5(-46084102.62 -50724722.71 -63311305.89 -66159729.21 -76395248.06)
5(-38589796.76 -48529476.57 -53791666.41 -58880647.46 -23982915.39)
5(-42751278.58 -38671469.25 -49073402.84 -43963096.36 -52214312.34)
5(-41253635.81 -35069662.65 -25104222.91 -32465460.73 -23968648.53)
5(-15985281.73 -18338345.15 -21932150.59 -12727763.17 8729925.699)
5(-13713150.57 -3748572.991 -1910154.623 9718063.133 5982917.091)
5(-4753304.26 8600691.992 28872324.63 28919494.5 32499260.59)
5(35613089.28 41849984.57 46092960.66 44299761.15 38790242.18)
5(34573571.16 70021377.76 67938556.55 71927835.3 62714483.31)
5(76997701.32 94959768.68 98290523.49 87123868.71 54463408.7)
5(85713675.4 113680323.5 119430865.9 94698567.66 55903525.95)
5(133210589.9 136361078 128854875.3 94767193.06 56449485.26)
5(135426023.9 158245699.9 141060692.5 93532678.39 62946029)
5(176776472.8 156436198.7 139728684.6 79390265.86 35927601.37)
5(157635592 167084680.2 118551939.8 73083688.65 43567523.53)
5(196839282.4 162260596.9 102998897.5 57879425.64 19783500)
5(165466299.2 136832857.5 87985290.71 43226266.64 17154928.19)
5(148408785.9 105662188.7 60755883.18 27705549.83 7446198.789)
5(127531949.4 89651421.63 41181131.39 14630778.33 4531679.571)
5(104969618.1 54876720.47 21755600.99 7113766.333 -835081.4574)
5(66496056.01 30780698.02 7560353.268 -317830.9696 -334596.7672)
5(41807144.04 17425581.16 1094655.364 -3164339.545 -3777107.355)
5(18190174.37 1751030.051 -5213624.962 -4531406.248 -5884470.903)
5(1578121.626 -9260554.332 -14814888.35 -14057041.42 -8971208.016)
5(-11027933.35 -15598923.4 -19889610.03 -11157697.96 -15464860.77)
5(7395807.371 -21441558.09 -34188287.56 -61001806.26 -46256150.19)
5(14218879.06 24160780.33 5354966.183 -4014268.253 1784912.145)
)


60
(
5(-87937.49845 -150551.2444 -257312.8965 -179485.9371 -85669.52365)
5(-8293.52649 484118.8945 -587376.2975 -561345.4724 -170392.7953)
5(-5183.735251 19156.48127 -207350.5846 -390471.0209 -511056.7076)
5(-37052.02933 -599914.1914 22624.77524 -285112.5211 -763979.965)
5(-59734.81217 -495266.8959 401041.7047 -138625.9909 -906242.6833)
5(-130554.2563 -7840.095243 563089.9191 19635.26755 -1129740.538)
5(-45410.36931 -255950.3417 -119666.5956 -564981.1822 -1103770.745)
5(-148328.8114 -364904.2904 -727389.958 -1250288.052 -2079344.224)
5(-274634.6033 -633061.0198 -1432210.655 -1723237.386 -1828377.854)
5(-208139.9712 -628271.449 -1384032.789 -2031040.154 -3054864.918)
5(-572982.9079 -879462.522 -1447579.647 -2127739.513 -2796634.977)
5(-338592.4632 -1037311.576 -1486850.75 -2765501.768 -4544620.38)
5(-1244378.351 -1208569.153 -2169355.915 -3280154.387 -4333786.787)
5(47209.13993 -1815633.002 -2681334.138 -4554431.208 -7219709.2)
5(-1424931.564 -2107742.104 -3913162.569 -5739938.59 -7475927.1)
5(-2384825.887 -3239593.403 -4408306.877 -7272117.424 -9749503.495)
5(-1583764.995 -3990328.068 -6219385.278 -9522711.763 -11309530.64)
5(-3072103.557 -5016191.293 -8335585.325 -10913513.15 -16338720.91)
5(-3930709.687 -7063148.764 -10505687.41 -15624187.44 -19472482.72)
5(-4728835.118 -8408503.249 -13334703.83 -19255111.23 -23870822.14)
5(-6871597.824 -11271177.03 -17377913.13 -23294520.21 -32308909.57)
5(-8937045.552 -15138965.13 -21262694.33 -30410042.86 -32647222.76)
5(-12005897.49 -19424055.54 -27423422.25 -36801777.16 -53097772.81)
5(-14071782.07 -23884344.08 -34802125.44 -45568170.56 -43711496.91)
5(-16191381.72 -29259891.96 -42690176.97 -54547689.55 -70877604.01)
5(-24769513.42 -29652245.26 -49093283.09 -65093579.23 -73346235.06)
5(-29324782.98 -44629982.82 -56500817.74 -72653177.39 -79427232.41)
5(-35385228.49 -49965384.98 -67280214.86 -83368465.7 -98641425.02)
5(-32610213.06 -57801108.56 -77359286.91 -90320863.7 -95871413.82)
5(-50620170.31 -64319294.3 -85530448.31 -99462046.86 -105950400.9)
5(-51233105.56 -67399747.23 -88648232.33 -104895266.8 -122868108.7)
5(-52704058.95 -75772145.34 -95808471 -103928074.9 -76628799.12)
5(-62872029.97 -80666039.31 -96463161.86 -99379988.86 -118710608)
5(-68015311.88 -80309547.02 -87709916.89 -94796592.95 -88428238.34)
5(-66635376.45 -75099565.79 -87301584.94 -86320112.86 -75139091.74)
5(-62475011.67 -61295490.61 -79042061.03 -74218890.76 -66671149.44)
5(-46136015.21 -56514436.2 -56066752.8 -56872166.88 -41711700.51)
5(-54069777.32 -44103218.7 -32398515.94 -24957539.24 -4316558.904)
5(-26250810.09 -13358277.69 50960.64016 5849349.818 22983039.21)
5(-11650600.69 7543241.041 22074310.6 30827817.73 24078369.19)
5(15788705.89 43416616.24 57288902.96 72012217.15 104969088.2)
5(43035878.24 75008865.99 92244702.17 107668950.6 88383487.47)
5(86699932.93 107795273.4 133703003.3 137709410.3 118146405.2)
5(98484521.7 154521136.4 162801065.2 160639392.3 134463995.2)
5(143782287.6 182052039.9 216164788.9 170465947.2 124957297.1)
5(193448491.3 210233590.4 218811161.1 182127614.8 117757626.6)
5(216355756.1 247856120.9 221960125.9 162093075.9 111577498.6)
5(234239415.1 253887628.5 220436807 159247217.8 95842136.4)
5(248944740.3 260429485.7 210128201.5 140402618.6 67727400.86)
5(260113965.9 237416171.2 172774138.6 107668147 59923720.84)
5(252079047.7 199868232 140380794.5 77660484.27 34683320.47)
5(216537422.3 183340342.2 109426949.3 45511129.93 20874624.88)
5(192280051.2 138093623.6 69404039.62 37242782 10689746.88)
5(149390329.7 93507738.73 39148919.49 13114252.3 3638084.511)
5(117446202.5 60104259.28 21634527.28 3787930.253 309193.4686)
5(70756912.53 34289895.65 6628618.243 -1202637.498 -5715391.556)
5(44299604.75 13234532.84 -10292435.64 -10200690.47 -7262664.529)
5(22408041.49 -3218192.268 -15702627.65 -13564421.47 -18526196.03)
5(50477723.65 -5741107.799 -21872325.03 -53810094.68 -49008080.1)
5(40909752.74 28215048.88 31672667.27 21204547.02 21026166.39)
)


60
(
5(-345274.404 -632769.7127 -378446.8331 -257339.2349 -118000.4344)
5(-53538.7153 764531.3936 -752578.7244 -686537.5748 -676068.3308)
5(-54362.33898 138540.213 -346595.0355 -640919.61 -1094192.123)
5(-75719.90546 -962306.8627 -70011.22656 -584481.6862 -1038302.518)
5(-67583.10764 -874140.1983 294610.0979 -505868.6798 -1393556.997)
5(-103211.1751 -122735.5447 380266.504 -263512.5142 -2240546.317)
5(-236015.1123 -425965.8325 -296720.3274 -1079346.119 -1721790.874)
5(-219679.9186 -694474.4447 -1280653.649 -2035284.857 -3410633.267)
5(-368394.554 -850120.69 -2030648.298 -2749863.426 -3226721.671)
5(-553806.2784 -1211324.359 -2243735.65 -3170640.478 -4877647.458)
5(-429997.8701 -1206271.385 -2149806.597 -3533250.848 -4826647.515)
5(-1173503.914 -1718208.453 -2574720.445 -4216904.216 -6741851.695)
5(-766190.6795 -1952956.534 -3107507.733 -5273451.174 -7177453.665)
5(-2017606.964 -2781046.588 -4496966.711 -6840983.767 -10591173.53)
5(-1248937.335 -3374523.915 -5668031.855 -8263109.621 -10715784.91)
5(-2557873.551 -4353866.293 -7089615.805 -10916327.48 -15852718.56)
5(-3819868.898 -6154302.183 -9132107.803 -13446519.77 -15488663.83)
5(-3296205.066 -7162685.736 -11482098.88 -17369429.58 -25436385.36)
5(-6665786.649 -9678914.36 -15217637.04 -20754930.99 -23697803.18)
5(-7406665.364 -12735411.27 -18594633.9 -26249214.18 -35485033.39)
5(-6773361.676 -15297297.75 -23307826.12 -33276114.23 -43611073.82)
5(-15959761.22 -20571300.19 -31399830.31 -40781767.97 -47949100.2)
5(-14422707.08 -26125010.95 -36942422.53 -51685742.88 -64534339.2)
5(-18907092.08 -31543654.01 -45606833.49 -61385645.49 -78492780.34)
5(-26270478.92 -40306586.75 -57627378.63 -71560068.32 -74882680)
5(-32426524.34 -49011740.25 -65817906.85 -86348965.12 -106594069.7)
5(-35039030.89 -56153025.69 -78494883.9 -99868505.75 -112851629.4)
5(-48922459.09 -65180638.23 -90163918.05 -111637493.6 -129355815)
5(-55338933.75 -77572208.82 -104001947 -123820760.5 -128660101.3)
5(-68783043.82 -88476759.38 -112521325.5 -135790475.1 -153999464.7)
5(-63193011.85 -94905220.01 -120801808.7 -141407538.6 -146534121.4)
5(-76893490.34 -103025321.3 -124901033.9 -144516720.4 -147136951.4)
5(-80179744.24 -103321544.6 -131308377.3 -142078732.3 -144786356.7)
5(-88221323.46 -111695897.2 -126082391.6 -135550457.1 -143785918.5)
5(-95085819.14 -110509492.3 -119552068.2 -127718160.1 -100257831.8)
5(-72128785.82 -98732757.41 -108921761.6 -107180225.3 -89427107.62)
5(-98785257.9 -88367916.7 -89502215.18 -78633366.67 -71123377.55)
5(-58430548.48 -61874376.89 -66987336.84 -52795236.64 -40741149.91)
5(-70572191.83 -37446962.28 -30624952.33 -18146353.56 12991075.73)
5(-29723524.3 -18027686.26 17417217.88 34592249.92 97963297.89)
5(-12433279.41 27090135.45 56135979.32 92355882.09 31506807.15)
5(19911702.26 67222311.03 110826805.8 132849829.2 193982783.9)
5(83029169 105451611.6 143674615.1 179287349.6 136559686.5)
5(121318509.8 172320130.5 205049115.7 225569096.4 244954120.4)
5(138302448.1 211443248.9 261624149.2 249191023.4 200850923.1)
5(219200090.6 250362876.6 298956143.5 271756322.7 214078213.8)
5(191103961.8 293622776.2 306805512.4 279353992.9 231811776.2)
5(300596617 334270380.3 338506575.4 262688116.6 178136847.7)
5(310917294.1 352073082.7 305247431.6 244548098.9 163914563.8)
5(289008615.6 330299985.4 290002569.3 217977348.6 120370526.7)
5(338080348.9 329195847.6 262441738.1 177561556.3 116494614.6)
5(302211526.4 260465092.6 219076200.8 122472164.8 51116619.76)
5(294919173.5 256932934.3 156815241.1 90585765.82 35020610.21)
5(254007283.6 206724772.1 116823215.4 51812600.72 20719983.62)
5(219596396.6 142021129.2 73080553.45 28795455.22 8916193.972)
5(166756159.5 104666143.9 40557676.34 9519365.839 -1423276.196)
5(121752233.3 64890687.59 16625406.23 -1214356.114 -6476746.726)
5(87875019.41 41251100.92 -1762812.152 -16128395.39 -18665959.85)
5(91347963.08 33994980.84 4438843.648 -34269177.07 -51592113.88)
5(67151370.21 78762895.98 43904478.95 16576255.24 768773.5592)
)


60
(
5(-767373.4885 -786062.253 -852724.8553 -550127.3391 -335618.7357)
5(-15558.32439 1108510.143 -870140.5633 -805135.5507 -1085943.232)
5(-111526.8331 360959.1358 -540585.6447 -951092.0745 -1413083.098)
5(-83019.71619 -1408035.239 -267183.7242 -1041111.288 -2242985.792)
5(-75742.00544 -1351305.75 209195.7632 -941936.0255 -2070083.416)
5(-218781.1284 -336773.8785 69626.59609 -925214.97 -3068987.321)
5(-398035.5709 -741766.8272 -674735.7401 -1780593.42 -3662440.781)
5(-122349.778 -1033821.162 -1898402.82 -3039029.226 -4196905.433)
5(-1028471.382 -1231102.789 -2839835.573 -3958612.669 -5988533.393)
5(-290769.6887 -1646388.659 -3324827.798 -4648528.859 -5815287.28)
5(-1267986.461 -1789341.181 -3157904.031 -5177301.217 -8066202.869)
5(-986413.8494 -2515552.254 -3951895.428 -6282472.316 -9426012.684)
5(-1954259.296 -2896962.516 -4455258.451 -7620913.174 -10702444.35)
5(-2037894.714 -4158989.5 -6422378.018 -9724606.445 -14836380.66)
5(-2549404.536 -4557356.068 -7813621.075 -11652117.78 -15748146.44)
5(-3705345.68 -6492569.542 -10279759.51 -15044399.97 -20081614.16)
5(-3649492.284 -8053914.548 -12206254.97 -18157095.21 -24056379.29)
5(-8160316.595 -10454496.13 -15977704.85 -23098671.68 -27206081.24)
5(-4534895.857 -12874825.92 -19616779.91 -27438712.33 -40628216.53)
5(-12573242.38 -16041040.23 -24909695.25 -35260759.24 -37175830.9)
5(-12615653.93 -21755871.38 -32483446.17 -42268237.47 -61618672.14)
5(-12046410.42 -26458227.72 -38657126.22 -52960019.62 -59624085.29)
5(-29347166.53 -33732618.27 -48535998.19 -65066731.16 -83313029.76)
5(-18650631.61 -41366264.51 -60046780.63 -78575587.96 -92520759.93)
5(-33197737.63 -47702903.33 -71084848.77 -94691273.42 -114690113.3)
5(-49014628.34 -62534280.77 -87735685.39 -107153093.3 -134175515)
5(-48535707.74 -74430351.46 -101960693 -121201332.3 -130400966.5)
5(-43108818.78 -83696447.58 -109130342.9 -143484164.7 -168863812)
5(-77955979.43 -97396933.95 -130842628.2 -159462558 -172119710.5)
5(-79262020.54 -114210973.4 -146994902.7 -163075940.2 -215886598.7)
5(-104435970.7 -120531904.8 -155181561.5 -182027921.6 -169828215.6)
5(-83098028.38 -128123336.1 -164103841.1 -192769907.6 -207528573.5)
5(-120765103.8 -140072414.8 -174821213.6 -188127760.6 -190481929.3)
5(-120522829.8 -143803515.2 -169351420.4 -181679800.6 -208246595.9)
5(-118933263.9 -140699477.7 -155078126.4 -175503979.3 -141572445.5)
5(-117202835 -139551913.9 -151040447.3 -152129745.8 -158258651.7)
5(-109509870.3 -124018896.3 -134594126.1 -114366396.8 -71184266.36)
5(-110900328.6 -111995447.4 -101608799.5 -82778844.26 -56584406.84)
5(-71269998.75 -84169208.2 -63298983.7 -52211608.87 -53309190.88)
5(-90598407.2 -47819930.94 -16954862.49 1910528.539 79392132.19)
5(-23773978.95 -1307254.377 27696028.08 73644444.16 136099388.6)
5(2985288.93 52593166.79 81128982.66 132756259.7 114550820.7)
5(-8122398.482 96075137.33 162872259.7 199184395.1 255057740.8)
5(101700940.2 153433272.3 222256791.8 255517018 245799644.2)
5(145858357.6 217425002.2 283572874.9 301095253.8 316409684.3)
5(187442030.5 269932355 338008412.6 351723736.8 322935531.2)
5(257100168.5 306668095.4 379847688.6 380879731.8 346544252)
5(260745758.7 372175789.2 417626457.9 382494254 329854260.3)
5(328654587.9 402437413 420461996.8 376227935.7 266455710.8)
5(315704198.5 423759910.1 409286788.9 353545860 263880877)
5(345730609.9 408029872.5 382618915.9 313404236.7 201144262.7)
5(377101373 384954292 348877111.9 233924769.7 162136289)
5(346637422.1 376203543.5 273434168.8 222917971.3 96979418.79)
5(316855757.5 311878611.2 259230891 123667523 62155299.74)
5(281633197.7 259338859 169852038.4 90082841.96 29337979.22)
5(258279658.3 208241912.5 115349247.7 52380404.46 17229771.27)
5(207411610.2 161859777.9 79469354.59 27624157.05 1317221.956)
5(166098016.2 120098191.2 44080853.78 12701340.2 -10283354.88)
5(189771811.6 88036686.13 61013524.96 9040317.349 -22320384.45)
5(205440850.4 89138808.34 94391162.98 92202344.76 90720617.11)
)


60
(
5(-1828284.638 -2546566.51 -1242137.753 -692271.1837 -287710.5157)
5(29191.92925 1474596.059 -955627.8551 -958530.5103 -1526054.825)
5(-76508.79333 652180.926 -716541.3624 -1315993.776 -2055104.142)
5(-244309.6479 -2007664.019 -553298.1484 -1577591.339 -3213416.324)
5(-239811.3198 -1861481.768 -217101.9089 -1740760.869 -3171942.761)
5(-220991.1434 -733903.3858 -232524.4388 -1645639.033 -4510340.248)
5(-423573.4897 -1080452.018 -1327578.828 -2811618.64 -5406418.056)
5(-644522.054 -1451884.552 -2494860.931 -4245133.146 -6220173.017)
5(-631228.8309 -1881072.311 -4036653.655 -5592370.247 -7631580.747)
5(-1410780.421 -2327230.829 -4331440.028 -6283112.334 -9388982.499)
5(-937718.1109 -2577696.094 -4738754.244 -7525711.153 -10132245.94)
5(-2220681.037 -3162524.739 -5037734.023 -8517265.747 -14362553.63)
5(-1468744.614 -4219937.373 -6827503.871 -10674472.27 -13098686.47)
5(-4274538.51 -5063396.979 -8059820.932 -12795833.21 -20223792.34)
5(-2096249.444 -6673435.026 -11079389.5 -16055336.29 -20766136.52)
5(-7783885.069 -8450854.19 -13227354.28 -19097327.15 -27359753.25)
5(-2486268.149 -10769862.57 -16746819.88 -24083793.88 -32912577.15)
5(-12465522.08 -13085068.25 -19695005.45 -28529687.58 -37518359.95)
5(-5262499.005 -17409326.46 -26401218.28 -35966112.97 -39506327.39)
5(-14600577.7 -20201665.04 -31216216.16 -42672146.95 -61160873.78)
5(-17141377.74 -28000425.47 -40145323.76 -54563925.21 -61748388.13)
5(-20072045.69 -33533640.1 -48643552.21 -65620087.66 -95285499.22)
5(-30446896.57 -41827931.25 -60202143.14 -80747397.63 -81320568.04)