/*--------------------------------*- C++ -*----------------------------------*\
| =========                 |                                                 |
| \\      /  F ield         | OpenFOAM: The Open Source CFD Toolbox           |
|  \\    /   O peration     | Version:  2.3.1                                 |
|   \\  /    A nd           | Web:      www.OpenFOAM.org                      |
|    \\/     M anipulation  |                                                 |
\*---------------------------------------------------------------------------*/
FoamFile
{
    version     2.0;
    format      ascii;
    class       dictionary;
    location    "constant";
    object      la_i13;
}
// * * * * * * * * * * * * * * * * * * * * * * * * * * * * * * * * * * * * * //

la_i13_table
60
(

60
(
5(-0.3173575319 0.2228561021 -0.9977015951 -0.0001715591315 0.282773554)
5(-0.2620414878 -1.1206112 -1.807533285 -0.00165557026 0.2884935397)
5(-0.5119128362 -1.118417617 -1.928158927 -0.001683938894 0.5437215881)
5(-0.6036433689 -1.047595476 -1.622122928 -0.003366428692 0.506006689)
5(-0.5898382495 -0.9649470894 -1.480030252 -0.002802380029 0.3781506947)
5(-0.529128683 -0.8494085146 -2.056872533 -0.002494413513 0.4766734354)
5(-0.4587842719 -0.8655120683 -2.16468364 -0.003055019905 0.4704551075)
5(-0.4954679047 -0.9246074027 -2.013363788 -0.002723343566 0.4793623665)
5(-0.4901842207 -0.8730882169 -1.991992427 -0.002566612068 0.496076193)
5(-0.4979973722 -0.8406891122 -1.852965228 -0.002477389594 0.4783907577)
5(-0.4959660905 -0.7958966749 -1.764374179 -0.002377546048 0.4655677301)
5(-0.4724965096 -0.7491915632 -1.788872804 -0.002300017919 0.4655321934)
5(-0.4583815065 -0.70322893 -1.799529491 -0.002090992278 0.4609361324)
5(-0.4369679366 -0.6337638047 -1.749631619 -0.002116656517 0.4587179325)
5(-0.434174659 -0.6014006347 -1.71976378 -0.00198802152 0.4555194606)
5(-0.4251997753 -0.5553441637 -1.656935386 -0.001780849989 0.4490068436)
5(-0.4148564261 -0.4973616176 -1.597939844 -0.001634119208 0.4393271596)
5(-0.4034823733 -0.4399717907 -1.548751497 -0.001421792035 0.4296207386)
5(-0.3934601577 -0.3808620268 -1.483513728 -0.001298155833 0.4220925901)
5(-0.3783341043 -0.2878273556 -1.392303398 -0.001023904002 0.4127271475)
5(-0.3648313943 -0.2228724688 -1.329301965 -0.0008493816155 0.4055526102)
5(-0.3518144349 -0.1581011913 -1.235563246 -0.0007450588232 0.4024223018)
5(-0.3314897499 -0.0743736059 -1.152822481 -0.0004470960875 0.3886814982)
5(-0.3170424666 0.02331107444 -1.050845804 -9.356879811e-05 0.3751824153)
5(-0.2961111032 0.1230523775 -0.9443427761 0.0002302458973 0.3625223763)
5(-0.2750043739 0.2239043204 -0.8080799642 0.0006028465509 0.3486249376)
5(-0.2502730355 0.3377186756 -0.7062834815 0.0009206871775 0.3354111462)
5(-0.2274592659 0.4507653656 -0.5660490549 0.001286731619 0.3224879686)
5(-0.1970316018 0.5947938516 -0.4257808871 0.00162146288 0.3091817667)
5(-0.1684352449 0.7509367245 -0.2698311919 0.001909042649 0.2977224818)
5(-0.1343750792 0.9172066151 -0.09144909394 0.002354999434 0.2788069378)
5(-0.09918895323 1.074148278 0.07533393402 0.002667689819 0.2760187093)
5(-0.06459563418 1.239006332 0.2569328488 0.002974862044 0.2590665847)
5(-0.02556402408 1.420926925 0.460202092 0.003397789622 0.2462323942)
5(0.01751891953 1.591056188 0.6209727711 0.003747850516 0.2388246045)
5(0.05713846635 1.787978874 0.8672846283 0.004190455659 0.2294561164)
5(0.1046173247 1.94755578 0.9296356836 0.004265447565 0.2106448902)
5(0.1436118035 2.14091814 1.069736804 0.004830896472 0.2219337406)
5(0.1879775031 2.284487817 1.254391785 0.00475955829 0.162101643)
5(0.2324264975 2.426843714 1.422580551 0.006229822276 0.1949723942)
5(0.2684999249 2.539401095 1.466893158 0.006107341207 0.2564626159)
5(0.2921444076 2.634126098 1.670237467 0.004709473917 0.290195445)
5(0.3165345757 2.698201101 1.985369231 0.002721851255 0.3516305041)
5(0.3256454324 2.696196316 2.239932599 0.002383221778 0.3595856168)
5(0.3325122446 2.701727953 1.94953714 0.002695620642 0.3515255592)
5(0.3187231552 2.691548507 1.343458348 0.002282588401 0.3648507858)
5(0.3106640461 2.801389684 0.4637215661 0.001531738608 0.3687523884)
5(0.3107247591 2.645820445 0.3019943289 0.0012694382 0.3689503993)
5(0.2770024193 1.939443764 0.1972141808 0.001118996743 0.3750944997)
5(0.3445492698 1.32668984 -0.08811600606 0.001199133376 0.3685208606)
5(0.1011996176 1.57153173 -0.1359347978 0.00093101472 0.372710442)
5(-0.02327856684 1.236423549 -0.2368234519 0.0007541702022 0.372001281)
5(-0.02754996145 1.028846086 -0.3501657146 0.000600900264 0.3609452195)
5(-0.09323950527 0.8729884986 -0.5350729609 0.0007560293053 0.345380379)
5(-0.1168953474 0.7579548439 -0.6110340146 0.0005458758299 0.344039465)
5(-0.2336201407 0.5202463417 -0.7279725257 0.0007670743416 0.3125454504)
5(-0.3704933356 0.2338102595 -0.7973210275 0.001374366106 0.3069278997)
5(-0.5211591897 0.001723861887 -0.782237472 -0.0006774266774 0.3236305139)
5(-0.5678938103 -0.140696484 -0.6536182074 0.0004314287704 0.3054683547)
5(3.220941069e-05 -1.182784297e-06 2.24739606e-18 0.005754372109 5.580847023e-06)
)


60
(
5(-1.459687113e-05 -6.539056634e-06 -2.495097614e-18 -0.01018981479 2.741413538e-05)
5(98.01722428 -2.14502068 -188.7870467 -138.3710676 762.9960394)
5(16.63150776 4.03828023 3.452408364 -18.7148691 117.8237542)
5(12.6134856 -11.20170979 12.98387482 -10.84457949 19.03977706)
5(14.90954249 -3.815751137 10.14794554 31.23557645 17.03697838)
5(2.722891401 12.57854117 58.59329897 43.22647083 -15.16352044)
5(-10.28448846 3.817619482 26.63820278 15.39487639 -22.11261016)
5(0.6495984989 0.9162782137 2.645690613 -0.8467567094 -12.4173626)
5(1.704911845 -3.263656898 -21.79343786 -16.93800274 0.817489248)
5(3.164931089 -1.588610996 -9.215751048 -8.92027339 10.04669513)
5(2.385266932 -0.4438084315 -6.048627211 -2.937506379 2.30153721)
5(3.164944934 0.2216802002 0.06314801693 0.1794711717 -7.992048702)
5(-3.011525468 -0.3059175828 1.373125786 -1.916024617 -7.859515622)
5(2.047887049 -1.811045079 -1.929476988 -3.193455603 -4.753020937)
5(1.414451014 -4.188472979 -5.3440929 -5.350780085 -7.877517791)
5(0.3532478244 -2.879997258 -5.263381995 -7.893363564 -6.693168613)
5(1.062900247 -4.938585269 -5.256918187 -7.039597459 -7.921079569)
5(2.882679816 -3.150720344 -5.783725182 -9.441967879 -7.200019192)
5(1.219533206 -3.18441259 -5.404824469 -8.924960669 -13.83062339)
5(-0.551038477 -5.722031349 -10.22306631 -10.23892083 -17.41554945)
5(0.5348928527 -8.072471496 -10.6178188 -14.8131271 -16.64101396)
5(3.833628693 -8.017960249 -9.490824147 -16.07431506 -15.81477752)
5(1.329490572 -9.316065929 -13.72250751 -15.6625592 -22.11523414)
5(0.2118689055 -5.45848643 -9.346743247 -14.76754709 -24.79926196)
5(0.1100369689 -12.88714394 -12.1286947 -15.69447584 -24.55449865)
5(0.5994579908 -11.96681033 -14.48823835 -16.74273678 -27.3045083)
5(-3.289496174 -11.75183299 -15.37985503 -15.943149 -22.71851713)
5(0.03096412959 -9.195434742 -13.77729835 -17.9761345 -24.24005302)
5(-0.4026807386 -7.368236256 -13.68285089 -16.63784946 -23.52296033)
5(-2.227219424 -8.281146019 -13.51745011 -17.06586539 -23.28956895)
5(-2.28052213 -6.04334009 -5.657873115 -11.62700591 -20.90162147)
5(1.287019276 0.958913172 -3.386410351 -11.53569881 -21.4892866)
5(0.9188892909 4.072389334 4.654279129 -5.16027017 -13.79207916)
5(3.272948797 3.621027775 3.68087651 0.7753748561 -12.28570533)
5(3.912391229 15.57044721 13.48809187 4.997652116 -10.51755768)
5(7.253936678 14.97863222 12.14884053 3.908525104 -5.423958236)
5(9.077887719 16.77551234 6.915657618 9.221319019 -1.420043826)
5(10.30781388 33.11464318 23.3565041 17.91220292 -3.231164538)
5(7.648005954 20.7876484 26.6905684 14.51338949 -6.020327593)
5(11.03861014 34.85431681 29.051933 15.76748243 -7.101304132)
5(9.685564763 18.99750313 13.77806773 18.02667889 -2.158536137)
5(8.3338964 31.46878598 19.80228076 39.60503676 3.769807652)
5(10.09652748 38.16396046 22.05812258 72.46074805 8.523340787)
5(15.41060672 17.92899912 35.92375191 55.39582566 15.61299563)
5(19.73152507 31.57694562 42.92589702 31.15216718 11.85679715)
5(25.57578237 26.19243692 65.62798037 18.89561866 7.003219523)
5(31.5699141 41.19221813 71.01504883 15.10970083 9.491311501)
5(43.74670524 46.02228187 54.96576823 12.40282423 9.422188616)
5(51.77655671 68.76660158 35.81267719 6.076918624 7.439042668)
5(53.9377027 67.48026228 24.08932212 -0.1143704128 4.798213262)
5(45.61016204 41.57656137 17.41509146 0.9013834758 1.755325874)
5(38.61657997 20.55800124 4.919948808 0.701894876 0.4976272641)
5(27.18394424 21.32227727 8.347820712 0.829358379 -1.710033436)
5(16.45043372 2.33218711 0.5834018093 -4.672053961 -3.132533112)
5(6.186365368 5.525666222 1.090344561 -1.234026885 -4.469453737)
5(1.268766906 0.1389327021 -1.616311301 -1.66182492 -4.220711878)
5(-2.429967522 -4.074300942 -1.563627397 -3.965997306 -4.77307869)
5(-40.68953606 -6.752567972 -10.58309887 -9.926792788 12.1744998)
5(-14.43530001 -10.46438369 -7.951011591 -9.528245036 -21.76654756)
5(-0.4229705972 -2.242017919 -1.812461801 -2.636914193 -2.000428637)
)


60
(
5(-0.6829460755 -3.639276301 -3.272824275 -3.760238331 -2.429800942)
5(8.290725988 46.95816525 -267.0910114 -169.7133993 308.3522271)
5(-31.08822335 -3.820565967 8.691564319 -13.35363954 -102.1284812)
5(0.2811665679 -25.84052875 32.99055132 11.24673458 -1.94885433)
5(-3.954292614 -10.89986111 51.93150533 26.74557728 -17.26419292)
5(3.598548714 11.9391786 56.62966204 39.45440805 9.169955161)
5(0.5089632363 -0.6984069441 10.74658434 4.25536612 -6.257032872)
5(6.173634782 -3.990610324 -11.90182458 -11.91948672 -12.32431045)
5(-6.422762791 -6.791723295 -23.91685321 -19.76408317 9.030531936)
5(-5.126447081 -6.322798295 -13.14432688 -11.87614555 -23.86489675)
5(-1.671440541 -3.768820246 -5.329057176 -8.69663181 -12.21614265)
5(5.822048236 -3.178565877 -2.97258914 -6.052620161 -10.72778916)
5(-7.95962145 -5.869154408 -4.495837065 -10.58014605 -12.51461315)
5(-3.449675808 -7.898605096 -10.32590664 -11.88024261 -20.72849601)
5(-11.43443652 -9.39863201 -12.58350283 -16.71764954 -17.1890416)
5(6.741230275 -8.017143384 -12.91810116 -15.64458866 -18.15853064)
5(-9.978875188 -11.4728691 -12.6494013 -19.08567151 -29.40713928)
5(-9.059275701 -10.64679344 -16.3520029 -22.12954107 -21.83475026)
5(-6.517352743 -14.11916195 -18.62304967 -22.65964886 -23.66375426)
5(-13.58912489 -13.01380012 -20.10319772 -26.67683668 -26.65969032)
5(-3.062189338 -19.06792953 -23.80390472 -30.06771478 -50.72310771)
5(-12.26611695 -20.40660187 -22.49374472 -27.33268779 -22.09342467)
5(-17.1517358 -21.4375189 -28.19882206 -34.24671504 -39.44572685)
5(-12.16920833 -22.22707756 -30.14432861 -35.28517005 -39.43476729)
5(-12.25724746 -24.81603291 -31.63354805 -40.81555615 -48.82041018)
5(-17.42732288 -27.17735431 -31.60708664 -29.42960364 -29.53550252)
5(-21.47723811 -22.29109512 -22.39953888 -32.34577467 -36.69251491)
5(-2.592278425 -26.72799121 -32.88856547 -32.73330356 -35.91046528)
5(-23.66089776 -20.67101544 -29.11220581 -26.49571136 -39.47276827)
5(-0.9723308654 -21.42858907 -17.43132915 -22.64990447 -1.484958819)
5(-10.29687766 -18.80975362 -16.56487042 -18.53836212 -28.03630706)
5(-4.270713067 -6.804390182 -5.675137564 -7.207405766 0.1681395519)
5(5.591053332 0.4290279974 -4.980301853 7.559618541 -8.302150426)
5(12.31343303 2.825565917 12.59381459 10.8756205 22.77257878)
5(19.85910368 17.18176637 23.07882568 17.9243265 16.84086849)
5(15.10271325 27.07284279 28.60134921 30.17079581 17.01695329)
5(57.8751957 29.59210236 41.25119031 38.29883676 44.03048669)
5(31.70523335 37.02917161 49.86376091 43.5132607 39.03701968)
5(56.76133484 52.37739579 48.73123727 45.73831575 37.43137726)
5(66.74632161 49.26540717 50.23698086 45.92332111 50.70473578)
5(34.78138555 38.75559353 58.35846135 51.63288342 40.82264323)
5(62.12512659 51.22783798 51.84472674 59.23829494 47.73114572)
5(43.24346546 46.35319136 51.93977605 63.76566968 42.87813027)
5(38.50891121 56.42120752 62.09007806 62.09247052 49.36892998)
5(31.25402555 24.26963626 56.25560814 62.03595544 46.48851537)
5(27.74778389 35.03894797 84.28875734 62.67420257 50.95097325)
5(24.27739189 63.21710906 90.95156589 67.81182735 50.29595042)
5(22.0706147 78.43371038 89.1416203 69.75668961 43.89109235)
5(28.40150279 51.36120283 76.14539821 65.4184543 36.13991883)
5(37.85521698 85.75123968 78.52813465 54.74780706 32.40298488)
5(37.26225509 67.49974234 70.38412246 46.62724182 25.60785577)
5(35.71338896 56.89970856 55.61348727 34.72849931 14.5725254)
5(27.70695201 32.08796219 38.92004208 30.23842034 9.007404184)
5(18.43386729 34.69064358 27.6106023 13.32347796 8.026978319)
5(7.745607496 13.59566118 14.99251877 8.84081926 3.490877095)
5(-1.150228496 3.190225459 5.361441979 1.085034086 1.290625323)
5(-9.95513067 -3.560265327 -0.7498974665 -0.7216303586 -2.131856629)
5(-15.36311905 -14.54138021 -13.84215677 -9.775571667 -4.146706506)
5(-25.51536603 -17.93270933 -16.06812098 -17.09982502 -22.05617158)
5(-6.222154252 -3.3745733 -3.590584282 -2.778220911 -3.414778677)
)


60
(
5(-13.54682646 -11.14100485 -9.145025841 -6.074112105 -6.253862535)
5(-27.8051719 101.6193718 -255.6389799 -157.8807071 1.709854289)
5(4.246577629 -0.2621385042 -7.141082991 -20.15053594 -14.36724782)
5(-4.659152141 -44.74160248 32.21794526 8.311407693 -16.58088681)
5(0.0708204291 -23.69425916 55.3211152 25.34831309 -9.073055055)
5(0.4364400387 12.41252525 56.76412351 35.93222061 -6.261822884)
5(-0.1080059374 -2.154892959 11.36036437 3.891365531 -11.16624126)
5(-4.27617058 -5.935265703 -14.13448262 -15.28421117 -18.92305409)
5(-1.59971267 -8.930687505 -29.51153944 -25.37381824 -9.275288228)
5(-0.820883781 -7.286409685 -16.83217094 -17.94179208 -22.7855808)
5(-7.3703991 -6.567674943 -10.81416434 -13.4763711 -13.64824442)
5(-3.943849438 -6.007935499 -6.490316469 -10.79926903 -23.65597031)
5(0.2859471832 -7.467480057 -6.14984986 -13.9649472 -27.76156197)
5(-8.23228245 -9.612139891 -12.99953987 -18.83843173 -14.21367535)
5(-8.996095146 -9.446228303 -16.04568916 -22.24446617 -34.79033787)
5(-10.98035981 -15.36204507 -19.40868296 -23.38714498 -29.78452707)
5(-0.006826188836 -15.32296225 -21.78437297 -27.95147598 -34.24219655)
5(-21.17220153 -11.79611307 -17.10272672 -29.51215682 -45.12068091)
5(1.125502824 -17.52151517 -25.51831443 -29.72381348 -33.99259663)
5(-19.9902282 -22.80320562 -24.12181434 -30.12780576 -43.8337293)
5(-27.5721765 -15.93545263 -27.50479791 -41.05469101 -65.35755464)
5(-6.048516741 -26.51454836 -35.05382532 -37.42630712 -29.16724958)
5(0.9407906027 -27.66505328 -37.09129108 -43.54195981 -62.39261629)
5(-39.6886192 -27.97356208 -27.49832404 -47.63744795 -46.02759285)
5(-14.34911863 -22.27884545 -40.15361384 -46.17911562 -68.99043926)
5(-24.74901286 -30.01836959 -39.9833363 -46.20880975 -52.89465594)
5(-16.35925438 -33.47914746 -32.53749809 -37.35180445 -44.57854398)
5(-29.48331783 -30.37561789 -35.04046514 -37.17242574 -46.98592196)
5(-17.39341389 -23.93613889 -29.93883383 -30.39310398 -41.04857482)
5(-14.12250557 -19.23999805 -19.27010922 -23.22461148 -36.20127438)
5(-13.2299029 -11.26179157 -14.55133913 -12.29306423 -10.82281763)
5(-7.216362213 -3.175958662 3.995880691 -6.316585362 -6.821013721)
5(9.305541713 3.281248869 6.877902651 24.57582774 12.10416317)
5(4.375327606 21.09548747 24.00059438 21.19693964 12.28696126)
5(32.04190688 27.14717859 43.06004567 34.80458645 50.4707035)
5(36.41362776 50.62419988 52.88628606 57.38748809 41.50579046)
5(40.00222653 52.13407122 63.46641225 66.37733259 61.03178512)
5(61.56887555 65.59474698 73.52237175 76.73488307 72.26356321)
5(57.8338481 74.22543262 80.99366301 81.35321136 80.00741101)
5(58.70247995 65.48875679 88.62261487 80.02320868 72.55591373)
5(76.16596249 70.50500754 85.9378921 87.15305448 74.68548986)
5(37.9610025 64.1223936 80.82344755 89.74205037 91.39148728)
5(38.82124332 56.56406878 69.94528527 96.86326228 78.10037292)
5(13.20933804 44.64987329 72.74544799 92.61603435 85.80541168)
5(6.116021023 42.12834722 95.60381591 101.7660252 94.23647866)
5(1.317530723 31.05075588 78.06473432 98.64340365 98.6392981)
5(-40.57690023 25.99756024 116.4545842 111.9285684 109.7511667)
5(5.216475564 41.87519732 98.71127753 126.9472752 96.05349978)
5(-71.67114612 58.59153566 113.0691657 127.915738 99.72493059)
5(4.485725782 70.73030442 123.7755029 121.559795 82.15563141)
5(4.023416009 64.04864915 112.7095208 96.36064954 76.45916163)
5(-2.726628828 53.42588049 90.95883529 89.93581155 55.62794174)
5(14.01648064 51.22328698 70.5782089 60.39223562 46.44693835)
5(9.445608875 37.69515214 52.0488179 49.24934812 27.8040209)
5(0.9266169796 15.5280952 28.95653918 28.65399826 21.4035796)
5(-11.37825027 2.945595906 9.992100098 13.14536042 12.55032584)
5(-18.91948317 -10.81413951 -0.7971121034 5.213883575 -1.292474832)
5(-27.33005664 -22.42230545 -17.13260659 -14.8844213 -8.047744091)
5(-42.96307336 -27.27197924 -26.38758515 -26.88389279 -30.72874537)
5(-9.274575701 -8.223554961 -1.669920858 -4.108934215 -3.163052935)
)


60
(
5(-25.48523002 -20.78831547 -15.45414078 -14.80166287 -9.987589969)
5(7.976319115 161.9516427 -237.8037251 -145.3040863 16.31839501)
5(3.165949008 4.452572714 -26.00901856 -29.58640629 -14.43122272)
5(-0.6158576422 -65.98905422 27.22199179 3.503959323 -19.56940089)
5(-1.913296105 -39.68094389 55.07696481 21.28577796 -17.41338527)
5(-4.025105739 11.02379009 54.09070873 33.70703758 -18.89317631)
5(-0.3353758531 -4.75328277 10.17303313 -0.7071175754 -13.42127043)
5(-3.081506831 -7.238808986 -15.73929783 -20.75832996 -27.03759125)
5(-4.862872253 -12.49946987 -35.12230909 -30.20656441 -17.76927179)
5(-3.200034643 -11.10710508 -23.9224966 -25.44301712 -31.57685915)
5(-7.88674841 -9.36048161 -14.98046387 -18.57328265 -20.0165302)
5(-2.816409791 -10.20855065 -8.997537534 -18.44548872 -33.73162223)
5(-13.54533908 -10.23737744 -13.33020813 -19.58257389 -25.28738869)
5(2.530022472 -13.56651483 -16.46342531 -26.6866374 -42.12819184)
5(-11.16600273 -12.15561922 -23.4131373 -30.65303422 -35.06643171)
5(-18.72243334 -18.51752975 -23.08686778 -30.43753592 -42.49167995)
5(-6.561321588 -20.63696923 -26.02783711 -36.127022 -41.03064048)
5(-16.04326971 -19.45961062 -29.44111449 -36.34994324 -58.05563708)
5(-15.29056559 -25.57789586 -33.82286314 -45.18959803 -53.51915988)
5(-15.11439693 -22.96230962 -35.17989259 -46.60739609 -58.19518628)
5(-21.89542778 -28.23552878 -37.81549966 -42.75101451 -67.39843005)
5(-20.09148844 -32.28283477 -35.68127286 -52.84578581 -53.86535462)
5(-26.37186496 -38.60720855 -44.97176678 -53.70651036 -92.15893519)
5(-26.55201997 -36.81700199 -50.14576644 -59.63950046 -43.25049125)
5(-13.95245865 -37.13772391 -49.76169572 -58.41379712 -86.3721515)
5(-40.34123867 -20.80512003 -43.80959263 -59.82009119 -71.04662521)
5(-26.20491757 -43.84444867 -40.67280458 -49.47992957 -55.86834571)
5(-30.41427284 -34.28256981 -41.94361872 -49.83673214 -68.28535896)
5(-5.33562651 -35.44569148 -37.59221705 -36.73820166 -42.12357639)
5(-35.30651964 -28.81354244 -31.12332928 -35.52286904 -39.92279035)
5(-17.08339144 -13.90374801 -17.10434476 -18.23189556 -37.71526338)
5(-2.76641184 -10.22536602 -9.709872727 -1.939641602 16.14723386)
5(-1.63719257 3.90272661 7.145683996 20.39244791 -3.220514738)
5(9.955750503 7.662650104 31.7390202 30.92332789 32.69990036)
5(17.01236836 27.7083639 39.91374934 49.56719846 49.35094735)
5(26.83098505 52.24081909 61.39360892 67.63206005 61.21118994)
5(49.62621595 53.09365429 77.99011505 78.61576368 86.47275346)
5(47.43059753 61.64943402 88.13483053 97.4191526 81.74473648)
5(59.13021823 79.46533154 94.86999637 100.7675027 108.6417424)
5(60.30227512 78.56311065 93.28481307 105.6092375 108.538064)
5(50.99280145 73.87124975 93.15493771 111.1671419 111.9252384)
5(47.7577041 57.64540559 96.81600714 107.5270977 94.6664896)
5(17.98113973 42.29315121 69.01231502 115.3079866 117.157905)
5(-4.528139214 24.02943898 70.29625258 107.2443645 114.9583566)
5(-71.99960894 -3.674445551 41.97122717 111.5342003 133.5795918)
5(-54.83764197 -19.72217891 74.97961143 114.1783176 131.4363837)
5(-106.5120482 -31.18390085 86.71112581 137.4529571 148.3679066)
5(-87.89030505 -23.72140441 82.12918654 118.4118935 157.8881743)
5(-104.0401846 -9.385834937 75.17613756 172.5268686 168.0175558)
5(-102.2033574 -3.648055139 110.700237 156.9191099 146.4402079)
5(-75.99718772 18.57363603 116.9493038 155.0656363 139.6884376)
5(-53.50401898 22.52787333 102.7367247 140.2016822 111.5964786)
5(-34.72406542 31.78893832 85.91663489 92.74103741 83.39572772)
5(-26.2048415 25.2320466 67.1300602 79.55765858 68.05548487)
5(-17.41441834 13.1773095 36.39421222 51.52237543 44.85715949)
5(-26.17662239 -4.783619718 10.83431459 20.5472867 27.53186108)
5(-31.61075075 -18.1968011 -5.310517118 5.942763661 7.594833835)
5(-38.01002725 -32.16630942 -25.09381964 -14.42572219 -8.968137933)
5(-49.09766713 -35.52339981 -33.92238865 -34.21213011 -35.37909926)
5(-15.30032822 -9.373184245 -11.23107075 -7.764872956 -2.789250554)
)


60
(
5(-49.69745976 -47.39993253 -27.11169566 -21.66702323 -12.59478616)
5(-12.44236579 227.2866014 -215.3790228 -129.9495602 -55.91315754)
5(-2.107852934 14.87667013 -37.60451659 -38.61170945 -33.03138725)
5(-1.520024355 -88.60115002 23.36108758 -5.102670694 -16.34763693)
5(-1.124899897 -59.16072685 49.90928406 13.13826902 -20.45711181)
5(-2.797947884 7.625689787 48.26087625 31.71305154 -33.71191268)
5(-3.675059096 -7.258889539 9.07466676 -3.650014116 -14.97871787)
5(-4.294763605 -11.74467643 -21.67599543 -28.56878523 -35.60501529)
5(-4.53344923 -14.24074787 -40.50061609 -38.34989128 -27.29788115)
5(-8.42734311 -15.80387574 -30.26710846 -33.08062461 -39.83256026)
5(-3.139514791 -11.95462579 -19.00879622 -26.25292892 -34.07275849)
5(-12.51177171 -14.71972389 -14.88039199 -24.54777846 -40.56787259)
5(-5.919818584 -13.09727712 -15.43526398 -27.7767181 -36.8419451)
5(-15.99795311 -18.77403836 -25.37979824 -33.49183372 -49.76088648)
5(-5.676647195 -18.07477893 -28.59204842 -33.86225527 -41.6370686)
5(-14.5843678 -21.07995734 -30.439288 -41.52219051 -60.30417755)
5(-19.4283026 -26.62308832 -32.59694899 -45.0190078 -45.48474181)
5(-12.8839628 -23.96152258 -36.17174865 -50.79766937 -78.37787698)
5(-24.87721348 -29.05794085 -41.82423617 -48.42024323 -51.66806105)
5(-23.29585457 -35.11194167 -41.81545007 -54.16503805 -82.02455039)
5(-8.792090585 -31.01096571 -42.88058354 -59.13441586 -83.13683749)
5(-40.74750698 -38.5950783 -55.65348301 -62.97985346 -71.76589337)
5(-25.76540906 -42.87533103 -51.33121416 -71.60930501 -91.58965944)
5(-27.56457992 -42.42031493 -53.44289075 -69.35411692 -97.26786459)
5(-32.12042314 -50.73893939 -62.9484321 -67.09577526 -64.42076125)
5(-35.66425979 -52.45485394 -55.57588581 -71.34562401 -95.54683049)
5(-32.96006918 -41.99641476 -55.8821875 -67.0830798 -79.17834623)
5(-44.77184531 -42.79864993 -53.06128884 -61.05955229 -82.95941576)
5(-27.46208156 -44.69220109 -48.57876474 -53.19041812 -51.60047981)
5(-40.45571707 -36.7748205 -36.83733172 -42.26914318 -58.40849489)
5(-11.66878942 -27.05470613 -30.16437585 -32.52177605 -34.15376108)
5(-19.26567357 -26.25305389 -8.708003587 -9.477138509 -12.96195408)
5(-14.16328115 -1.923921011 -3.371428612 9.782906959 16.29040716)
5(9.152623728 5.659291876 24.39386734 29.91089049 -0.1216893352)
5(7.641290352 21.81993148 34.67381309 48.6588839 68.57391497)
5(36.86346123 37.96491773 50.44616445 68.02319877 70.80575159)
5(21.48337627 43.85403604 73.74251128 82.06079192 84.49186743)
5(48.65910924 55.31787715 77.83667518 97.72994534 107.2278384)
5(36.78001199 62.10462468 88.30679842 111.5278304 110.5951675)
5(38.71877796 54.15858426 92.94942074 103.9761711 136.1470155)
5(41.72542248 47.66576049 79.17683488 108.9615782 95.09889473)
5(13.64656123 32.5950501 68.13699945 112.9899362 124.5357649)
5(-33.70163943 7.537802595 47.80303199 101.1433542 122.9980937)
5(-59.61331408 -28.68501989 38.14071202 83.40095753 119.6138503)
5(-87.52100651 -58.80067477 8.180292109 97.59380727 119.1871602)
5(-119.8921349 -85.23709291 8.79184057 81.88565081 160.3793017)
5(-168.0365874 -104.3361245 19.55980446 105.1706665 160.0442528)
5(-188.2352127 -117.4017709 -50.53518081 120.3360379 172.5845373)
5(-197.633178 -107.134939 37.13094209 132.5360871 195.5734201)
5(-204.0827715 -104.5281753 39.07008964 163.1581205 233.2273671)
5(-169.2386693 -68.80920396 53.57855834 153.3957892 142.9469798)
5(-156.7449126 -67.99855659 75.84624048 150.6419676 189.0302375)
5(-110.604504 -20.50019858 61.89103756 134.1379451 142.0618599)
5(-94.13991066 -10.2568973 55.43101282 84.71207766 98.05301797)
5(-56.48076562 -9.529200519 32.76207828 64.10187315 71.10203314)
5(-61.37537303 -12.46772772 15.67048908 33.44205965 36.50691756)
5(-49.2798448 -32.97455126 -15.5176143 1.127540602 13.16786997)
5(-53.3564747 -41.10541523 -36.01857977 -24.02959595 -10.52686519)
5(-67.6547184 -40.02416346 -38.67390042 -42.02308854 -47.25132331)
5(-34.77614663 -21.21000079 -12.68776734 -7.303751525 -11.98528673)
)


60
(
5(-77.91349448 -68.40112769 -68.87503302 -49.87432671 -46.10484962)
5(-1.832651716 296.503988 -195.0374761 -109.9137544 -68.35733828)
5(-4.118794386 31.68233845 -45.29500497 -44.16287821 -30.75480532)
5(-1.849094788 -112.2508839 14.4065337 -16.45909974 -43.4040676)
5(0.06678748372 -81.14233961 49.52394849 6.062550341 -23.85250058)
5(-6.17505125 1.944080098 40.2909152 21.64463248 -37.39187586)
5(-5.201052034 -11.97401624 5.595759628 -8.609249859 -35.40358587)
5(-1.573808026 -16.16590639 -26.5404787 -33.48147933 -34.75358078)
5(-13.87959861 -16.02919745 -45.79248401 -45.64919685 -47.67675017)
5(-2.556758836 -18.52436997 -39.25298625 -40.41103181 -33.82650932)
5(-11.04282315 -14.837714 -23.85699435 -33.43908422 -46.61313873)
5(-9.740304944 -19.2277762 -22.25757652 -32.35482714 -48.82308512)
5(-13.8462227 -18.76992368 -19.31219923 -35.30830449 -46.80469458)
5(-15.15702618 -24.80480782 -30.91011741 -41.84781393 -65.01155706)
5(-12.99422205 -20.67597475 -33.61361087 -42.468049 -56.97274471)
5(-16.3665709 -28.38883254 -40.55228218 -51.46659758 -62.74009459)
5(-16.56312793 -31.61076377 -37.11058756 -53.29931301 -69.63291475)
5(-32.66046588 -34.97281443 -45.81572427 -60.24647136 -65.6978232)
5(-5.316468506 -33.32447472 -44.83841025 -57.37073384 -95.39376004)
5(-39.96836118 -36.00507402 -52.45659852 -68.09550456 -61.36521638)
5(-31.7468777 -45.99121538 -60.53977955 -65.79089734 -115.9365852)
5(-12.86158491 -45.65996497 -57.74318188 -75.15090204 -82.73896399)
5(-60.48666344 -51.31324766 -64.63911523 -80.97628866 -107.6087618)
5(-11.84901685 -53.39929665 -69.66503377 -84.56707011 -102.0131956)
5(-47.09371977 -43.24440947 -66.40785161 -89.59832096 -110.2460626)
5(-54.08492419 -62.17577979 -76.1327359 -78.55769565 -113.5750683)
5(-44.57637463 -60.94525466 -74.92880338 -70.20202884 -73.04453082)
5(-11.2255274 -54.06667823 -51.95259316 -76.86009122 -101.4091589)
5(-58.58066945 -51.47568756 -60.85034987 -72.12548966 -71.34652211)
5(-27.97071313 -52.13158232 -56.36409863 -43.55023832 -98.18900428)
5(-68.77010669 -39.88724844 -42.31553005 -43.33148645 -21.59417916)
5(-6.84757808 -27.85248288 -26.05754621 -27.96504543 -54.24769177)
5(-25.43654449 -25.72992445 -13.58943972 -5.410542539 13.16162694)
5(-19.21732802 -11.79142213 5.026233481 17.18082292 -5.524533451)
5(-4.13016643 6.298847166 25.5366964 36.70993802 46.28232657)
5(1.198847751 11.08421925 34.82006113 61.58082045 71.85492468)
5(5.221221734 27.90187199 62.17427243 74.11056367 84.4009801)
5(11.78378493 34.42251514 68.10705579 91.10469668 88.89097757)
5(10.67762784 35.91002861 72.23990845 99.98427994 128.5492116)
5(-1.909234659 35.82992246 69.17247468 87.28897703 112.8631262)
5(-10.8706146 13.41948557 55.92688118 91.21759147 112.3517794)
5(-11.8652967 -18.20795306 33.62131115 74.27766161 110.7867794)
5(-32.76807585 -43.62393452 -6.741559731 82.1547217 74.24314318)
5(-96.68757361 -81.90296834 -27.76383707 47.99227538 135.0532491)
5(-149.2475479 -122.9705718 -53.53082931 27.18619372 53.47979581)
5(-195.6046834 -158.8156682 -76.48244455 15.83626093 151.6950693)
5(-240.3716008 -207.4242506 -98.30858056 13.83085321 96.30503814)
5(-249.2187675 -225.8100141 -105.7642129 28.8724426 162.4022953)
5(-276.8106795 -226.7848184 -104.986075 81.40266825 163.3365874)
5(-310.5458875 -230.7185312 -82.18926995 75.20257753 202.2121717)
5(-285.5798566 -195.1720446 -50.15008861 103.3093604 207.8333887)
5(-277.4937772 -161.7566787 -11.5456638 123.1369965 187.2152166)
5(-239.5105616 -123.4100874 -10.51129901 92.74926038 169.7164202)
5(-199.384755 -88.66176818 26.43521566 91.23955017 125.6219088)
5(-161.590984 -70.19839796 7.578743479 59.0363189 89.74921491)
5(-118.0136379 -48.13430536 -5.904395488 30.29094536 50.8021353)
5(-101.9737495 -49.15267108 -18.64095589 -1.457663604 13.76028221)
5(-88.47076277 -54.68631553 -44.70685372 -32.22653267 -18.0454737)
5(-81.31584797 -60.74958024 -38.84846649 -41.72558402 -44.3991044)
5(-108.0271718 -43.73988843 -8.558835603 -5.704234747 9.832250308)
)


60
(
5(-150.553642 -149.5613047 -107.1102344 -63.57710603 -17.0104142)
5(11.68767338 372.4540685 -169.3702486 -91.97774273 -82.34457469)
5(-2.173371769 50.43852758 -45.82988564 -46.23192067 -37.90266008)
5(-7.678312412 -137.9862085 7.395677161 -25.47702668 -52.49333742)
5(-3.072400744 -104.2748386 36.9304378 -6.9623847 -34.01643286)
5(-4.666563466 -7.80449199 33.87736404 12.93836342 -47.1364337)
5(-6.558848282 -15.34918253 -0.9885437105 -15.57622267 -47.90957588)
5(-6.757454968 -19.46804134 -29.41336909 -42.22107284 -43.64073019)
5(-7.392360622 -22.89125595 -53.27532346 -53.17385753 -50.31552095)
5(-14.3631164 -23.76464022 -45.22941273 -47.32867386 -53.97054318)
5(-7.804928893 -19.02341434 -32.09066695 -43.7265298 -50.27567923)
5(-15.51634376 -19.45112558 -23.18223542 -39.00286035 -67.2088314)
5(-9.631813049 -25.18077179 -30.81424452 -44.68673267 -47.04308296)
5(-25.49018837 -24.25583307 -31.31567096 -47.1926682 -74.56327871)
5(-9.780972335 -29.76489173 -44.34980082 -54.55678654 -67.45196394)
5(-40.42748394 -34.46879111 -45.3879595 -55.12977243 -82.5557763)
5(-1.830440833 -36.54560585 -49.16790885 -65.53976122 -89.31746537)
5(-51.97617581 -36.95287109 -45.21291746 -64.16887602 -88.22693058)