/*--------------------------------*- C++ -*----------------------------------*\
| =========                 |                                                 |
| \\      /  F ield         | OpenFOAM: The Open Source CFD Toolbox           |
|  \\    /   O peration     | Version:  2.3.1                                 |
|   \\  /    A nd           | Web:      www.OpenFOAM.org                      |
|    \\/     M anipulation  |                                                 |
\*---------------------------------------------------------------------------*/
FoamFile
{
    version     2.0;
    format      ascii;
    class       dictionary;
    location    "constant";
    object      la_i16;
}
// * * * * * * * * * * * * * * * * * * * * * * * * * * * * * * * * * * * * * //

la_i16_table
60
(

60
(
5(1.739977523e-09 5.691127346e-09 1.344385489e-09 1.16002985e-11 -6.399486671e-10)
5(-2.622294067e-09 5.799355548e-09 1.680951846e-09 1.194077419e-11 -6.819081835e-10)
5(2.187501341e-09 9.707480172e-09 1.713773148e-09 1.194204006e-11 -7.080531595e-10)
5(1.025817582e-08 1.798343683e-08 1.666921906e-09 1.202281789e-11 -7.028941581e-10)
5(1.748402792e-08 2.199556152e-08 1.593863505e-09 1.183990957e-11 -6.897962222e-10)
5(2.242057325e-08 2.029837896e-08 1.592184028e-09 1.15874078e-11 -6.887774058e-10)
5(6.018638859e-09 5.539322279e-09 1.513177769e-09 1.142215785e-11 -6.739170895e-10)
5(-2.070517085e-09 5.43970604e-09 1.345709934e-09 1.098761295e-11 -6.621712659e-10)
5(1.839095332e-08 2.129727458e-08 1.192195188e-09 1.046328418e-11 -6.473926397e-10)
5(3.789879797e-08 3.323761628e-08 9.422665878e-10 9.787402907e-12 -6.160984548e-10)
5(5.057902964e-08 3.644613169e-08 5.891022696e-10 8.863211419e-12 -5.752472371e-10)
5(2.167000018e-08 1.36973928e-08 1.193510385e-10 7.569786677e-12 -5.280100998e-10)
5(3.339711071e-09 3.759490764e-09 -4.66279087e-10 5.718560772e-12 -4.577359395e-10)
5(1.340474722e-09 2.983923334e-09 -1.324639357e-09 3.557946318e-12 -3.717191758e-10)
5(1.041137454e-09 1.897770763e-09 -2.411498419e-09 4.572828947e-13 -2.560008431e-10)
5(1.771488361e-09 1.663148947e-09 -3.697552939e-09 -3.442945314e-12 -1.054927804e-10)
5(1.605582614e-09 -6.536816683e-11 -5.470185613e-09 -8.769217363e-12 1.12145595e-10)
5(7.358745862e-10 -2.804703719e-09 -8.286863545e-09 -1.657110051e-11 4.171117221e-10)
5(-1.811586341e-10 -6.337217219e-09 -1.195704757e-08 -2.66992702e-11 8.175543394e-10)
5(-9.383847807e-10 -1.098507399e-08 -1.700572344e-08 -4.152313207e-11 1.376034589e-09)
5(-1.899815987e-09 -1.687336501e-08 -2.366166687e-08 -6.204724519e-11 2.212962558e-09)
5(-3.213402603e-09 -2.497402023e-08 -3.328409266e-08 -8.838558191e-11 3.299022487e-09)
5(-5.066502526e-09 -3.665850123e-08 -4.685904407e-08 -1.303496706e-10 5.073557668e-09)
5(-7.512706224e-09 -5.418805921e-08 -6.732624374e-08 -1.948720945e-10 7.800983364e-09)
5(-1.125610692e-08 -7.8573098e-08 -9.78261069e-08 -2.947296534e-10 1.215940324e-08)
5(-1.676123492e-08 -1.119567464e-07 -1.454889149e-07 -4.579330883e-10 1.931120318e-08)
5(-2.479583992e-08 -1.685481302e-07 -2.205529399e-07 -7.193045046e-10 3.094715569e-08)
5(-3.646898748e-08 -2.64618647e-07 -3.453689059e-07 -1.14823775e-09 4.987579667e-08)
5(-5.596635471e-08 -4.149707873e-07 -5.458294825e-07 -1.840014451e-09 8.09963333e-08)
5(-8.646558598e-08 -6.567558558e-07 -8.726161196e-07 -2.943817192e-09 1.310221868e-07)
5(-1.364320256e-07 -1.044780008e-06 -1.407370252e-06 -4.752190442e-09 2.120578111e-07)
5(-2.15643976e-07 -1.65904507e-06 -2.245303106e-06 -7.533100667e-09 3.293703216e-07)
5(-3.399724156e-07 -2.607605536e-06 -3.550728129e-06 -1.166248948e-08 5.11922776e-07)
5(-5.331891244e-07 -4.053660324e-06 -5.539239137e-06 -1.786579775e-08 7.668254307e-07)
5(-8.269380057e-07 -6.188513537e-06 -8.390151233e-06 -2.636098212e-08 1.102957354e-06)
5(-1.258340498e-06 -9.205647394e-06 -1.249368794e-05 -3.798876679e-08 1.543726971e-06)
5(-1.874734609e-06 -1.329357288e-05 -1.758989653e-05 -5.161250875e-08 2.104768108e-06)
5(-2.707817581e-06 -1.863111498e-05 -2.412716686e-05 -6.991159505e-08 2.597975896e-06)
5(-3.79808791e-06 -2.506917335e-05 -3.193410678e-05 -8.616982873e-08 3.41812386e-06)
5(-5.145849308e-06 -3.241865088e-05 -4.049484925e-05 -1.134507555e-07 3.666749681e-06)
5(-6.675346773e-06 -3.999209832e-05 -4.792129229e-05 -1.267077092e-07 3.427427526e-06)
5(-8.235854651e-06 -4.689176644e-05 -5.505084698e-05 -1.193033265e-07 3.065156834e-06)
5(-9.728562195e-06 -5.170111038e-05 -6.083267027e-05 -9.52683403e-08 2.335330234e-06)
5(-1.078992394e-05 -5.259914082e-05 -6.203506932e-05 -8.28197553e-08 1.827672086e-06)
5(-1.127099723e-05 -5.065214462e-05 -5.361625814e-05 -6.482265071e-08 1.252684733e-06)
5(-1.072667212e-05 -4.519006076e-05 -3.831222596e-05 -4.483684365e-08 7.485397589e-07)
5(-9.530599161e-06 -3.822409294e-05 -2.156202628e-05 -2.543389577e-08 3.799927693e-07)
5(-7.731899951e-06 -2.609581226e-05 -1.276871073e-05 -1.290230178e-08 1.624535885e-07)
5(-5.513047676e-06 -1.401794588e-05 -6.696136297e-06 -5.647142337e-09 5.898236873e-08)
5(-4.127308255e-06 -5.896301491e-06 -2.721802651e-06 -2.039554364e-09 1.85458154e-08)
5(-1.55343553e-06 -2.784851412e-06 -9.532680124e-07 -6.290930161e-10 4.7788627e-09)
5(-4.62200222e-07 -8.768942185e-07 -2.756948024e-07 -1.613027916e-10 6.95465097e-10)
5(-1.514340748e-07 -2.256929933e-07 -6.592552708e-08 -2.86826207e-11 -3.948340839e-10)
5(-3.263296381e-08 -3.958977082e-08 -1.104767962e-08 4.174486534e-12 -6.532628963e-10)
5(-3.56819799e-09 -1.388400287e-09 -1.256491444e-10 1.109315304e-11 -7.07737057e-10)
5(1.305108675e-09 5.195102195e-09 1.645486038e-09 1.22878979e-11 -7.170331016e-10)
5(1.78391997e-09 5.866032916e-09 1.872318729e-09 1.24394332e-11 -7.183135833e-10)
5(1.816889282e-09 5.924942785e-09 1.887143654e-09 1.245150223e-11 -7.184125228e-10)
5(1.817906654e-09 5.927182156e-09 1.887159531e-09 1.245317043e-11 -7.184161611e-10)
5(-1.98146408e-15 -1.058530337e-14 -5.039652652e-27 -4.481544668e-12 -1.149223631e-15)
)


60
(
5(9.050988016e-15 -1.29731806e-14 3.269369041e-27 -2.743286791e-12 -5.558047203e-15)
5(-2.164599707e-10 2.892530614e-08 7.205689746e-08 4.615379066e-08 1.960357664e-10)
5(-3.278730329e-08 2.600014518e-08 4.657481355e-08 4.499615134e-08 9.600299265e-08)
5(-9.462395183e-08 2.652288797e-08 3.733750023e-08 5.447370449e-08 8.315961898e-08)
5(-1.547560519e-07 3.085785264e-08 6.627458595e-08 6.704294423e-08 7.591666859e-08)
5(-8.795112836e-08 4.752075775e-08 8.82332604e-08 7.564983379e-08 9.668419631e-08)
5(7.169978779e-08 9.080456363e-08 8.838325714e-08 1.223339877e-07 1.339856238e-07)
5(8.721400227e-08 1.260429806e-07 1.389862549e-07 1.721867119e-07 1.999945333e-07)
5(-3.759491907e-08 1.384826728e-07 1.823508317e-07 2.043111373e-07 2.543371603e-07)
5(-1.36218407e-07 1.88961377e-07 2.518223709e-07 2.973923711e-07 3.065285683e-07)
5(-1.04668973e-07 2.661182928e-07 3.259588372e-07 4.002993329e-07 4.187881646e-07)
5(2.041713101e-07 3.663118292e-07 4.815344876e-07 5.37954473e-07 5.832677874e-07)
5(4.308144609e-07 5.364881027e-07 6.360507999e-07 6.516412051e-07 7.550948524e-07)
5(5.197590414e-07 7.508316244e-07 8.451790205e-07 1.005637094e-06 1.024252413e-06)
5(7.462740909e-07 9.392817869e-07 1.084808667e-06 1.285625529e-06 1.47767758e-06)
5(1.025703825e-06 1.337682775e-06 1.540033532e-06 1.809784211e-06 2.00758379e-06)
5(1.370541528e-06 1.833194392e-06 2.20075211e-06 2.655036239e-06 2.888901495e-06)
5(1.809736236e-06 2.649873615e-06 3.15248166e-06 3.760341487e-06 4.182319912e-06)
5(2.536296873e-06 3.516677465e-06 4.479151852e-06 5.57177006e-06 6.642317533e-06)
5(3.751922728e-06 5.391982263e-06 6.78337542e-06 8.673669323e-06 1.013866449e-05)
5(5.365263582e-06 8.023178952e-06 1.061351967e-05 1.338274288e-05 1.579417785e-05)
5(7.47410292e-06 1.272764496e-05 1.615221351e-05 2.206987872e-05 2.572491365e-05)
5(1.212917802e-05 1.978858752e-05 2.676413576e-05 3.660727722e-05 4.361285997e-05)
5(1.922830928e-05 3.274049239e-05 4.440302506e-05 5.933130801e-05 7.454832678e-05)
5(3.190148842e-05 5.569642251e-05 7.340655584e-05 0.0001029563704 0.0001270474095)
5(5.358558515e-05 9.450752435e-05 0.0001306535715 0.0001760530069 0.0002115243391)
5(9.400166864e-05 0.0001582002271 0.0002223770122 0.0002985458242 0.0003520461142)
5(0.0001575507307 0.0002692290124 0.0003733989517 0.0004977171287 0.0005756921815)
5(0.0002714425378 0.0004481269599 0.0006213345653 0.0008013651192 0.0009021103047)
5(0.0004551269731 0.0007253402736 0.0009986890815 0.001254198755 0.001349748017)
5(0.0007305380491 0.001141239148 0.001525648586 0.001842965321 0.001956930846)
5(0.001124857059 0.001696823849 0.002246943817 0.002621206556 0.002601229064)
5(0.001694260814 0.002460648905 0.003130054418 0.003469702887 0.00321931364)
5(0.002407539456 0.003351515066 0.004106277183 0.004202084798 0.003589404809)
5(0.003224727574 0.004172688295 0.004876525732 0.004605978533 0.003467359281)
5(0.004015489253 0.004871816403 0.00520749171 0.004333555093 0.002509830362)
5(0.004497535101 0.004938181053 0.00471657349 0.002856418212 0.0005208608251)
5(0.004336667859 0.00375381751 0.002524046007 -7.919911161e-05 -0.002458779827)
5(0.003054630609 0.001350838292 -0.001309952021 -0.004204312851 -0.005708139293)
5(-7.03261794e-05 -0.00309877472 -0.006633997106 -0.009076840704 -0.008346065699)
5(-0.00475665494 -0.008502970944 -0.01214457774 -0.01314421015 -0.009503923197)
5(-0.01058621073 -0.0146969154 -0.01723733002 -0.01531960356 -0.008711019682)
5(-0.01665534013 -0.01956409699 -0.0197101927 -0.01415416686 -0.005956843299)
5(-0.02089447823 -0.02038829734 -0.0174733901 -0.008879581314 -0.002462269566)
5(-0.02123041398 -0.01742940614 -0.01115929672 -0.002204239763 0.0004108531622)
5(-0.01698684711 -0.01040206013 -0.003313149726 0.002962857693 0.001951020198)
5(-0.009156573451 -0.00148315066 0.003838953458 0.00490392806 0.002113001639)
5(-0.0002345154489 0.005591063825 0.007566763762 0.004427397271 0.001547753622)
5(0.006660101347 0.008743220981 0.007273071433 0.002769866306 0.000877002132)
5(0.009213005096 0.008107629521 0.004391074145 0.001326722221 0.0004006644617)
5(0.008051094526 0.005175193437 0.002126280538 0.0004425002999 0.000147963999)
5(0.005002811216 0.002305255162 0.0006890228665 0.0001245319521 4.27978844e-05)
5(0.002390269695 0.000716159704 0.0001687846297 2.992730937e-05 7.779415515e-06)
5(0.0008454440362 0.000166029128 3.552639055e-05 6.43098443e-06 4.091746084e-07)
5(0.0002495644666 2.37717107e-05 5.343602122e-06 1.156502656e-06 -3.065350217e-07)
5(4.87281826e-05 2.919453964e-06 6.252983057e-07 1.593569085e-07 -1.10307901e-07)
5(5.825587048e-06 1.741808905e-07 5.29387113e-08 1.470382322e-08 -1.778980277e-08)
5(2.097566361e-06 8.434606328e-09 1.920422234e-09 1.05806373e-08 2.037684385e-08)
5(3.452505189e-10 6.607652681e-10 2.094104098e-08 -4.151661882e-09 1.339264322e-11)
5(8.526168225e-10 1.909011966e-09 3.212275076e-10 2.172399547e-09 6.65243893e-10)
)


60
(
5(8.443552427e-10 2.374750006e-09 3.483306866e-09 8.912729489e-10 -6.720848844e-12)
5(9.195505913e-08 9.369614139e-08 2.081054745e-07 1.960966921e-07 1.03935393e-07)
5(9.644613763e-08 1.099204425e-07 1.497800898e-07 1.76051811e-07 2.312007264e-07)
5(7.973752009e-08 1.369148502e-07 1.496411132e-07 2.049295269e-07 1.496298721e-07)
5(1.136953658e-07 1.814824233e-07 2.150917441e-07 2.783435237e-07 2.98280398e-07)
5(1.685386643e-07 2.56457839e-07 3.101251475e-07 3.422527656e-07 3.67969161e-07)
5(2.482524969e-07 3.279217764e-07 4.260327819e-07 5.198517588e-07 5.901228328e-07)
5(2.645699867e-07 4.486753378e-07 5.730151743e-07 6.626212812e-07 7.56245359e-07)
5(4.582951921e-07 6.069061807e-07 7.58411766e-07 8.550625204e-07 6.61628203e-07)
5(5.753075272e-07 8.168399847e-07 9.132074299e-07 1.05584662e-06 1.129091391e-06)
5(8.206186188e-07 1.058044043e-06 1.233206058e-06 1.41525742e-06 1.385963731e-06)
5(7.239732858e-07 1.256200496e-06 1.559618255e-06 1.713990877e-06 1.689388859e-06)
5(1.388347216e-06 1.773897777e-06 2.076504004e-06 2.282968457e-06 2.117837861e-06)
5(1.796287314e-06 2.315527158e-06 2.64725142e-06 2.967235237e-06 3.287331207e-06)
5(2.771046826e-06 3.041764953e-06 3.578538802e-06 3.953009583e-06 3.881854449e-06)
5(1.642771788e-06 3.857599023e-06 4.339237087e-06 5.116579091e-06 5.40984433e-06)
5(3.894667736e-06 5.001289647e-06 6.123489509e-06 7.209508796e-06 8.386927962e-06)
5(4.913742266e-06 6.418506766e-06 7.885609228e-06 1.028286217e-05 1.096693813e-05)
5(5.918745133e-06 8.936582163e-06 1.184948677e-05 1.425899955e-05 1.562114015e-05)
5(9.587652224e-06 1.150050856e-05 1.595192411e-05 2.137847595e-05 2.310242183e-05)
5(7.949397859e-06 1.696660686e-05 2.393898933e-05 3.211578524e-05 4.169142582e-05)
5(1.393868085e-05 2.525247814e-05 3.313176729e-05 4.701989933e-05 5.117431632e-05)
5(2.391255639e-05 3.750403968e-05 5.420239403e-05 7.870425479e-05 9.181943276e-05)
5(3.184470233e-05 5.938920188e-05 8.784794129e-05 0.0001268350816 0.0001506906112)
5(4.557876368e-05 9.789197474e-05 0.0001482791503 0.000214783904 0.0002578310246)
5(8.350334164e-05 0.0001662543911 0.0002481538821 0.0003539376361 0.0004219138413)
5(0.0001469830135 0.0002724786709 0.0004102380524 0.0006032218635 0.0006977415966)
5(0.0002110577136 0.0004783008533 0.0007181231783 0.001009629173 0.001187586746)
5(0.0004270748811 0.0007861033815 0.001179050771 0.001629245081 0.001938997497)
5(0.0006477742059 0.001287288252 0.001891136285 0.002573956648 0.002699823792)
5(0.001119019526 0.002078058372 0.002969362992 0.00388965855 0.004397295486)
5(0.00178378578 0.003135892633 0.004430347947 0.00559956577 0.005815703026)
5(0.002736954579 0.004558836443 0.006303676619 0.007512290335 0.008035916559)
5(0.00391758152 0.006387197847 0.008489203803 0.009692336739 0.009107059652)
5(0.005695776877 0.008317324656 0.01043319143 0.01129001403 0.01073307022)
5(0.007426172877 0.01002225866 0.01193603698 0.01161786563 0.00938712618)
5(0.007738478813 0.01091567816 0.01165498394 0.009759325473 0.006220800219)
5(0.01012227524 0.01007113955 0.008737814211 0.0047501895 0.0001209683488)
5(0.007701416535 0.006288357587 0.002600419504 -0.003763704995 -0.008004546639)
5(0.004905813107 -0.0008822430719 -0.007917092601 -0.01542806073 -0.01949798601)
5(-0.001532592302 -0.0113579545 -0.02119955377 -0.02794090773 -0.0270929627)
5(-0.01189254755 -0.02448049207 -0.03505855889 -0.03786215289 -0.03152561986)
5(-0.02336006167 -0.03691404939 -0.04490562395 -0.041576757 -0.02891250888)
5(-0.03348554253 -0.0452297109 -0.04772075973 -0.03641018419 -0.02004818244)
5(-0.04048560149 -0.04565047675 -0.03997000759 -0.02354516712 -0.008338260365)
5(-0.04004087131 -0.03576323656 -0.02441253514 -0.007825547132 0.002981336509)
5(-0.02965126091 -0.01981825544 -0.004290801752 0.006762021467 0.00850324972)
5(-0.01467759549 -3.15471764e-05 0.01104622548 0.01396092628 0.009609746843)
5(0.001520299472 0.01395182782 0.01881052759 0.01299910959 0.006943282928)
5(0.01405193901 0.01926122889 0.01689207397 0.009719629947 0.003749232681)
5(0.01719411152 0.01676380059 0.01094712699 0.004767049804 0.00160908866)
5(0.0145028837 0.01041873014 0.005348859911 0.001958363276 0.0004895885493)
5(0.008141221492 0.004508399247 0.001804622802 0.0005641367628 0.0001351538483)
5(0.003194836308 0.001374433484 0.0004586353905 0.000132541407 3.065996347e-05)
5(0.0007426025476 0.0002744307947 7.477068808e-05 2.156997045e-05 5.40387745e-06)
5(0.0001111312113 3.456269324e-05 9.063262453e-06 2.895596006e-06 8.06304439e-07)
5(8.391336641e-06 2.709243079e-06 6.398729138e-07 2.564006106e-07 7.781536899e-08)
5(3.329348461e-07 -4.429279821e-07 2.75185583e-08 -4.669349145e-07 3.61850381e-09)
5(7.196788508e-08 1.608350055e-07 5.22047771e-08 1.079121728e-07 1.545042773e-08)
5(4.229898562e-13 -9.432757097e-09 -4.690160368e-08 1.314488854e-11 2.230774627e-14)
)


60
(
5(-7.968036433e-10 -6.621619984e-10 -4.870867099e-08 -9.470684133e-10 -1.585561351e-09)
5(2.639866199e-07 2.463273795e-07 5.064253342e-07 5.610440733e-07 5.098314609e-07)
5(2.087682436e-07 3.043256889e-07 4.313069053e-07 5.255797728e-07 5.914656008e-07)
5(2.555363661e-07 3.970809902e-07 4.750395226e-07 6.322755905e-07 6.119159838e-07)
5(3.351308243e-07 5.29180054e-07 6.40430146e-07 8.320300088e-07 9.088689852e-07)
5(4.683288083e-07 7.103885428e-07 9.328117698e-07 1.143520866e-06 1.189078265e-06)
5(6.483319823e-07 9.792278861e-07 1.296194919e-06 1.495912934e-06 1.568700338e-06)
5(9.215935908e-07 1.325671851e-06 1.681013084e-06 1.89157596e-06 2.162274919e-06)
5(1.283142092e-06 1.720878349e-06 2.158599175e-06 2.398564111e-06 2.143715006e-06)
5(1.542153488e-06 2.26806191e-06 2.636479381e-06 3.024592924e-06 3.044192029e-06)
5(2.181820579e-06 2.863029793e-06 3.46652597e-06 3.712460747e-06 3.083329519e-06)
5(2.824821269e-06 3.687137921e-06 4.304376907e-06 4.367077448e-06 4.674682491e-06)
5(2.837914447e-06 4.633791003e-06 5.225991401e-06 5.581352531e-06 6.106968133e-06)
5(4.724846924e-06 5.848030153e-06 6.568502326e-06 7.399039873e-06 5.723131896e-06)
5(6.021038562e-06 6.870657849e-06 8.188265097e-06 9.329861981e-06 1.07547182e-05)
5(8.182020322e-06 9.549396268e-06 1.117741181e-05 1.204392577e-05 1.261738755e-05)
5(5.788129421e-06 1.214689012e-05 1.488986309e-05 1.751459654e-05 1.828466266e-05)
5(1.593708165e-05 1.384026255e-05 1.739750304e-05 2.218507096e-05 2.823668285e-05)
5(6.544156121e-06 1.953581153e-05 2.558785322e-05 3.064051256e-05 3.181481727e-05)
5(2.113379676e-05 2.562553687e-05 3.054625973e-05 3.997369388e-05 5.030532292e-05)
5(3.324450666e-05 2.846744757e-05 4.450313957e-05 6.191307894e-05 8.621564413e-05)
5(2.045750826e-05 4.532705999e-05 6.408000999e-05 8.254172966e-05 8.642719887e-05)
5(7.244361773e-06 6.177589412e-05 9.298296201e-05 0.0001282212848 0.0001713469792)
5(7.473100425e-05 8.772399759e-05 0.0001244912915 0.000202434239 0.0002308858192)
5(6.112897363e-05 0.000125971386 0.0002147252301 0.0003209629655 0.000434030587)
5(0.0001078207282 0.0002176681528 0.0003544061751 0.0005315152522 0.0006904107597)
5(0.0001607936918 0.0003642485383 0.0005850222116 0.0008862212221 0.00109575501)
5(0.0002950871067 0.0006143577141 0.0009889401531 0.001481209424 0.001862808995)
5(0.0004884439653 0.0010289187 0.001656797107 0.002390077397 0.002936370696)
5(0.0008436284198 0.001703088467 0.002702182949 0.003843684839 0.004766012446)
5(0.001441993497 0.002769536093 0.004272768935 0.005880610241 0.006877347887)
5(0.00231357321 0.004284240043 0.006409723393 0.008642234772 0.01008113831)
5(0.003619399485 0.006453658928 0.009390565101 0.01198743331 0.01311824247)
5(0.005472810213 0.00919397084 0.01294734944 0.01590146589 0.0179827107)
5(0.007574503007 0.01227394379 0.01666768821 0.01941129094 0.01817893107)
5(0.01056510425 0.01546215539 0.02001531905 0.02149013358 0.02129413056)
5(0.01358302709 0.01806519257 0.02109025723 0.02081604867 0.01706087013)
5(0.01470670094 0.01829122351 0.01929103661 0.01528184016 0.007629391237)
5(0.01477468681 0.01543651868 0.01191395657 0.003645666875 -0.004968994552)
5(0.01227451898 0.007529047184 -0.001948266076 -0.01414792056 -0.02559686393)
5(0.004628051446 -0.006313582333 -0.02180796004 -0.03673325348 -0.04266002833)
5(-0.00667513737 -0.02507840214 -0.04539848017 -0.05869138046 -0.06129285214)
5(-0.02345406321 -0.04603728346 -0.06718589401 -0.07438592604 -0.06362814317)
5(-0.0397767237 -0.06455873199 -0.08068809555 -0.07688984915 -0.05706099784)
5(-0.0551477122 -0.07427985219 -0.07999760564 -0.06394796037 -0.03994020599)
5(-0.06199145364 -0.06952679303 -0.06264858184 -0.03784777527 -0.01232080437)
5(-0.05624651356 -0.0523605852 -0.03105048615 -0.009651914443 0.00726121363)
5(-0.0403425246 -0.02415820419 -0.001536283419 0.01592031034 0.02095208191)
5(-0.01780167565 0.004884318986 0.02195677869 0.02695204494 0.02072255363)
5(0.006052788145 0.0236520264 0.03411863341 0.02737722546 0.01560705273)
5(0.02015376967 0.02912490185 0.02731154752 0.01719391196 0.008548108591)
5(0.02354484535 0.02498504262 0.01655430229 0.009328419577 0.003703667932)
5(0.01950254114 0.01377024542 0.007485502974 0.00338714309 0.001110772987)
5(0.01085917367 0.005623633619 0.002423668243 0.00094210277 0.0002799744526)
5(0.003842400054 0.00153480544 0.0005114756596 0.0001898171849 5.39016331e-05)
5(0.0009880735204 0.0002646840788 6.519657565e-05 2.527335047e-05 7.412548737e-06)
5(0.0001497056445 2.513071236e-05 5.445481551e-06 2.172070269e-06 7.24832386e-07)
5(1.230189948e-05 4.305817743e-06 1.613931469e-07 3.542224746e-06 3.284104043e-08)
5(2.523912282e-07 -7.553031328e-07 -9.382156041e-08 -9.476812352e-07 -1.771437853e-07)
5(6.920575721e-08 1.041881941e-08 4.671549518e-07 7.432478218e-08 1.772119743e-13)
)


60
(
5(9.035359354e-08 3.383665504e-08 5.529094729e-07 1.09274896e-08 -3.166636075e-09)
5(5.722851513e-07 5.555905403e-07 1.079105216e-06 1.32583088e-06 1.919479228e-06)
5(4.504214969e-07 7.037338602e-07 1.039572279e-06 1.310589155e-06 1.402303747e-06)
5(5.357781364e-07 9.28325291e-07 1.209766782e-06 1.545898189e-06 1.647541885e-06)
5(8.007459703e-07 1.27319897e-06 1.586425092e-06 2.057409482e-06 2.225293083e-06)
5(1.142487558e-06 1.693235904e-06 2.291016041e-06 2.76840596e-06 3.080033892e-06)
5(1.544508238e-06 2.314907868e-06 3.084570225e-06 3.598170149e-06 3.442197818e-06)
5(2.057563541e-06 2.946739807e-06 3.84227609e-06 4.470306478e-06 5.044072807e-06)
5(2.83903472e-06 4.00032079e-06 5.020217201e-06 5.393244489e-06 4.610381262e-06)
5(3.64481584e-06 5.089531323e-06 6.090430039e-06 6.662981048e-06 7.180255208e-06)
5(5.229043743e-06 6.489137681e-06 7.611653243e-06 7.820507422e-06 6.313607271e-06)
5(5.32504631e-06 8.076885058e-06 9.053472486e-06 9.785106927e-06 1.018030087e-05)
5(9.488405484e-06 9.540952941e-06 1.163287451e-05 1.147408446e-05 9.633472642e-06)
5(6.403346952e-06 1.218266688e-05 1.358691242e-05 1.500984013e-05 1.704441994e-05)
5(1.18979836e-05 1.428874447e-05 1.769953148e-05 1.915046737e-05 1.914326178e-05)
5(1.860246893e-05 1.923880803e-05 2.070504891e-05 2.507651735e-05 2.685592639e-05)
5(1.428088483e-05 2.32776321e-05 2.787599759e-05 3.343438861e-05 3.343966899e-05)
5(2.328047931e-05 2.80902697e-05 3.698868143e-05 4.024823724e-05 5.200858304e-05)
5(2.74640055e-05 3.726991131e-05 4.658086065e-05 5.880908603e-05 6.901628561e-05)
5(3.080547832e-05 4.328958937e-05 5.921169549e-05 7.644220356e-05 9.036421462e-05)
5(3.933107699e-05 5.498954348e-05 7.881315051e-05 9.914098656e-05 0.0001418829515)
5(4.852124279e-05 7.286174357e-05 9.925620198e-05 0.0001400701079 0.0001436398153)
5(6.338627433e-05 9.379716675e-05 0.0001332906746 0.0001892562352 0.0003003213329)
5(7.04111951e-05 0.0001230720463 0.000189096853 0.0002751797832 0.0002930963062)
5(5.949516484e-05 0.0001700266085 0.0002824149294 0.0004203148219 0.0006265115447)
5(0.0001316474379 0.0002074108748 0.0004244300223 0.0006733377575 0.0009000526184)
5(0.0002023163705 0.0004112435234 0.0006763795596 0.001086300201 0.001438187344)
5(0.0003122233907 0.0006642186889 0.001146671733 0.001805954866 0.002486200565)
5(0.0004256846422 0.001113616965 0.001939715479 0.002954692039 0.003889557272)
5(0.0009017418431 0.001865903426 0.003185654577 0.004727199622 0.006182507107)
5(0.001475190698 0.003045843049 0.005051126873 0.007456936737 0.009799560233)
5(0.002443012369 0.004943815228 0.007925737045 0.01109354845 0.01295539356)
5(0.004075139947 0.007659019339 0.01178101322 0.01589702857 0.01935197431)
5(0.006329354486 0.01099474381 0.01650013545 0.02142828708 0.02472936566)
5(0.009317773012 0.01538077947 0.02216125058 0.0272924606 0.02995289541)
5(0.01262886389 0.02007258418 0.02770925952 0.03215335848 0.03386285657)
5(0.0162993523 0.02444647653 0.03139880941 0.03408411753 0.03324283847)
5(0.02078742906 0.02730454858 0.03167530426 0.03022230237 0.02164218748)
5(0.02204042746 0.02630236726 0.02563921242 0.01824528457 0.006378044039)
5(0.02129869868 0.01978675907 0.0115815879 -0.003179991876 -0.01945750773)
5(0.01461361801 0.00579778195 -0.01228539436 -0.0340423651 -0.05253799073)
5(0.00342340797 -0.01573484252 -0.04410554267 -0.06918446245 -0.08602517949)
5(-0.01498815557 -0.04370375299 -0.07786169661 -0.1006770972 -0.1038342191)
5(-0.03659587708 -0.0722410367 -0.1079675456 -0.1201086663 -0.1099212724)
5(-0.05939639588 -0.09449950362 -0.1182040177 -0.1168944995 -0.0894441232)
5(-0.07336172533 -0.1031016888 -0.1122550438 -0.08964114152 -0.05623145539)
5(-0.08091887439 -0.09150782254 -0.08069666038 -0.05087175004 -0.01537337171)
5(-0.07385666515 -0.06435031534 -0.03440634921 -0.003699611665 0.01900010124)
5(-0.04962414587 -0.02578076545 0.009330605439 0.03186179569 0.03680610874)
5(-0.02065120908 0.009348359164 0.03797640837 0.04355193532 0.03805929051)
5(0.007362865065 0.03155934165 0.0455592402 0.04019392036 0.02653666952)
5(0.02528740463 0.04143434226 0.03667619709 0.02542969636 0.01337179818)
5(0.02929069975 0.03009093199 0.02072193701 0.01271891327 0.005977661697)
5(0.02389083739 0.01659857335 0.008673172868 0.004353260972 0.001562904896)
5(0.01459816054 0.007016836178 0.002414593959 0.001075544997 0.0003733518283)
5(0.005340409808 0.001831678431 0.0004420794076 0.0001640629662 5.726210108e-05)
5(0.001692813479 0.0003246201508 4.647225519e-05 1.574128818e-05 4.522098966e-06)
5(0.000323521846 4.025063725e-05 2.747659267e-06 3.281899986e-06 2.339678275e-07)
5(4.56973525e-05 7.224500667e-07 -4.787003114e-07 -3.614600648e-07 -7.748638114e-08)
5(2.304232992e-05 3.163337478e-06 6.494665318e-07 5.928372149e-08 5.706623998e-14)
)


60
(
5(2.955488648e-05 3.263119941e-06 1.280562054e-06 1.33328384e-08 -1.008924757e-08)
5(1.126353404e-06 1.079161428e-06 2.079892798e-06 2.720349155e-06 4.462795978e-06)
5(9.91184254e-07 1.461763197e-06 2.150947031e-06 2.822832138e-06 3.549447529e-06)
5(1.129246327e-06 1.878599571e-06 2.47531257e-06 3.338461784e-06 3.308344585e-06)
5(1.515143493e-06 2.544499292e-06 3.436540521e-06 4.433307468e-06 4.349609897e-06)
5(2.361685466e-06 3.495809797e-06 4.781258626e-06 5.671500507e-06 7.088574805e-06)
5(2.974289585e-06 4.667965164e-06 6.232794205e-06 7.354046716e-06 6.105821564e-06)
5(4.339256759e-06 6.158009011e-06 7.995294754e-06 9.075093979e-06 1.024085491e-05)
5(5.287017078e-06 7.745896131e-06 9.922753918e-06 1.071719122e-05 9.62881889e-06)
5(8.053047153e-06 1.006748496e-05 1.209606642e-05 1.288773542e-05 1.322582352e-05)
5(7.623283561e-06 1.216623356e-05 1.424114117e-05 1.499112897e-05 1.232120864e-05)
5(1.34804952e-05 1.533510995e-05 1.753475345e-05 1.800601115e-05 1.852639683e-05)
5(1.247707943e-05 1.779014146e-05 2.080096154e-05 2.151681058e-05 1.795542808e-05)
5(2.077516417e-05 2.249802099e-05 2.592991518e-05 2.70013751e-05 3.175212822e-05)
5(1.86990453e-05 2.690182615e-05 3.120637852e-05 3.346880682e-05 3.057531776e-05)
5(2.609822747e-05 3.287278758e-05 3.891646052e-05 4.546222716e-05 5.670907487e-05)
5(3.679346207e-05 4.250503906e-05 5.028898808e-05 5.842506156e-05 5.444679522e-05)
5(3.038249378e-05 4.899944572e-05 6.319692868e-05 7.828449199e-05 0.0001059396332)
5(5.800892984e-05 6.232272036e-05 8.289997858e-05 9.797227304e-05 0.0001025626145)
5(5.882553537e-05 7.820083841e-05 0.0001009391675 0.0001277214232 0.0001623452087)
5(3.546302762e-05 8.943925229e-05 0.000124792776 0.0001672284751 0.0002287046246)
5(0.0001181334452 0.0001134062156 0.0001673294953 0.0002110488382 0.0002490631829)
5(7.85560132e-05 0.0001375632689 0.0001961154426 0.0002822432771 0.0003854191941)
5(7.370292095e-05 0.0001578194935 0.0002503369681 0.0003730225305 0.0005565199686)
5(0.0001325229265 0.000204297978 0.0003519368484 0.0005114784642 0.0006386783283)
5(0.0001466711443 0.0002821189142 0.0004779531743 0.0007784498421 0.001153973895)
5(0.0001193576649 0.0003900444958 0.0007310293249 0.001229674791 0.00179449242)
5(0.0002648106456 0.0006079587292 0.001189538433 0.001971429238 0.002827327264)
5(0.0004551487342 0.001049762066 0.00202138169 0.003233575222 0.004486865066)
5(0.0008427307538 0.001833620321 0.003331366976 0.005299915667 0.007572178468)
5(0.00126319905 0.00304825555 0.005423912131 0.008283905635 0.01111550542)
5(0.002342285395 0.004961611454 0.008645016865 0.01280306715 0.01678891635)
5(0.00381889554 0.007895218182 0.01299135305 0.01873958648 0.02524879945)
5(0.006598183694 0.01202562196 0.01904074132 0.02613944496 0.03009353185)
5(0.009768389102 0.01734680658 0.02621639531 0.03454415799 0.04070540432)
5(0.01377817809 0.02351537385 0.03409516133 0.04243405666 0.04713008373)
5(0.01959153531 0.02982400574 0.04099635504 0.04760158441 0.04994830203)
5(0.02404943125 0.03485269901 0.04420588847 0.04771671371 0.04447192537)
5(0.02905602089 0.03731259036 0.04202913955 0.03812650759 0.02586044446)
5(0.02940574588 0.03399742803 0.03016850967 0.0164060033 -0.009612766019)
5(0.02673376038 0.02242435703 0.006355061114 -0.01852228007 -0.04057267983)
5(0.01732876834 0.001161188798 -0.029190705 -0.06371499159 -0.1013834693)
5(-0.001327185628 -0.02961103973 -0.07419562374 -0.1120241282 -0.1344699139)
5(-0.02355586514 -0.06460666677 -0.1184325669 -0.1522216873 -0.1644574501)
5(-0.05213497998 -0.09979367265 -0.1487392439 -0.1702146569 -0.1553034177)
5(-0.08080187138 -0.1247106494 -0.1585255064 -0.1565218475 -0.1248394857)
5(-0.08630407395 -0.1304812422 -0.1397098249 -0.1124336353 -0.06913501854)
5(-0.100594529 -0.1121952303 -0.09127288894 -0.05386056359 -0.008294807655)
5(-0.08985001182 -0.0743440605 -0.03499927149 0.005779780204 0.0376610823)
5(-0.05638669132 -0.02976951593 0.02046077745 0.05150299593 0.06027631691)
5(-0.02855948598 0.01613348541 0.05258713955 0.06239216235 0.05588430328)
5(0.004286441827 0.03564891538 0.05920520591 0.05173266371 0.03516995773)
5(0.03097636893 0.04883318319 0.04244752562 0.03274284455 0.01859024267)
5(0.03328442943 0.03711963122 0.02456108465 0.013601182 0.006522161874)
5(0.03336049773 0.02170459601 0.009545171687 0.004467603634 0.001803508986)
5(0.01831968557 0.009465057995 0.00264681056 0.0009264882876 0.0003007954923)
5(0.009357806035 0.002730342073 0.0004130591723 0.0001142959506 3.303416817e-05)
5(0.00343999152 0.0005991838247 4.927022785e-05 8.441442633e-06 1.503356466e-06)
5(0.001167199265 5.32305986e-05 2.874470691e-06 3.998781372e-07 1.366856882e-08)
5(0.0008929739279 0.0001852533325 -8.41933593e-06 -2.939152631e-08 -2.893711414e-10)
)


60
(