/*--------------------------------*- C++ -*----------------------------------*\
| =========                 |                                                 |
| \\      /  F ield         | OpenFOAM: The Open Source CFD Toolbox           |
|  \\    /   O peration     | Version:  2.3.1                                 |
|   \\  /    A nd           | Web:      www.OpenFOAM.org                      |
|    \\/     M anipulation  |                                                 |
\*---------------------------------------------------------------------------*/
FoamFile
{
    version     2.0;
    format      ascii;
    class       dictionary;
    location    "constant";
    object      la_i15;
}
// * * * * * * * * * * * * * * * * * * * * * * * * * * * * * * * * * * * * * //

la_i15_table
60
(

60
(
5(0.002815731939 0.01119768463 0.007159805397 2.600170471e-05 -0.001663293087)
5(0.002805379026 0.01119928155 0.007165833934 2.600481145e-05 -0.001663532619)
5(0.002819804297 0.01120866371 0.007166257935 2.600356443e-05 -0.001663832823)
5(0.002837970286 0.01122702867 0.007165289923 2.600466561e-05 -0.001663708682)
5(0.002856715197 0.01123724186 0.007164176714 2.600200527e-05 -0.001663534158)
5(0.002874007393 0.01123619815 0.007164203253 2.599870465e-05 -0.001663555363)
5(0.002828353345 0.01119406686 0.007163091366 2.599704291e-05 -0.001663418496)
5(0.002804850357 0.0111926342 0.007161105293 2.599272648e-05 -0.001663325764)
5(0.0028675827 0.01123835955 0.007159615642 2.598823692e-05 -0.001663205583)
5(0.002916780627 0.01126666152 0.007157548131 2.59832575e-05 -0.001662982696)
5(0.002949852623 0.01127529798 0.007154863377 2.597729098e-05 -0.001662734778)
5(0.002877830246 0.01121396264 0.007151436632 2.596939126e-05 -0.001662481991)
5(0.002819476862 0.01117783908 0.007147833889 2.595984819e-05 -0.00166215674)
5(0.002812041959 0.01117312611 0.007143318066 2.595013515e-05 -0.001661786336)
5(0.002810330802 0.01116681372 0.007138230945 2.59375837e-05 -0.001661351586)
5(0.002813027691 0.01116735116 0.007133846581 2.592482073e-05 -0.001660863305)
5(0.002812286451 0.01116101715 0.00712820356 2.590863043e-05 -0.001660208458)
5(0.002808367382 0.01115078974 0.007118898974 2.588649795e-05 -0.001659380301)
5(0.002804511613 0.01113877925 0.007108614932 2.586170862e-05 -0.001658451392)
5(0.002801936604 0.01112565825 0.007096718788 2.583031685e-05 -0.001657328564)
5(0.002799139776 0.01111189414 0.007082812676 2.579178258e-05 -0.001655768995)
5(0.002795841859 0.01109520499 0.007065527479 2.574651188e-05 -0.001653888298)
5(0.002791777061 0.01107394409 0.007043366906 2.568223778e-05 -0.001651217757)
5(0.002787046923 0.01104496288 0.007013023514 2.559118638e-05 -0.001647440178)
5(0.002780704305 0.01101172278 0.006973227601 2.546505831e-05 -0.001642038797)
5(0.002771886055 0.01097725667 0.006919373756 2.528098945e-05 -0.001634046016)
5(0.002761045204 0.01091275208 0.006836610754 2.501305228e-05 -0.001622282483)
5(0.002747596858 0.0107992257 0.00671315967 2.461954434e-05 -0.001604953741)
5(0.002727131682 0.01065503807 0.006537325524 2.40447122e-05 -0.001579311354)
5(0.002697798095 0.01045257692 0.006281319983 2.32037327e-05 -0.001541869389)
5(0.002656181499 0.0101655549 0.005912982386 2.201294537e-05 -0.001489318)
5(0.002597885767 0.009755882535 0.005384848202 2.031188445e-05 -0.001415921328)
5(0.002516027824 0.009198301985 0.004659701668 1.804691521e-05 -0.001318954254)
5(0.002405638623 0.008450139961 0.003691641968 1.50009625e-05 -0.001192326814)
5(0.002260271205 0.007443612013 0.00239206773 1.117733286e-05 -0.001037549992)
5(0.00206561838 0.006215891203 0.0008487567586 6.534804569e-06 -0.0008540144985)
5(0.001830526433 0.004638817398 -0.001212208325 1.027873764e-06 -0.0006395864386)
5(0.001530489381 0.002865703244 -0.003491413266 -5.28953843e-06 -0.0004619633491)
5(0.001194127807 0.0008255717489 -0.005917846174 -1.069726318e-05 -0.0001757560178)
5(0.0008338777696 -0.001254401544 -0.008297659978 -1.930461818e-05 -0.0001313283118)
5(0.0004420969287 -0.003324906169 -0.01059761887 -2.304365952e-05 -0.0002576737379)
5(3.956180015e-05 -0.005001474973 -0.01247503153 -1.913403023e-05 -0.0004326916294)
5(-0.0002826005304 -0.006032769962 -0.01383840142 -9.698886807e-06 -0.000724183931)
5(-0.0004977324904 -0.005725943535 -0.01299034435 -3.825329326e-06 -0.0009496216217)
5(-0.0005438826011 -0.004657236119 -0.01019714354 3.172886543e-06 -0.001186609432)
5(-0.0003868705831 -0.002572877103 -0.005205908395 1.04349437e-05 -0.001384098299)
5(5.934169495e-06 -0.0004950814998 0.0003775112432 1.732247644e-05 -0.001524710236)
5(0.0006347698379 0.003409343599 0.003200256929 2.166678103e-05 -0.001605361773)
5(0.001208995961 0.0070772665 0.00512084118 2.413684796e-05 -0.001643025398)
5(0.001606657933 0.009486455981 0.006344747676 2.534512869e-05 -0.001657483529)
5(0.00235831678 0.01040591363 0.006884633156 2.581050396e-05 -0.001662303486)
5(0.00268328073 0.01095111282 0.007089203705 2.596259838e-05 -0.001663694394)
5(0.002774786681 0.01113752339 0.007152075032 2.600500362e-05 -0.001664056336)
5(0.002809152187 0.01119161265 0.007168409288 2.601530445e-05 -0.001664138759)
5(0.002817437402 0.01120275395 0.007171635754 2.601742098e-05 -0.001664155505)
5(0.002818852717 0.01120468056 0.007172153639 2.601777494e-05 -0.001664158232)
5(0.002818995964 0.01120487765 0.007172219001 2.601781811e-05 -0.001664158585)
5(0.002819006122 0.011204895 0.007172223189 2.601782139e-05 -0.00166415861)
5(0.002819006445 0.01120489566 0.007172223215 2.601782183e-05 -0.001664158611)
5(-2.485172083e-13 -1.211801648e-12 -5.958578443e-25 -5.119638695e-10 -1.313235347e-13)
)


60
(
5(4.490134784e-10 -5.206191482e-11 1.476446703e-23 2.579882854e-08 -2.902797395e-11)
5(-0.0003523026204 0.0005847078667 0.001403938995 0.0007040236538 -0.0004793450547)
5(0.0006709588619 0.0005820341307 0.0008018997735 0.0006384641925 0.0008449903704)
5(0.0003663523399 0.0006474455888 0.000640918893 0.0006944477454 0.0006840665872)
5(4.503453692e-05 0.0007112135105 0.0008587053564 0.0007752541122 0.0005799890057)
5(0.0002811738171 0.0006512368879 0.001001501092 0.0004852838667 0.0007167343333)
5(0.001006635214 0.0009692036762 0.0006250581154 0.0008992523024 0.0008974174594)
5(0.0008930580704 0.001155790984 0.001043883235 0.001132601132 0.001068548567)
5(0.0005704216179 0.0008821802245 0.001105741731 0.0009284180685 0.001102534983)
5(0.0002453959907 0.001170119426 0.001380461157 0.001319277332 0.001107489666)
5(0.000262957849 0.001518789661 0.001310766692 0.001541556283 0.001348999774)
5(0.0009781170482 0.00137635097 0.001898120217 0.001776895978 0.001721963772)
5(0.00180109634 0.002005127874 0.002122729306 0.00152923871 0.001984551595)
5(0.001578534703 0.002438492417 0.002323177164 0.002685247479 0.0023718292)
5(0.001979667959 0.002259151617 0.002295475223 0.002702954323 0.003115099627)
5(0.002441221474 0.00330150461 0.003233907081 0.003424638587 0.003836053565)
5(0.002791591359 0.003758394571 0.00433334729 0.004942580082 0.005081724195)
5(0.003220169227 0.005368069939 0.005614533827 0.006185589735 0.006854308878)
5(0.004420194517 0.005750298925 0.007424089868 0.008739346981 0.01030709715)
5(0.00664366852 0.009335634957 0.01082394249 0.01327828054 0.0150018479)
5(0.009466273504 0.01329020647 0.01669709715 0.01872619936 0.02215874219)
5(0.01313109 0.02127792545 0.02363362505 0.03056124744 0.03407600265)
5(0.02146927327 0.03099226585 0.03779576543 0.04830861565 0.05417853121)
5(0.03419816245 0.04988074389 0.05946662885 0.07060812209 0.08572720727)
5(0.05496822969 0.07985951507 0.0896622255 0.1148553696 0.1340429624)
5(0.08746973191 0.1239614881 0.1504185629 0.179064757 0.2035708966)
5(0.1407209424 0.1839096946 0.230358661 0.2750176771 0.3075454691)
5(0.2158074208 0.2854114636 0.3462126874 0.4114459897 0.4525782117)
5(0.3321295327 0.4287353833 0.5153994956 0.5895731933 0.636985288)
5(0.495331059 0.614986994 0.7374446358 0.8248208021 0.8540015364)
5(0.7075419015 0.856217199 0.9935559467 1.067353656 1.098100615)
5(0.9703708803 1.113209909 1.285951211 1.341231096 1.297489834)
5(1.287815953 1.424980502 1.577620947 1.5473161 1.399775076)
5(1.613317245 1.671476676 1.776285253 1.58396755 1.311827783)
5(1.890632012 1.752783965 1.759659265 1.395498162 0.9526006632)
5(2.025751843 1.643611596 1.408849848 0.8719808185 0.2514411603)
5(1.884299095 1.135497382 0.6608061755 -0.1325336576 -0.7837022179)
5(1.345968538 0.1352920294 -0.6161335251 -1.513138074 -2.046604281)
5(0.2929955941 -1.315377395 -2.306911348 -3.043101737 -3.221331313)
5(-1.363520896 -3.225292691 -4.232204803 -4.501755507 -3.911938248)
5(-3.391486927 -5.127793553 -5.835582211 -5.344289593 -3.851416156)
5(-5.448273801 -6.676254998 -6.723034917 -5.333537807 -3.023267051)
5(-7.147299737 -7.315207831 -6.47110531 -4.237486987 -1.653657287)
5(-7.844783125 -6.557189592 -4.798910527 -2.238096767 -0.2494592872)
5(-7.07805644 -4.617228306 -2.299137533 -0.02456701507 0.7158103582)
5(-4.937443192 -1.888097523 0.1798541977 1.540522606 1.084149436)
5(-2.020948663 0.8841330205 2.071583772 1.982778464 0.9502440467)
5(0.768667872 2.668618015 2.776092914 1.654300186 0.6158571702)
5(2.621307268 3.111446306 2.404472103 0.9977513524 0.3137913819)
5(3.09021175 2.573426157 1.398872599 0.4674517542 0.1300461705)
5(2.528222231 1.553736436 0.6640451093 0.1543018114 0.04500320924)
5(1.516676116 0.6809290611 0.2140972227 0.04252063953 0.01303029833)
5(0.6985919095 0.2114617911 0.05223427771 0.009856576428 0.00277979015)
5(0.2336252119 0.04922246916 0.01082723779 0.002002225159 0.0004055246564)
5(0.0642399605 0.00710713319 0.001592070485 0.0003380007553 1.442517158e-05)
5(0.01157184932 0.0008662425026 0.0001801880349 4.373993946e-05 -7.717012764e-06)
5(0.001313617784 5.128673204e-05 1.467328655e-05 3.776371993e-06 -1.571312208e-06)
5(0.0004005323333 2.385723393e-06 5.039154337e-07 2.364345798e-06 2.803786005e-06)
5(8.052141158e-08 -3.442980494e-08 2.419829709e-06 -6.965530895e-07 2.544230112e-09)
5(1.024426075e-07 2.165171881e-07 2.762654263e-08 2.502345178e-07 7.604832542e-08)
)


60
(
5(-2.001769362e-07 -4.123609234e-06 -4.563844746e-06 -7.268185285e-06 -5.294496643e-06)
5(0.00202951397 0.001484725218 0.002677230775 0.002018290158 0.001543991027)
5(0.002090362364 0.001682563221 0.001905439804 0.001768562203 0.001948148764)
5(0.001423319893 0.001829099197 0.001693098975 0.001848777129 0.001314149607)
5(0.001846140108 0.002016317085 0.002066653019 0.00209374291 0.00195874288)
5(0.002127185693 0.002377747908 0.002305763638 0.001816317849 0.001941309993)
5(0.002538677049 0.002251057055 0.002526001727 0.002672273001 0.002582047624)
5(0.001918347379 0.002661368903 0.002903347835 0.002777256427 0.002848542495)
5(0.003336529295 0.003047800047 0.003367602661 0.003113590195 0.002107771718)
5(0.003335870014 0.003481149948 0.002980860329 0.003110441904 0.003370606834)
5(0.003738884643 0.003614108268 0.003748036241 0.003834245579 0.003551524301)
5(0.001588871907 0.002698176165 0.003708872186 0.003562074766 0.003699522617)
5(0.004667474226 0.004093454149 0.004382269583 0.004353568207 0.004060084078)
5(0.004122138832 0.004430568788 0.004414299482 0.004820426381 0.005811423546)
5(0.006513744407 0.004810108843 0.005521540089 0.00556385353 0.00573231269)
5(-0.001591127791 0.004660958821 0.004396567596 0.005706627487 0.006972099217)
5(0.005576274888 0.004614431103 0.006706300153 0.008034892313 0.01082825871)
5(0.00450414007 0.004807057423 0.006536235757 0.01119646196 0.01174138744)
5(0.003504386983 0.007754513927 0.01221067063 0.01382301497 0.01595858487)
5(0.01004580164 0.008044473613 0.01412898395 0.02140935515 0.02248142071)
5(-0.001783350322 0.01494303287 0.02335372935 0.03200906183 0.04178015421)
5(0.01406525352 0.0252972233 0.02948582571 0.04393690949 0.04759440288)
5(0.02113833458 0.03921866509 0.05447444157 0.07771197106 0.08467049699)
5(0.03601984913 0.06498392623 0.08905509667 0.1197880187 0.1341315592)
5(0.04907432142 0.107554551 0.1474346552 0.1936476571 0.2152204942)
5(0.100812919 0.1778425518 0.2326329727 0.2957749135 0.3269307922)
5(0.1705307828 0.2694818341 0.3534054292 0.4659448809 0.5010327933)
5(0.2372547687 0.4440670435 0.5747967071 0.7108048439 0.7641071978)
5(0.4319608882 0.6561899252 0.8465380628 1.031344761 1.118353001)
5(0.6088554855 0.9648177151 1.218967726 1.465615953 1.428839248)
5(0.9283611817 1.400655616 1.713799672 1.974999925 2.042607168)
5(1.308740783 1.870582958 2.27237075 2.528647577 2.42591098)
5(1.786432098 2.405466565 2.857599383 2.982620744 2.903181269)
5(2.258078423 2.982024427 3.38679102 3.385246183 2.899669611)
5(2.84721757 3.388871837 3.581642843 3.341061403 2.768566839)
5(3.188353777 3.491859692 3.438915104 2.706697144 1.693577365)
5(3.049191243 3.103224177 2.512865582 1.315188621 0.09571231486)
5(2.977820151 1.993054929 0.7357693926 -0.9274666082 -2.275694016)
5(1.601444122 -0.03827715572 -1.846318031 -3.875537302 -4.856605436)
5(-0.1801074115 -2.857910585 -5.292606856 -7.153581727 -7.536593265)
5(-2.825177226 -6.203407321 -8.804446979 -9.95789189 -9.046928137)
5(-5.942743747 -9.562202825 -11.70770767 -11.44395845 -9.022676172)
5(-9.167607855 -11.9640216 -12.8354207 -11.00416407 -7.366720697)
5(-10.8491395 -12.72038423 -11.89598372 -8.345251205 -4.080762292)
5(-11.51785976 -11.23203938 -8.504941693 -4.293691665 -0.8466210436)
5(-9.961833059 -7.419423521 -3.945269615 -0.2052150912 1.984378195)
5(-6.266739849 -2.922322611 0.9327115966 3.091109304 3.052212764)
5(-2.135448202 1.711154902 4.018598909 4.306894862 2.92267304)
5(1.683301412 4.399414662 5.166553231 3.589115293 1.966467619)
5(4.070858064 4.983451834 4.20937362 2.502038225 1.015270401)
5(4.274578518 3.979032541 2.584172408 1.182246698 0.4156772569)
5(3.323738203 2.358348111 1.218901728 0.4698645808 0.1232683298)
5(1.791082397 0.9939535532 0.4025936668 0.1317731344 0.03243155423)
5(0.6920679735 0.2981689922 0.100436249 0.02999823578 0.007023521657)
5(0.1591131481 0.05902559421 0.01610759854 0.004716552145 0.001175395475)
5(0.02402973826 0.007368162745 0.001909093854 0.000608570675 0.0001668005252)
5(0.001776773603 0.0005684385043 0.0001312052515 5.166996775e-05 1.51721796e-05)
5(6.850858597e-05 -0.0001107379034 5.51213496e-06 -9.828525845e-05 6.675732079e-07)
5(1.77675237e-05 3.795494749e-05 6.221429419e-06 2.327994006e-05 3.513783708e-06)
5(9.359326052e-10 -1.830318625e-06 -5.356085201e-06 -1.059844909e-07 -8.457559586e-11)
)


60
(
5(-3.046165681e-05 -1.148578265e-07 -2.760716869e-05 -1.868729916e-05 -1.16766827e-05)
5(0.004711673124 0.003117111442 0.00494914941 0.0044200129 0.004861534291)
5(0.003438232479 0.003699029987 0.004199670323 0.003987698376 0.00383505313)
5(0.003845383776 0.004251678634 0.004111732453 0.004250970751 0.003641101826)
5(0.004191144669 0.004679551689 0.004479741999 0.004656420226 0.004505427555)
5(0.004662632556 0.004953216891 0.005351764611 0.005332574582 0.004835711627)
5(0.005181501834 0.005697534094 0.006229187895 0.005750805458 0.005413324821)
5(0.006220757578 0.006403300636 0.006585795154 0.006101470419 0.006596340727)
5(0.00689268437 0.006605170022 0.007313438294 0.006841416423 0.005676587345)
5(0.006299924579 0.007453102598 0.007091673919 0.007625678275 0.007264133689)
5(0.007920630446 0.007240154203 0.008337936867 0.007744979505 0.006186371647)
5(0.007841359952 0.007836884688 0.008327713243 0.006963920356 0.008717468609)
5(0.003995909472 0.007579478302 0.007393280457 0.007880620367 0.01001142192)
5(0.008131455662 0.007377925228 0.007380310283 0.009483465697 0.006364767265)
5(0.008139311603 0.004479046095 0.006915112291 0.00926041791 0.01352894998)
5(0.009024761237 0.008078689095 0.009633426496 0.009179895355 0.01216447914)
5(-0.006083439827 0.007375325807 0.01097641317 0.01474835582 0.01578325636)
5(0.01515333694 0.0009052326333 0.005373152059 0.01341285689 0.02451589831)
5(-0.01559907437 0.006516724153 0.01358174763 0.01795924436 0.01911119689)
5(0.006734801173 0.007792115986 0.00771367868 0.01912358571 0.03418279548)
5(0.01643899061 -0.002175591611 0.02080628948 0.0400919162 0.06245705783)
5(-0.01503098529 0.02085893858 0.03531236756 0.04674520623 0.0514924889)
5(-0.03309089664 0.03136313565 0.058120392 0.08591045872 0.1186243113)
5(0.0462644357 0.05269013582 0.07150750166 0.144330249 0.1530101406)
5(0.03173361777 0.08386877845 0.1576469816 0.2284863936 0.3009292231)
5(0.07820372233 0.1771200328 0.2672523205 0.3716781998 0.452154788)
5(0.1465122745 0.30135013 0.4279807966 0.589559991 0.6713717926)
5(0.2607544825 0.4902175958 0.6848749735 0.9184146436 1.06722699)
5(0.4379297547 0.7667898778 1.061645696 1.347799563 1.513212908)
5(0.7121596865 1.159855816 1.57460685 1.975012627 2.225768703)
5(1.093830589 1.70749501 2.239446181 2.710311671 2.895047625)
5(1.569760468 2.358570477 2.995160261 3.56150646 3.772142734)
5(2.21891266 3.170085797 3.922306182 4.380983158 4.388215297)
5(2.917243449 4.005722124 4.785607545 5.141306294 5.150116182)
5(3.639290239 4.699408676 5.391597821 5.429513506 4.594239084)
5(4.415032115 5.170018242 5.580983476 5.013689743 4.152725772)
5(4.861509252 5.163292387 4.76985727 3.645054159 1.953680448)
5(4.578977968 4.165943965 3.049875717 0.9641861713 -1.240789043)
5(3.637171912 2.215310931 -0.1034547693 -2.954640301 -5.401255703)
5(1.856175536 -0.9988805758 -4.459361375 -7.729534068 -9.942128692)
5(-1.153765463 -5.266050868 -9.527235777 -12.7367142 -13.22129458)
5(-4.76191623 -9.939951411 -14.42867796 -16.4596167 -16.073215)
5(-9.030636461 -14.17842773 -17.76585559 -18.00063991 -14.57399229)
5(-12.40653561 -16.91773727 -18.52338255 -16.31195512 -11.39165905)
5(-14.66533651 -17.03507163 -16.09734059 -11.69451722 -6.306385535)
5(-14.58231459 -13.94837599 -10.71509055 -5.188640724 -0.3069799553)
5(-11.69600762 -8.955814357 -3.474434704 0.6731397183 3.648823214)
5(-7.193134504 -2.603048882 2.170944221 5.278119952 5.706242607)
5(-2.046687996 2.910761521 5.992253643 6.594631712 4.977102412)
5(2.512850045 5.810890331 7.425606646 5.934678984 3.464177033)
5(4.728231498 6.103213682 5.467294599 3.516975904 1.804026971)
5(4.858264051 4.834382233 3.143757001 1.819343105 0.7398200743)
5(3.721325989 2.543670144 1.370807136 0.6394709187 0.216135305)
5(1.993602245 1.006916272 0.4320842139 0.1725446933 0.05215681647)
5(0.6815373769 0.268829511 0.08921721067 0.03371196379 0.009668748225)
5(0.1727538222 0.04547136315 0.01112558283 0.004340695243 0.001269632687)
5(0.02536914834 0.004193163966 0.0009030409092 0.0003598940884 0.0001194069272)
5(0.001994961062 0.0008138267496 2.434124195e-05 0.0006672304351 5.097058652e-06)
5(2.4766123e-05 -0.0001588505536 -9.994341615e-06 -0.0001789541039 -3.392855224e-05)
5(1.163449308e-05 -1.138169193e-06 5.310707369e-05 1.326965164e-05 1.800261445e-10)
)


60
(
5(-4.78314007e-05 -0.0001287390271 2.533911691e-05 -2.098480856e-05 -2.235759259e-05)
5(0.007856355659 0.005868435493 0.008617468371 0.008505153052 0.01122022408)
5(0.006235706992 0.007284424457 0.008301934882 0.008112644868 0.007381670253)
5(0.006778313456 0.008216978962 0.008513985046 0.008378527474 0.007912466006)
5(0.008467169404 0.009558700885 0.009056269409 0.009493549577 0.008954121571)
5(0.009789495691 0.00994952371 0.01099116421 0.0106910997 0.01045365538)
5(0.01043242981 0.01143265764 0.01240286953 0.01187494355 0.01014680919)
5(0.01129995254 0.01137543113 0.01238455782 0.01266185744 0.01320317028)
5(0.01302115667 0.01367124435 0.01443675438 0.01294418372 0.01054949186)
5(0.01288989409 0.01401245271 0.01420593866 0.01414676193 0.01541624992)
5(0.01666560013 0.01479351137 0.01529037663 0.01368850497 0.01102811001)
5(0.009982588373 0.01465762847 0.01376770048 0.01523239117 0.01693977314)
5(0.02148453701 0.01136824711 0.01620787788 0.013428332 0.01217705822)
5(-0.0009534689808 0.0128088225 0.01217215804 0.01568660703 0.02168646316)
5(0.01179455295 0.007745657809 0.01448777975 0.01607505806 0.01835301227)
5(0.01850962176 0.01143925384 0.007319744541 0.01705663754 0.02177270647)
5(-0.004381968955 0.005677428976 0.0105231422 0.01869100958 0.02092901177)
5(0.001463313467 -0.0003428622688 0.01266884021 0.00989785461 0.0325725299)
5(-0.00477279117 0.003066576425 0.008033532203 0.02396234234 0.03595762752)
5(-0.01553533556 -0.00895377125 0.005396690264 0.02468529347 0.03764075504)
5(-0.0235823011 -0.01057863753 0.01269171768 0.02670845355 0.07218609289)
5(-0.01324633763 -0.0030432383 0.0118071528 0.05001176145 0.04661811615)
5(-0.02642265007 0.002804928482 0.02630408424 0.0712551114 0.1504286114)
5(-0.03275574128 0.01889352032 0.06287818175 0.1230640785 0.1373776939)
5(-0.03180646829 0.05592218525 0.1322405343 0.2189684204 0.3409198627)
5(0.01701754137 0.0660488158 0.2277679144 0.379681033 0.4801567014)
5(0.1056208645 0.2659348953 0.3980551259 0.6176260932 0.7826737024)
5(0.1976975265 0.4489133198 0.693474868 0.9996690779 1.263706161)
5(0.3619499504 0.7446771324 1.134249043 1.535313816 1.855462845)
5(0.6684029985 1.185476551 1.731672941 2.258424552 2.683799276)
5(1.073685501 1.787473528 2.499280596 3.250035526 3.788030125)
5(1.658399044 2.637221132 3.550933911 4.332565643 4.656605886)
5(2.437482439 3.663358194 4.724480862 5.560139384 6.063103915)
5(3.341224373 4.655114861 5.879783239 6.648845002 6.89950641)
5(4.355899107 5.798500191 7.001333243 7.447094689 7.292143233)
5(5.215879906 6.678284289 7.657643177 7.545272227 6.832398146)
5(6.015288766 7.063126434 7.356572826 6.542639212 4.955634704)
5(6.528874054 6.684771609 5.913049472 3.948675727 1.096816075)
5(5.940103645 5.047318711 2.844207772 -0.3496490453 -3.883099449)
5(4.468647758 1.98506257 -1.811187545 -6.169730849 -10.24776914)
5(1.617163538 -2.514173782 -7.934099144 -12.96567271 -15.84752515)
5(-2.176866752 -8.015669886 -14.61872554 -19.23541686 -21.49575013)
5(-6.981979977 -13.91538656 -20.22536723 -23.43698172 -22.56332579)
5(-11.82859431 -18.65077019 -23.94574735 -24.3587344 -20.83554085)
5(-15.60038786 -21.10716105 -22.87893841 -20.81379597 -14.69808874)
5(-16.94513629 -20.33795113 -19.16859542 -13.49054399 -6.946622587)
5(-16.67713488 -15.87301128 -11.53716139 -5.527319315 0.7407780086)
5(-13.62926412 -9.470986574 -2.692828187 2.749605636 6.195577429)
5(-7.936939576 -2.125937245 4.376776625 7.95672673 8.312762529)
5(-2.223766144 3.583208151 8.140062194 8.748777239 7.415763934)
5(2.569164272 6.538419877 8.340310658 7.269754635 4.838121364)
5(5.176656233 7.384166463 6.186764878 4.324568247 2.307406052)
5(5.245999691 5.001635692 3.316224089 2.065056555 0.9965717519)
5(4.032427526 2.630028962 1.336383186 0.6816969639 0.2474904548)
5(2.354646805 1.073206492 0.361024131 0.1629383415 0.05720317681)
5(0.8314233103 0.2718181112 0.06432884805 0.02405121338 0.008441669592)
5(0.2575639235 0.04675276737 0.006564967298 0.002225011869 0.000633076388)
5(0.0479393425 0.005704994161 0.000368699137 0.0005196269274 3.165477176e-05)
5(0.006651477607 9.713492352e-05 -5.385057824e-05 -5.028502035e-05 -1.276844912e-05)
5(0.003517869493 0.0005070825484 7.273634699e-05 7.602997229e-06 2.162090217e-09)
)


60
(
5(0.004231546909 0.000431537852 -1.873835454e-05 -9.102964016e-05 -6.143182047e-05)
5(0.01290001571 0.009729627119 0.01421691521 0.01494057789 0.02080799454)
5(0.01213559789 0.01297271921 0.0145510651 0.01489958726 0.01556775367)
5(0.01224815092 0.01429567814 0.01450079642 0.01550842468 0.01331634463)
5(0.01368890824 0.01640634567 0.01720945789 0.01777593227 0.01521170818)
5(0.01739207695 0.0184059137 0.01998133982 0.01882816899 0.02088351078)
5(0.01774109687 0.02014180119 0.02145723707 0.02132127921 0.01586344334)
5(0.02112791835 0.02209545031 0.02358169808 0.02290835931 0.02424435188)
5(0.02061986839 0.02225845756 0.0250383473 0.02326708856 0.02049826338)
5(0.02738058688 0.02549376143 0.0258913706 0.02490352455 0.0254177705)
5(0.01654794265 0.02375869441 0.02437107673 0.02423603429 0.02051280214)
5(0.03186694643 0.02533748361 0.02586952567 0.02517640117 0.02876576684)
5(0.01381318275 0.01993855589 0.02327700596 0.02405942754 0.0211935268)
5(0.03159352873 0.02113517434 0.02378166265 0.02488884476 0.0378439815)
5(0.006932267605 0.01590333863 0.01915924259 0.02269344419 0.02191159738)
5(0.01006880918 0.01071566154 0.01635401645 0.02800359759 0.04953764629)
5(0.01347250349 0.01147056793 0.01585925481 0.02454502936 0.02174464532)
5(-0.02219669099 -0.006368164045 0.008183656699 0.02763213804 0.0632057226)
5(0.009104964256 -0.009858417015 0.008229827602 0.01801671866 0.02667498915)
5(-0.03414534912 -0.01584219441 -0.005699757018 0.01763980245 0.0520528198)
5(-0.08061631734 -0.03973156535 -0.01644366947 0.02215596 0.07928739664)
5(-0.009059605803 -0.04059951857 -0.002982500876 0.02052230752 0.04366992752)
5(-0.08887349945 -0.04699457094 -0.02162351944 0.0452074997 0.1130411885)
5(-0.1269827303 -0.05895109254 -0.006155293014 0.07994386523 0.1810415312)
5(-0.06350658618 -0.03301450103 0.05994321748 0.1474448394 0.2315263988)
5(-0.07426532169 0.03417737715 0.1324968936 0.306565353 0.4904210456)
5(-0.07875833883 0.1111762082 0.2957201324 0.5635461462 0.8129627602)
5(0.03525248733 0.2835058506 0.5858115334 0.9442936891 1.261412234)
5(0.2732769511 0.6044659999 1.061570096 1.535292417 1.990765328)
5(0.5310829082 1.100936721 1.695124818 2.396188099 3.077104231)
5(0.9428972091 1.734747581 2.583649298 3.446166761 4.152516993)
5(1.57107966 2.596714526 3.781646954 4.870307612 5.717807954)
5(2.349515073 3.764901757 5.114037295 6.413201927 7.69599933)
5(3.60436027 5.141653236 6.739466514 8.000633442 8.07842702)
5(4.626869165 6.606811716 8.24903032 9.382023709 9.82364484)
5(5.977304248 7.937192476 9.48687331 10.08617893 9.75227166)
5(7.237478135 8.839273357 9.922098503 9.583620574 8.333501427)
5(8.011602983 8.968001071 8.953962293 7.636202576 4.955446519)
5(8.195502752 8.116627108 6.561497123 3.492000384 -0.7958308208)
5(7.122003916 5.622510577 2.097817631 -2.726710683 -8.885493665)
5(4.99742907 1.413530962 -4.331579097 -10.57523778 -15.14340815)
5(1.363814519 -4.357944486 -12.00089297 -18.92422228 -24.95775963)
5(-3.406762985 -11.13713142 -20.05742471 -26.13771415 -28.66321766)
5(-8.671619556 -17.34799156 -26.22365732 -30.31237305 -30.10146643)
5(-14.47675657 -22.43124632 -28.54077267 -29.78784181 -25.09587661)
5(-18.75774478 -24.5911576 -26.89305335 -23.99095325 -17.21508388)
5(-17.93499454 -22.93310846 -20.87532994 -14.36357141 -6.446874856)
5(-18.83694572 -17.50239763 -11.16056537 -4.162873041 3.129272833)
5(-15.12619363 -9.859292179 -1.948236055 4.690274622 9.184260166)
5(-8.383411088 -2.356282646 5.926617642 10.40462335 11.16540122)
5(-3.289502495 4.433209542 9.517739059 10.5890334 9.160496366)
5(1.995792058 6.543184203 9.350523292 8.007194892 5.495910097)
5(5.682034959 7.767342093 6.233361722 4.758253206 2.719761988)
5(5.409489094 5.502421434 3.421277656 1.890918783 0.9122031413)
5(5.115394873 3.061976887 1.277341784 0.5978252152 0.2433196788)
5(2.679171915 1.285809518 0.3419042277 0.1195576135 0.03898653857)
5(1.332109283 0.3588154804 0.05130516405 0.0141814371 0.004086256409)
5(0.4782978733 0.07701341168 0.005950810373 0.001013971894 0.0001764613151)
5(0.1621281853 0.006632392627 0.0003366721755 5.897772693e-05 1.501373724e-06)
5(0.1294168144 0.02620707694 -0.000949743346 -2.487281258e-06 -4.1847054e-08)
)


60
(
5(0.1584591738 0.02947650442 -0.001124924459 -9.63086446e-05 -4.929610483e-05)
5(0.01849128354 0.01640623525 0.02335001344 0.02405886244 0.0330147901)
5(0.01917914111 0.02060133509 0.02391039818 0.02508551806 0.02367159331)
5(0.02037779162 0.02332990604 0.02523716049 0.02660501088 0.02693574305)
5(0.02068988996 0.02711141044 0.02641593235 0.02859388711 0.02470253968)
5(0.02906746186 0.02950980348 0.03303359828 0.03240054479 0.03199114462)
5(0.03122174549 0.03315746337 0.03619601994 0.03582370552 0.03177102284)
5(0.02787623518 0.0370990928 0.03898120434 0.03800208814 0.03569003047)
5(0.04304126092 0.03605219529 0.04075297649 0.03893512875 0.04117778463)
5(0.02880464303 0.04015934564 0.04280494231 0.03959548847 0.03299289958)
5(0.04381555816 0.03623405055 0.03922305508 0.04045145087 0.04047889852)
5(0.03729565458 0.04033927823 0.04183439565 0.04082224829 0.03928851479)
5(0.03921574272 0.0356107631 0.03538940377 0.03864536764 0.04453281698)
5(0.02755351235 0.03543236605 0.03845005071 0.0400077025 0.05080859796)
5(0.02074632112 0.01925292498 0.02973995257 0.03615700363 0.05268070065)
5(0.02056421651 0.02098729539 0.03088193576 0.0408224794 0.05606219844)
5(-0.01443102908 0.009388226388 0.01759643994 0.03741402215 0.06184920194)
5(0.0373390681 -0.0004511874825 0.0138021784 0.03909839226 0.03987633282)
5(-0.08607090587 -0.02320084413 -0.003479704341 0.02163739407 0.1025132609)
5(-0.006957471006 -0.04694093384 -0.01789927075 0.02126725101 -0.003155345985)
5(-0.06869439456 -0.04386720384 -0.02157829609 -0.00158341759 0.1260588531)
5(-0.1826476515 -0.09462204677 -0.06401384176 -0.009796231286 0.0001206590079)
5(-0.01559722014 -0.1196580022 -0.07724579848 -0.007443180852 0.09525863059)
5(-0.2436815384 -0.1315181487 -0.08336087777 -0.006790086058 0.09977850101)
5(-0.2681008542 -0.1758071647 -0.08996714639 0.05331753964 0.1364919063)
5(-0.08949316703 -0.1352801072 -0.005551038372 0.1561526451 0.4867036789)
5(-0.2548064208 -0.06014196557 0.1213909335 0.3669472042 0.5946148505)
5(-0.2808438131 0.04713386948 0.349488469 0.7786529091 1.141986826)
5(0.1398747338 0.353159469 0.8160568421 1.367062339 2.060736403)
5(0.2764867151 0.8499165336 1.486283467 2.19988069 3.027472732)
5(0.5686455886 1.474684071 2.403376666 3.438889412 4.505475108)
5(1.342606499 2.433465388 3.718926652 5.025751977 5.861667734)
5(2.336339694 3.668632064 5.374521645 6.833247852 8.699905426)
5(3.474323923 5.199810918 7.220186543 8.859047179 10.14781111)
5(4.955793337 7.005053699 9.136109013 10.80608036 11.58843724)
5(6.472460169 8.749703806 10.91242415 12.32360024 13.03282665)
5(7.849827108 10.31983137 12.18996841 12.64400013 11.68522813)
5(9.464505019 11.2421582 12.20174582 11.56821014 9.279463656)
5(10.05136819 11.05871134 10.57798587 8.189572202 4.209891311)
5(9.985779316 9.445887391 6.793011075 2.262542865 -4.127862635)
5(8.381341877 5.882226138 0.6612893085 -5.905327594 -13.74322685)
5(5.418963569 0.5748744456 -7.479594487 -15.65301354 -23.41809093)