/*--------------------------------*- C++ -*----------------------------------*\
| =========                 |                                                 |
| \\      /  F ield         | OpenFOAM: The Open Source CFD Toolbox           |
|  \\    /   O peration     | Version:  2.3.1                                 |
|   \\  /    A nd           | Web:      www.OpenFOAM.org                      |
|    \\/     M anipulation  |                                                 |
\*---------------------------------------------------------------------------*/
FoamFile
{
    version     2.0;
    format      ascii;
    class       dictionary;
    location    "constant";
    object      la_r6;
}
// * * * * * * * * * * * * * * * * * * * * * * * * * * * * * * * * * * * * * //

la_r6_table
60
(

60
(
5(1.137519219 0.5139994263 2.953087998 2.377460425 5.091469869)
5(0.3437173586 0.08885723216 0.9953568679 0.8380065186 1.289141488)
5(-8.212161565 0.1825164616 0.3543752183 0.2658518607 0.001385365912)
5(-23.69491561 0.2115128357 0.3667737977 0.08697433837 0.6677795327)
5(-17.54940537 0.1725559545 0.3233888262 0.2529710838 0.3237941754)
5(-6.799063678 0.1383068744 0.1033397785 0.2405971656 0.1812151385)
5(0.1496186091 0.126044245 0.1300003932 0.1543931059 0.4216612187)
5(0.07191127676 0.1404484031 0.2550067881 0.2131711565 0.1134728543)
5(-2.825595503 0.1701581301 0.1784472154 0.2607854844 0.2587998225)
5(-1.803814345 0.05817936351 0.2912833188 0.2502746181 0.3215376408)
5(-0.0429498107 0.0332828427 0.348442027 0.2820106596 0.3696168699)
5(-0.5419831844 0.2722983506 0.353470911 0.3624811996 0.3225676682)
5(0.1917646963 0.3217309804 0.4012950406 0.4645071798 0.4471417974)
5(0.2653570302 0.3866389931 0.4884315344 0.4852927662 0.4954970984)
5(0.2690724611 0.4303786713 0.5478604162 0.6330375218 0.6135153212)
5(0.3148032237 0.5075248286 0.6734421698 0.7578272807 0.7601638257)
5(0.4215222067 0.6435667935 0.838223856 0.947156206 0.9994046053)
5(0.4923516415 0.7737053828 0.9946941901 1.19096157 1.239485608)
5(0.5512710462 0.9009620752 1.185731475 1.398595766 1.591036356)
5(0.685632547 1.095694886 1.461018112 1.785793127 1.845078094)
5(0.7868212172 1.216388944 1.615228446 2.007246921 2.007021006)
5(0.9199916699 1.378642196 1.940960722 1.950751609 2.06316423)
5(1.111242868 1.597996068 2.16267625 2.4324732 2.520176121)
5(1.232083624 1.887676527 2.389902331 2.66752743 2.705063167)
5(1.440451411 2.220212978 2.693128732 3.029181331 3.033285122)
5(1.597226357 2.638438604 3.089169166 3.413538846 3.137961547)
5(1.754875752 2.701384957 3.141388797 3.658130363 3.269914406)
5(1.883127893 2.566339618 3.425360005 3.827036715 3.346745716)
5(2.133866006 2.783337518 3.478633083 3.833376284 3.472973023)
5(2.300969838 3.030336418 3.589850984 3.702235165 3.394855976)
5(2.527312294 3.246596401 3.837825447 3.991666394 3.349225552)
5(2.684213171 3.321335852 3.7431742 3.732666687 2.786512679)
5(2.792542731 3.479174424 3.845787208 3.727177316 3.17399621)
5(2.959255562 3.6144246 3.963398397 3.579737823 2.627507522)
5(3.081868363 3.540702406 3.809282495 3.48932008 -0.0267188268)
5(3.119731338 3.647611839 4.141901091 3.403678758 -1.56982774)
5(3.050985324 3.251941156 3.466877801 3.140002399 2.159988661)
5(2.829313204 3.149196868 3.290152466 2.84041154 0.04355740793)
5(2.545567635 2.885422723 2.846923828 2.634977261 -0.7120994298)
5(2.263310419 2.63191571 3.487483928 2.451489481 -2.309972707)
5(1.851184608 2.210709279 3.885784295 -3.936210656 -5.238617124)
5(1.564861153 1.875316614 3.231329372 -54.96247001 0.009971373239)
5(1.33911162 2.337702855 2.528857954 0.00771439927 0.01059955421)
5(1.2105528 3.282941128 1.169124414 0.0093358471 -4.988544172)
5(1.351854598 4.244334975 -4.608541303 0.009565703579 -0.5159346928)
5(1.860644681 3.13286864 0.7815362858 0.004994177415 0.01172325083)
5(2.698643673 -3.611148955 -45.91727004 -0.4308922053 0.01294619144)
5(-4.248262977 1.058254031 -6.812202391 -0.005513028669 0.00955218405)
5(2.258559758 1.05999011 -0.3863116219 -0.008665812516 -0.006168758018)
5(1.423181134 -2.280598284 -0.01439608594 -0.0007719298086 -0.008278507126)
5(-11.06924482 -0.004544987335 0.01171824402 -0.004833953447 -0.04876805756)
5(-41.5356022 0.0008094849772 0.001077330567 0.007219052445 -0.01642321342)
5(-7.805682969 -0.06866987926 0.01339512962 0.01853358515 -0.005326109114)
5(0.006636117455 -0.02603227894 -0.02227077714 -0.02365104053 -0.05641887832)
5(-0.000717736059 -0.04676954754 0.003784985949 0.01273280176 -0.0033374229)
5(-14.22725823 -0.006518503363 0.01811557838 -0.02516244287 0.01950267211)
5(-40.49896538 0.001319825109 0.01517716467 0.0106528532 0.03294387379)
5(-35.95571437 -19.89696026 -0.009968851749 -0.04345308967 -0.2339734972)
5(-10.81447612 -21.67501528 -14.35987108 -0.07875010246 -0.174856612)
5(-0.01096721902 -0.002819837419 0.007915003298 0.02999524094 0.0598863113)
)


60
(
5(2.529088016 2.42515321 6.781393462 7.030289732 11.46791885)
5(1.66514069 2.030373358 3.935831956 4.624258072 6.49948583)
5(1.242313635 1.871604146 2.779959618 3.48800909 4.098774035)
5(1.09824859 1.788778266 2.441136137 2.950884911 3.42897423)
5(1.135193308 1.773436955 2.407142489 2.809071145 3.109434207)
5(1.274900131 1.814110955 2.409685035 2.740125008 2.959659905)
5(1.386900791 1.890838202 2.461150744 2.738593434 2.997626754)
5(1.459152247 2.013387267 2.573091659 2.878540249 2.99243929)
5(1.573971713 2.202509447 2.725436363 3.141497823 3.281930329)
5(1.759664158 2.49783549 3.081722937 3.634176986 3.749588107)
5(1.992062486 2.908753952 3.601311578 4.371003703 4.628381122)
5(2.36419199 3.455620016 4.334430801 5.361429161 5.837994371)
5(2.825063896 4.179064975 5.296495657 6.642448142 7.291549132)
5(3.404322798 5.08555967 6.508979281 8.226882527 9.129939124)
5(4.110966477 6.197217249 7.983079297 10.14430015 11.33172705)
5(5.016962964 7.561534408 9.797530135 12.38910726 13.88770801)
5(6.073525688 9.157333759 11.91871681 14.98993319 16.81426042)
5(7.352447152 11.01209936 14.3297595 17.87064314 20.04272123)
5(8.837756683 13.07177377 17.01001763 20.99162132 23.46306344)
5(10.51934735 15.36408993 19.89642952 24.3317135 27.09258408)
5(12.36415397 17.79124669 22.93209282 27.66481208 30.56919557)
5(14.34827056 20.36020453 26.06214217 30.97555656 33.92073112)
5(16.47940886 22.98740198 29.18127859 34.26763076 37.24532095)
5(18.7582947 25.68255509 32.32621011 37.24330667 40.03562376)
5(21.02985438 28.23715707 35.2448626 40.05243188 42.5345975)
5(23.41660661 30.74613983 38.15807131 42.59095618 44.58386)
5(25.78262548 33.05966407 40.64683854 44.76759622 46.10382019)
5(28.06128482 35.44212552 42.89668533 46.48043694 46.83890212)
5(30.36864497 37.67421258 44.91989499 47.73243124 47.76051718)
5(32.69513341 39.58180394 46.62534713 48.70489534 47.60336857)
5(34.93601224 41.32235314 48.19545381 49.32839129 47.58381555)
5(37.08054484 42.92292369 49.11260387 49.57500916 46.795134)
5(39.06093019 44.1053277 50.00559866 49.39922046 45.68432939)
5(40.91432507 44.83299219 50.05623531 48.88984133 43.94292463)
5(42.1689008 45.41075856 50.01088891 47.67387916 42.22043825)
5(43.71904 44.98983266 48.75464872 45.93286297 39.09182047)
5(43.46672443 44.04298105 47.49835581 43.14445687 35.84842678)
5(43.73988203 42.80044615 45.90470762 40.61267328 33.02352515)
5(42.87442799 39.00551509 43.13452602 38.18617107 29.41356517)
5(39.89727926 36.56813526 39.37512499 34.81753459 25.92078127)
5(36.36564955 31.02850368 33.5101009 32.2919335 21.47947953)
5(29.61598939 29.49559194 31.61852362 31.78394091 18.79550729)
5(27.0461076 26.70081879 29.61270611 32.44940775 15.51367347)
5(22.60673407 19.49349541 27.919289 27.76473429 14.04097342)
5(18.14363471 19.39077498 27.48485715 22.15813764 12.97049278)
5(11.82453731 17.85348594 30.09493881 17.38363469 13.50621679)
5(6.045872033 20.84075599 33.36441932 14.71616135 12.8155688)
5(4.693089018 24.87520198 30.03568472 13.49502096 10.24226835)
5(11.86666955 30.53075291 24.51335131 12.01707745 10.53801913)
5(8.935124921 36.11311078 20.3384463 12.32980441 9.241800475)
5(15.69140483 26.81619968 17.46988752 10.99447365 6.140263122)
5(16.79666474 19.01355536 13.58763678 10.801384 8.056113764)
5(24.77353495 17.45522052 13.85714672 9.460158243 0.1405340726)
5(23.51986725 12.28441721 13.95914322 9.59232077 7.016382331)
5(15.04688496 16.45541761 13.14187414 9.584743985 6.474167214)
5(13.86108983 14.38123239 11.46129174 8.839972537 6.924139481)
5(7.627636468 11.35067936 10.56201595 7.432341356 3.739351385)
5(4.852424724 6.553413121 6.216389776 3.168165292 6.246450067)
5(-4.003209173 -1.896541324 -0.1125518414 2.952282072 -2.04406665)
5(-4.049214706 -3.637749833 -16.11592547 -9.520677991 -7.477818436)
)


60
(
5(4.122187102 4.718311024 10.97066421 12.42924205 17.61532486)
5(3.165731063 4.338783361 7.395302713 9.114247917 11.95887312)
5(2.680646852 3.965475149 5.83442758 7.330537234 8.709350539)
5(2.489068512 3.710229987 5.151970305 6.313893679 6.99642503)
5(2.499155292 3.605964444 4.924538173 5.809501454 6.365449593)
5(2.607456689 3.625555847 4.870373775 5.616840562 6.092454709)
5(2.73280217 3.734488778 4.883645695 5.665031407 6.142842753)
5(2.8925479 3.984397099 5.08593604 6.013783586 6.456700062)
5(3.159451392 4.406356965 5.561577266 6.734425364 7.158132797)
5(3.547775209 5.054454176 6.389517172 7.896065343 8.489436822)
5(4.102398327 5.97110949 7.633060894 9.544824614 10.36803295)
5(4.84531112 7.185438238 9.285569443 11.69519707 12.8613388)
5(5.859155031 8.75661548 11.39635362 14.40256482 16.00516534)
5(7.122696402 10.71098033 13.9764448 17.69292402 19.82230597)
5(8.68287857 13.07641693 17.10963028 21.58657322 24.28238149)
5(10.55028691 15.89676134 20.77988851 26.11510616 29.42675843)
5(12.85465316 19.14773457 25.04258652 31.23988871 35.20266182)
5(15.50509478 22.86540785 29.77796543 36.85008218 41.37070931)
5(18.52125978 26.98636139 35.01483914 42.84203111 47.91250894)
5(21.88499593 31.45258876 40.5449789 49.09742345 54.56186469)
5(25.50202975 36.18501659 46.33670542 55.39647236 61.18196793)
5(29.51432374 41.10289406 52.17329596 61.54188003 67.3944846)
5(33.60287405 46.09323887 57.9876189 67.42708607 73.0773733)
5(37.80887164 50.9914027 63.53907297 72.73842591 78.04372581)
5(41.98827755 55.64970215 68.70724221 77.44513682 82.2498152)
5(46.22503286 60.05012011 73.37926093 81.61596497 85.26526459)
5(50.24894654 64.00172001 77.36840739 84.69425738 87.76780497)
5(53.81985028 67.59576685 80.59447498 87.04531967 88.79283796)
5(57.53399786 70.5010148 83.01726516 88.25118118 89.36576111)
5(60.51511018 72.76011321 84.91910728 88.8963692 88.80794224)
5(63.40017377 74.58048308 85.84254922 88.52952066 87.49998714)
5(65.57591751 75.61569913 85.73628734 87.49143858 85.52492945)
5(67.3159919 75.61706672 85.04429958 85.93247992 82.37089086)
5(68.50304432 75.1279366 83.68281468 83.07672772 78.83538741)
5(68.52217336 73.4388756 81.0062005 79.38318638 74.19659354)
5(65.87582419 70.76284547 77.77398056 75.10352021 70.07317455)
5(64.58365382 66.39669779 73.36756901 70.07628745 63.59385088)
5(61.70679913 61.12103915 67.74114986 64.43886146 58.1140984)
5(57.51248177 55.38133592 60.53179289 58.10445608 50.90832887)
5(50.66171197 47.31890937 52.94429907 51.33708055 43.38959295)
5(40.47101493 37.99408248 46.16519 44.79794392 35.98766071)
5(34.14163641 29.98997261 37.68749279 38.76220697 29.91223482)
5(23.22448767 21.11293834 30.18082651 32.29545873 23.86575646)
5(14.25424465 13.16188738 24.3156347 26.15641407 17.55935253)
5(4.255078265 3.675800452 18.62721098 21.18135817 16.86770888)
5(-2.997616858 -0.2933125843 16.32682662 16.70248825 14.74170993)
5(-10.05452577 -2.744701517 14.21143652 15.81245963 12.58259043)
5(-14.79126854 -3.143936485 11.4055721 15.30495116 12.82129699)
5(-18.78234749 -5.1532091 9.971013197 13.93191851 12.57861549)
5(-17.00047034 -1.514824111 11.13398308 12.85250543 11.79854386)
5(-14.3062652 -1.018297479 11.92537553 12.08468764 12.77630884)
5(-9.589382903 0.1902689146 12.95236425 11.78850369 10.93366688)
5(-4.59856772 4.398542406 13.68957003 10.33245198 12.12761898)
5(-4.933861859 9.147217624 14.06499138 11.15333732 2.346392559)
5(4.83263688 9.365532965 13.65915626 11.85558621 9.651694845)
5(0.4117364514 11.08293525 12.66029343 10.53717422 8.096319811)
5(2.061973357 9.499406841 9.269870347 9.099113883 7.811651837)
5(-1.239076699 4.790119512 6.685963669 4.880692554 5.75006109)
5(-8.476047659 -4.600315373 -2.095904571 -1.432283602 -2.54175287)
5(-6.089528974 -2.204748804 -21.12770261 -2.732201513 -2.789002105)
)


60
(
5(5.974486712 7.475543251 15.65096323 18.43734498 23.97352059)
5(4.95245481 7.041453521 11.46037565 14.34921415 17.99470666)
5(4.32268212 6.388942165 9.335943486 11.76523165 13.80104553)
5(4.014363576 5.864932014 8.210201953 10.12735448 11.3834878)
5(3.942456254 5.59150631 7.683894695 9.248168325 10.26194091)
5(4.005645861 5.538275236 7.462907186 8.877137036 9.778223086)
5(4.143170011 5.66207264 7.472580449 8.922559104 9.804873579)
5(4.384466902 6.045383929 7.852051433 9.50973127 10.38269978)
5(4.791527553 6.723896497 8.685722329 10.68766395 11.55581916)
5(5.406986147 7.773789896 10.06201723 12.52898917 13.57949457)
5(6.301655494 9.224181897 12.02782662 15.06965249 16.46406514)
5(7.513803469 11.15160555 14.61254614 18.36519462 20.34418459)
5(9.084200129 13.58585808 17.85866128 22.48154229 25.12946214)
5(11.09505121 16.59702172 21.82854837 27.46567539 30.869159)
5(13.53946132 20.20910462 26.57118019 33.29577827 37.67336428)
5(16.47864048 24.4552743 32.10504969 39.99514735 45.35009845)
5(19.91497856 29.35173969 38.41060129 47.53352721 53.83258882)
5(23.94418462 34.86008945 45.40335169 55.72031351 62.97627203)
5(28.41214323 40.93540003 53.02947076 64.47029816 72.34459656)
5(33.43217778 47.4636764 61.0699417 73.42476273 81.91473349)
5(38.84148389 54.35991306 69.43152161 82.46518751 91.25091992)
5(44.49217863 61.46660681 77.73831561 91.17865679 99.99587659)
5(50.40224439 68.51841509 85.9215119 99.48955553 107.9076476)
5(56.49642445 75.4405229 93.62105824 106.9843437 114.786539)
5(62.50783501 82.08183869 100.7611168 113.5111342 120.8591737)
5(68.24321235 88.24039902 107.028317 118.9215711 125.0229346)
5(73.66583064 93.58607685 112.3843106 123.1863155 127.9055566)
5(78.6329164 98.24657137 116.5256187 126.0810563 129.8650469)
5(83.11107943 102.0858077 119.5574804 127.6035663 129.4604006)
5(86.83647065 104.8934704 121.4718634 128.0540599 129.1560958)
5(89.79920052 106.6125303 122.1577672 127.1487508 126.6223654)
5(92.05042859 107.2710505 121.3836731 125.2094687 124.0349888)
5(93.2893144 106.6932737 119.8860785 122.468866 119.979755)
5(93.29269915 105.1395358 117.0000663 118.2314398 115.2729702)
5(92.28982314 102.1797891 113.1146288 113.335286 108.9016346)
5(89.67530785 98.12058906 107.7987382 107.9998448 102.8296594)
5(85.53055632 91.71865999 101.152271 101.4294371 95.91702555)
5(80.28627998 84.28920301 93.31476792 94.01910748 86.10852952)
5(72.86841182 74.91485156 84.64107724 85.85127459 78.49002715)
5(62.98865816 63.81189377 75.93802672 76.62168825 65.90402118)
5(51.95207164 53.4348277 65.17581635 67.22741403 58.12656078)
5(38.67974672 41.81700335 53.90774772 58.09913218 48.43537406)
5(24.94744379 29.06530516 43.16050641 48.90895765 36.91466899)
5(10.53636342 15.66489844 33.05962998 38.53462313 27.3272288)
5(-2.394083594 4.307256278 24.0302356 28.9248975 19.17726924)
5(-14.68554443 -5.888574434 14.7201569 20.10677284 17.40551862)
5(-27.29725985 -16.0504033 8.475279039 13.54692729 12.22954897)
5(-35.33981111 -20.34503504 -0.4812025866 10.67148247 7.425050626)
5(-50.37930905 -22.40780995 -3.251779852 8.723391183 9.126931368)
5(-46.75515738 -24.75159536 -1.658961611 8.040062389 4.254480082)
5(-47.14464159 -26.2703115 -0.9636058034 5.689104271 1.029075906)
5(-50.8812646 -22.2210109 1.563034591 9.040023576 11.68689085)
5(-42.14394289 -15.35105749 3.947179365 10.14257508 8.356670113)
5(-36.14101359 -7.997223558 6.265467538 11.28150857 4.872405238)
5(-19.9497517 -3.193705627 8.129684653 12.94853993 6.935066547)
5(-21.88626472 2.491510303 10.5527456 9.730613389 11.10201158)
5(-10.73083714 1.160449753 9.78857599 11.91553482 9.705457337)
5(-9.606675187 0.001372552978 5.126177493 6.602693445 6.997340831)
5(-17.44128632 -10.96901569 -5.572626999 -7.081531241 -2.06090547)
5(-12.08333642 31.15560751 19.7370494 -119.7585491 -129.8390691)
)


60
(
5(8.067515521 10.65673924 20.72781964 24.91559351 30.34208565)
5(6.999718571 10.1917012 16.02324707 20.23548866 24.48263806)
5(6.185732576 9.16795704 13.26827635 16.84672842 19.53697414)
5(5.698341378 8.26825679 11.63544337 14.52836862 16.49571637)
5(5.518525639 7.761701025 10.76420372 13.19051679 14.8033864)
5(5.525207656 7.614155003 10.36490906 12.6257191 14.06508044)
5(5.658860402 7.748420923 10.38639154 12.67153527 13.96956788)
5(5.968570499 8.275169392 10.93167628 13.45642882 14.72472364)
5(6.533290134 9.224521466 12.11164544 15.01088163 16.29872862)
5(7.416318358 10.66396013 14.03665472 17.49832315 19.08870836)
5(8.673286896 12.68384499 16.73461007 20.90910027 22.95040181)
5(10.35186019 15.30432401 20.2528566 25.33891404 28.19349905)
5(12.55814501 18.60613086 24.66216657 30.8262467 34.67537855)
5(15.24875758 22.66751192 29.97748145 37.46638485 42.49434329)
5(18.61996995 27.49970863 36.30784221 45.21636256 51.51931664)
5(22.62010317 33.16095954 43.61203683 54.09987433 61.70119976)
5(27.24428734 39.62595124 51.95599129 63.98570594 72.87392978)
5(32.56707476 46.90625736 61.1673394 74.65535887 84.76140189)
5(38.53773722 54.89033975 71.08230642 86.06625688 97.00793463)
5(45.09749319 63.42531319 81.56192219 97.70061732 109.3493473)
5(52.14941748 72.3440068 92.34972398 109.3872842 121.382817)
5(59.68328429 81.49874715 103.0967702 120.6700173 132.6032334)
5(67.25758619 90.61703427 113.4773353 131.1873071 142.8817295)
5(75.01188958 99.57049229 123.2762811 140.6412528 151.9483517)
5(82.60262276 108.0944672 132.3004776 148.9234873 159.1751457)
5(89.83480539 115.7509668 140.2340703 155.7467678 164.7640337)
5(96.63786791 122.4071038 146.7488383 160.9765387 168.8503536)
5(102.6172205 127.9494785 151.6168296 164.4407506 170.8815049)
5(108.0899342 132.2578602 154.9426348 166.3113632 171.0810146)
5(111.8519299 135.3463275 156.7221733 166.4105566 169.5993401)
5(115.1452753 137.1816463 156.9121465 164.9542111 166.821789)
5(117.2962771 137.0967473 155.3009437 162.2974449 162.327858)
5(117.7111171 135.6340295 152.4789054 158.3639369 157.9847117)
5(116.7924435 132.547319 148.4556468 152.9187739 151.4768396)
5(113.8897243 128.1037184 142.3686601 146.3217922 144.2726321)
5(109.5513805 122.0628166 135.1418813 138.5169268 136.0290405)
5(103.5218497 113.2760592 126.9312971 129.5778369 127.4010013)
5(94.66232876 103.1064158 117.3215377 120.6034818 118.4607071)
5(84.73310194 92.40591406 106.5425908 110.589847 107.0338173)
5(72.61930007 79.27246467 93.83743424 99.62134409 96.67621601)
5(59.50864507 65.26040214 80.72777091 88.98299817 85.0642636)
5(43.87937736 49.25088984 67.40369082 77.79775754 68.2385231)
5(26.11666182 32.42717962 53.68981684 66.27906237 58.17846506)
5(7.5957781 16.82288028 40.93035949 52.91077656 45.08749643)
5(-10.70155583 0.297787605 29.91708823 39.52738423 33.73923272)
5(-22.87357613 -14.22299653 17.37636544 26.8845883 20.75334582)
5(-39.05897108 -25.00237187 4.718793761 14.85276782 11.32556076)
5(-51.54638554 -35.22286075 -5.662986376 4.9371491 4.626558419)
5(-61.33101404 -42.65086682 -13.91875472 0.7526655129 -0.3316609702)
5(-70.41765017 -50.92869764 -19.15310187 -5.609634044 -0.3880652503)
5(-76.48751959 -54.52205052 -20.76665121 -8.590920377 0.4759190328)
5(-79.35752041 -52.67872971 -19.79251296 -9.56123204 2.367509656)
5(-75.02877696 -48.2655664 -17.51457545 -5.561605977 -12.93866806)
5(-72.34057631 -41.23023698 -10.41385594 -0.1899754822 7.286434652)
5(-61.81482726 -31.15278502 -3.822381734 5.108788128 8.888915908)
5(-51.56021087 -20.1581405 0.9737273116 9.627523948 6.608321007)
5(-38.79486753 -14.39101023 7.738706333 10.90887397 9.38611435)
5(-29.12971411 -10.02573444 2.589398617 8.566202267 7.176650843)
5(-30.65269757 -21.92196043 -14.19081605 -7.125464586 -10.98795951)
5(-23.56189178 -20.29749771 -23.55269787 -11.79376375 -9.837597315)
)


60
(
5(10.37586172 14.19443257 26.11722438 31.60810816 36.58112308)
5(9.285314166 13.74444677 21.0436464 26.6957389 31.40414573)
5(8.290161831 12.26323201 17.65511633 22.54952339 26.04906861)
5(7.566231007 10.95723889 15.4844174 19.53332692 21.96552557)
5(7.219718008 10.18452485 14.21742904 17.69851351 19.73576851)
5(7.154025102 9.906342673 13.62886918 16.86184973 18.76504423)
5(7.26083075 10.0315323 13.63764449 16.83724877 18.44331236)
5(7.660827898 10.69027018 14.3693048 17.78013447 19.43244042)
5(8.384185956 11.90852546 15.87530454 19.71066091 21.43300989)
5(9.550560824 13.77099754 18.32543996 22.75747037 24.87264189)
5(11.16013868 16.30938103 21.70337486 26.99671941 29.80584008)
5(13.39157648 19.63427132 26.12653268 32.51511508 36.42355289)
5(16.17342702 23.78434383 31.61567062 39.35086328 44.59228283)
5(19.68215627 28.84692689 38.28363842 47.6163992 54.44194115)
5(23.86152636 34.89679085 46.17943224 57.27243297 65.682984)
5(28.86316281 41.92195414 55.30967384 68.27996633 78.45365017)
5(34.68769801 49.95335411 65.61457268 80.44942366 92.18262501)
5(41.31671039 58.90542996 76.93367138 93.66341369 106.8316128)
5(48.76318524 68.71632103 89.15252129 107.5761119 121.9142263)
5(56.77839791 79.20461204 101.9603108 121.8262282 137.059092)
5(65.52277774 90.17794423 115.0648105 136.0000525 151.7485916)
5(74.61090838 101.3589022 128.1146789 149.6719347 165.3894069)
5(83.9591334 112.5038502 140.7644619 162.4524681 177.9173404)
5(93.27307215 123.3098551 152.6675865 174.0641955 188.8379234)
5(102.5000478 133.4457621 163.4744306 184.1064138 198.1450822)
5(111.0768569 142.6887327 172.8198488 192.3030299 204.823918)
5(119.0857387 150.6373386 180.3739636 198.4846007 209.4171493)
5(126.0190046 157.2005409 186.1910774 202.4483848 211.7612526)
5(132.1790028 162.0972515 189.9523906 204.3388132 212.1216994)
5(136.586646 165.348898 191.6454185 204.2845288 210.3665486)
5(139.8033905 166.6290712 191.354498 202.2647096 206.8776234)
5(141.2134653 166.030255 189.2678521 198.2943878 201.5668726)
5(141.037744 163.8850619 185.1337685 192.6833748 194.8122286)
5(138.9898718 159.3140844 178.9341132 185.5404697 188.4668728)
5(135.24735 152.7700263 170.701943 176.9195098 178.7948789)
5(129.0939308 144.2746006 161.0221371 167.1115718 168.4625835)
5(119.6059055 133.7729196 150.147243 156.7257549 157.8813892)
5(109.224005 122.0514219 137.6046487 145.332765 147.2179965)
5(95.81242082 107.5748482 124.0229493 133.5565518 134.993861)
5(81.5516318 90.29795042 109.9307889 121.5015946 123.1950076)
5(64.77884252 73.14479215 94.26751306 109.7298395 109.9402572)
5(45.50333699 54.36275728 78.406536 96.98917093 96.64589829)
5(26.91296621 35.04377164 61.33406969 83.58164853 81.48833991)
5(6.100147012 17.8881609 47.876849 69.29022369 66.86360668)
5(-13.84708521 -0.8451475935 34.65320051 53.65479823 48.86354859)
5(-30.20844264 -17.92040236 19.97310473 37.84618984 34.42205297)
5(-45.30979332 -31.943114 4.096853101 23.29606783 17.50236122)
5(-59.90190378 -44.75362116 -11.34613776 8.453382838 3.068639267)
5(-74.32031635 -56.91351044 -23.43933816 -3.617290557 -4.539265509)
5(-83.54641914 -70.70093422 -33.86573842 -12.35704021 -8.069334228)
5(-91.00859858 -77.03373042 -40.52567787 -20.5118286 -19.33672452)
5(-99.22140872 -86.233831 -43.53409581 -25.74059124 -17.120048)
5(-97.36700386 -78.58860018 -47.05415834 -23.3606889 -14.67569941)
5(-95.39170285 -75.37682759 -40.82458467 -23.82059533 -9.05010205)
5(-91.87515207 -69.99940732 -32.20560829 -12.04654603 -3.876622698)
5(-85.76041341 -56.86683863 -18.34172013 -2.499692748 -17.65774841)
5(-74.28858778 -50.39302825 -12.31216498 5.059691851 8.655768247)
5(-68.05306204 -37.3266966 -10.99788074 2.162400012 3.897428461)
5(-53.49759615 -39.66786135 -25.2394578 -14.80665225 -15.50926959)
5(-47.40920006 -32.92316107 -23.40947436 -12.94985026 -9.247074038)
)


60
(
5(12.87192276 18.02842285 31.69647743 38.36857791 42.43243396)
5(11.79236371 17.6299511 26.37936835 33.67566872 38.59577086)
5(10.55599326 15.68144485 22.43574712 28.83671421 32.92078448)
5(9.5852587 13.9043923 19.70722038 25.15328907 28.55252509)
5(9.035862307 12.82227783 18.05785592 22.82833178 25.48553918)
5(8.899414238 12.39859417 17.2513486 21.65712739 24.07464187)
5(8.983871656 12.52795068 17.21912841 21.45350193 23.61583247)
5(9.445054499 13.31036724 18.09471288 22.44824168 24.58566372)
5(10.3819775 14.78888197 19.90695327 24.66703625 26.94829305)
5(11.79660726 17.04896389 22.84711531 28.26902624 30.9297489)
5(13.85200807 20.13364074 26.89414233 33.25923022 36.93022653)
5(16.56168781 24.13861978 32.2048027 39.81995483 44.88434677)
5(19.98300906 29.11700226 38.76556268 47.99439989 54.81575564)
5(24.19877094 35.21510137 46.7424517 57.84917114 66.54893221)
5(29.29786787 42.42232051 56.13957684 69.33636203 80.14138325)
5(35.33270655 50.80601675 66.99884516 82.40839823 95.21198977)
5(42.31257179 60.31094934 79.21271309 96.86581911 111.6152071)
5(50.26696812 70.9439141 92.63418033 112.5022805 128.9731595)
5(59.0293271 82.58917733 107.0560668 128.8836597 146.8734632)
5(68.68582118 95.00540043 122.1059834 145.6606177 164.6190913)
5(78.97603322 107.9700168 137.5222968 162.3601907 181.9074812)
5(89.67744892 121.060247 152.8455373 178.4619663 198.1846826)
5(100.6835533 134.1488521 167.6853331 193.5362255 212.7646578)
5(111.7824914 146.9046094 181.5394133 207.1048771 225.6451125)
5(122.2008106 158.7587046 194.0618929 219.0166625 236.0921332)
5(132.412933 169.247796 204.8806816 228.8574757 244.7680357)
5(141.6544533 178.4901145 213.7717066 236.2008743 250.1399818)
5(150.1034671 186.0747984 220.6424509 240.7991489 252.6495383)
5(156.7521051 191.6558959 224.6155133 242.9362812 253.2969052)
5(160.7959764 194.9924642 226.0572711 242.8627541 250.4967466)
5(163.5667064 196.2005965 225.1705908 239.6822571 247.116921)
5(165.284832 195.3303039 221.9398676 234.2498226 241.6321849)
5(164.1985866 191.7498799 216.2962743 226.9458108 231.8290289)
5(160.2591932 185.5054435 208.3252173 217.8836515 222.015667)
5(154.3789972 176.8750436 198.563046 207.1835184 211.8776569)
5(146.2387217 165.7574296 186.1707865 195.3655524 199.5540341)
5(135.3949529 152.9129205 172.0310912 182.5899903 186.9643288)
5(121.6270067 137.2647392 156.4712136 168.1115677 172.9448714)
5(106.1102205 119.7261429 140.079539 152.5184466 159.8714075)
5(87.01553427 100.876705 122.59897 137.6318456 146.0056324)
5(67.99555336 81.11562515 103.6774188 124.1335147 130.9504003)
5(46.80814641 60.14239828 85.01777245 109.3785859 115.3933184)
5(24.82382291 38.02583807 68.64252093 95.44943024 99.3302185)
5(3.668155735 17.15416657 52.38850346 79.84985893 85.13988693)
5(-18.29566794 -2.564404123 36.44278291 63.91166016 66.26065582)
5(-37.32836135 -21.23196937 20.84481485 48.61680987 51.79659417)
5(-52.93947724 -39.58103129 5.222299209 32.51631489 30.82230643)
5(-65.55350893 -52.1020378 -9.33378734 14.75941476 17.25970487)
5(-78.95925118 -64.78771323 -26.8883226 -0.6981869355 -5.51016437)
5(-89.69356271 -77.61373388 -42.3463514 -17.07765572 -15.39044173)
5(-94.58963581 -87.36991668 -55.4665581 -30.88582304 -23.27870631)
5(-99.19347739 -93.86686719 -65.23407991 -42.69921469 -30.87114447)
5(-106.3636006 -95.58121513 -75.47370007 -46.23896081 -33.48418743)
5(-110.0435005 -99.02657069 -70.21545321 -49.17370293 -40.35422696)
5(-110.2308559 -99.93376036 -73.48424945 -39.80975006 -33.06688375)
5(-106.1675054 -92.12667669 -63.64249041 -26.58830097 -10.07986233)
5(-101.1762731 -85.32060171 -48.52968979 -17.02158779 -16.64023858)
5(-91.70345709 -74.99111999 -43.00421363 -10.41470853 2.067712208)
5(-85.5777023 -68.14730095 -43.86699736 -30.71898168 -14.27102814)
5(-82.43700462 -72.06423707 -50.09608307 -14.15311412 -14.99526087)
)


60
(
5(15.53503664 22.0573031 37.41031061 45.13777757 47.74831692)
5(14.49633946 21.82187276 32.09922271 41.081186 46.15749019)
5(13.00837845 19.36667045 27.61700458 35.72070654 40.30150769)
5(11.76068036 17.07890857 24.30242099 31.32469796 35.36416432)
5(11.01167969 15.67901432 22.21606675 28.41251514 31.64032551)
5(10.73303337 15.14174395 21.18878476 26.857149 29.77634917)
5(10.84025496 15.24152837 21.15237704 26.51036455 29.14364348)
5(11.40444617 16.15738321 22.12355754 27.50572938 30.01388124)
5(12.51244274 17.89350281 24.22390982 29.9775738 32.67377353)
5(14.24844572 20.54192262 27.60203996 34.01730335 37.43075688)
5(16.6736731 24.17050166 32.3462571 39.79986408 44.40312338)
5(19.91380728 28.85478153 38.46095993 47.35951354 53.7303191)
5(23.99581226 34.68833894 46.14602274 56.83788135 65.20687893)
5(29.01703486 41.76953856 55.38659903 68.21698726 78.9662881)
5(34.97760756 50.16972856 66.32426714 81.5312816 94.70316898)
5(42.09249735 59.88468914 78.88922717 96.63565292 112.2572036)
5(50.17150156 70.95013646 93.05546448 113.3386187 131.1826805)
5(59.50195626 83.24620495 108.5118921 131.3153221 151.269894)
5(69.61861214 96.69687972 125.0894465 150.1448589 171.7087842)
5(80.83776395 110.9594582 142.4008646 169.3922067 192.092835)
5(92.56809105 125.7932961 160.1343804 188.5354755 211.8661548)
5(104.9102879 140.8139072 177.7200424 207.0050688 230.5942324)
5(117.7843708 155.8054724 194.6959482 224.3918361 248.1122777)
5(130.1367884 170.2164745 210.5906609 240.1424602 262.7883365)
5(142.3272141 183.6216368 224.9476702 253.8086489 275.2162817)
5(153.8782791 195.980318 237.2960371 264.8710695 284.5638842)
5(164.0095378 206.7465081 247.2664544 273.0711292 291.4740357)
5(173.5009512 215.3106277 254.536281 278.610788 294.6719595)
5(179.7603652 221.0989114 258.8508405 281.3081503 296.2126135)
5(185.8560699 224.2460842 260.1955237 280.6641093 293.5048438)
5(188.5100565 225.376888 258.9553805 276.75201 288.5942073)
5(188.7579136 223.5808389 254.726818 270.2221565 279.6235332)
5(186.5042664 218.6579982 247.4836134 261.2522229 269.434585)
5(181.5906267 211.0598461 237.2835024 249.8501594 255.9669812)
5(174.3476412 200.3785741 224.5641396 236.3617422 242.6467108)
5(163.8677653 187.1082564 209.2637183 221.1922851 227.8722583)
5(150.3911061 171.1416188 192.2130968 204.4664486 212.0872107)