/*--------------------------------*- C++ -*----------------------------------*\
| =========                 |                                                 |
| \\      /  F ield         | OpenFOAM: The Open Source CFD Toolbox           |
|  \\    /   O peration     | Version:  2.3.1                                 |
|   \\  /    A nd           | Web:      www.OpenFOAM.org                      |
|    \\/     M anipulation  |                                                 |
\*---------------------------------------------------------------------------*/
FoamFile
{
    version     2.0;
    format      ascii;
    class       dictionary;
    location    "constant";
    object      la_r8;
}
// * * * * * * * * * * * * * * * * * * * * * * * * * * * * * * * * * * * * * //

la_r8_table
60
(

60
(
5(0.9461729657 0.3711222853 2.571681018 2.018039868 4.945337883)
5(0.2613635635 0.05862074327 0.7398851597 0.644499636 0.8360166706)
5(-3.550938972 0.12113305 0.2513039203 0.1992150977 0.0008721031916)
5(-10.72858249 0.1422418707 0.2690509163 0.05681209723 0.4427423736)
5(-8.236881959 0.1197068298 0.2490559521 0.1833563429 0.233408917)
5(-3.126236217 0.1001492913 0.07518797576 0.1857014631 0.1403756685)
5(0.1108574028 0.09221253872 0.09924021494 0.1191430925 0.3460890778)
5(0.05117374007 0.1018958361 0.1971760039 0.1696382467 0.09234347009)
5(-0.9625727218 0.1248771241 0.1617192923 0.2094247577 0.2071324064)
5(-0.3755196315 0.09791696473 0.2627641813 0.2120165086 0.2715802827)
5(0.5066035564 0.107769135 0.3090324993 0.2535574058 0.3252303645)
5(0.04720589405 0.2108121428 0.3017463016 0.3135355674 0.3173862331)
5(0.1435262358 0.2552850358 0.3387566793 0.4189586305 0.4332429867)
5(0.2070217979 0.313667453 0.4214063268 0.4386332301 0.487489484)
5(0.2102027487 0.3527698949 0.4766713626 0.5836873852 0.603833948)
5(0.302203569 0.495237866 0.6298659783 0.7435378478 0.7717422676)
5(0.3836957912 0.5920743774 0.7926862525 0.910219842 1.014551668)
5(0.4166865556 0.6884969809 0.9034738738 1.148986949 1.280412435)
5(0.4530357822 0.7861731666 1.089524531 1.365728033 1.660969219)
5(0.5737539466 0.9633660766 1.369534505 1.78654819 1.954286075)
5(0.6683498784 1.085353542 1.533988734 2.050488298 2.177842588)
5(0.79381413 1.25015883 1.87795544 2.008376481 2.255889707)
5(0.9814398276 1.480918771 2.132713371 2.563806961 2.846440782)
5(1.106269926 1.796369334 2.420448006 2.896614696 3.146663001)
5(1.32547467 2.156280087 2.79675216 3.38709089 3.635584384)
5(1.510584957 2.603176155 3.3129151 3.96356647 3.916830736)
5(1.710738997 2.746357547 3.458213497 4.390380592 4.225242611)
5(1.882013676 2.718700371 3.893332331 4.758517401 4.45951222)
5(2.207615076 3.04994065 4.083322045 4.91635348 4.747110986)
5(2.453415942 3.430980122 4.332683204 4.860642861 4.756082663)
5(2.786789498 3.800608533 4.781051697 5.38049227 4.905999424)
5(3.061310221 4.010229271 4.811762748 5.180957916 4.155400559)
5(3.281756859 4.316042729 5.075023696 5.257234514 4.798545665)
5(3.584156761 4.628594992 5.420675349 5.241481552 4.103170691)
5(3.871440347 4.689316951 5.341485766 5.214345886 0.7958180471)
5(4.047621963 4.99307445 6.040519518 5.297718706 -1.306709836)
5(4.176092971 4.69481759 5.242210467 4.90084486 3.730674375)
5(4.060527853 4.738520456 5.054693767 4.792543368 0.7028143054)
5(3.91056342 4.551549894 4.595914016 4.396839628 0.1906818669)
5(3.791512506 4.353981852 5.629437493 4.952380316 -3.318279543)
5(3.48443324 3.884551621 6.244794077 -4.60518946 -7.658993366)
5(3.157866377 3.402203534 5.53988597 -81.70205253 0.01584800898)
5(2.857864915 3.937445615 4.949962977 0.01245112111 0.01600270836)
5(2.422572297 4.97700756 3.164960599 0.01532310479 -7.599410777)
5(2.357458305 6.38242998 -6.246024786 0.01593383519 -0.8092300201)
5(2.654856863 4.679635542 2.258439725 0.006574481361 0.01888855225)
5(3.763816353 -5.63235019 -76.1301799 -0.7079706771 0.02178141483)
5(-7.737615561 2.199665193 -11.51984153 -0.01622926318 0.01503431296)
5(3.091952594 2.236931031 -0.6662645892 -0.02152508099 -0.01749136017)
5(5.720325677 -4.241209447 -0.02763386014 -0.007064303152 -0.01972880736)
5(-23.20686536 -0.01411236257 0.01827168488 -0.01352525664 -0.09492621114)
5(-77.67503496 -0.001374837332 -0.000817786448 0.01160584935 -0.03040782839)
5(-14.08099085 -0.1317100282 0.0214416458 0.03176824048 -0.01569769582)
5(0.0100876386 -0.05283517511 -0.04532556281 -0.04790852389 -0.1103422495)
5(-0.005232554819 -0.09276821474 0.004316602777 0.02034408675 -0.009805317708)
5(-27.67276346 -0.01616828342 0.03196977496 -0.04612489956 0.03438653523)
5(-93.52863063 -0.002558779317 0.02556714061 0.02416979743 0.07291110934)
5(-104.764393 -42.7977721 -0.02544839407 -0.02246275077 -0.2014628821)
5(-51.96274866 -52.56023023 -34.15023976 -0.1274908712 -0.4988596427)
5(-0.007365218514 0.007718644243 0.005662880079 0.02583437381 0.09169452629)
)


60
(
5(1.985142762 1.82847491 5.766064564 6.105556383 11.68006913)
5(1.253367597 1.461425628 3.113419755 3.817696103 5.695965211)
5(0.8645993464 1.433227224 2.210630287 2.90114123 3.227169401)
5(0.7433246456 1.438612063 2.069117181 2.568800953 3.36772742)
5(0.8287092113 1.482839212 2.156446409 2.727567082 3.298699854)
5(1.025880007 1.580069172 2.214334715 2.90583997 3.523560032)
5(1.187765417 1.721167167 2.418821839 3.09604271 4.038398104)
5(1.26540384 1.918728876 2.717209104 3.483944762 4.178713981)
5(1.413333838 2.187256337 3.004205649 3.983710583 4.841320726)
5(1.609524603 2.556083851 3.532484989 4.673157716 5.685580462)
5(1.875425521 3.027250169 4.190235689 5.624710914 6.888396619)
5(2.284866562 3.632720993 5.023301235 6.826790352 8.389633718)
5(2.775721741 4.403715268 6.097268342 8.353849412 10.25701457)
5(3.384167853 5.355888643 7.435578749 10.12618439 12.45438114)
5(4.078815335 6.492087478 9.020727095 12.34609049 15.09893169)
5(4.976346729 7.889052922 10.99365096 14.93644289 18.23984968)
5(6.041046075 9.54441383 13.31229605 17.98253977 21.92409545)
5(7.3332538 11.50289425 16.02000931 21.48907506 26.05657422)
5(8.857831661 13.75530691 19.11400379 25.37913417 30.58296215)
5(10.64684038 16.37331873 22.61676973 29.80154937 35.53588994)
5(12.66567839 19.20641796 26.39790571 34.38537443 40.68481356)
5(14.94555235 22.36951597 30.56907343 39.05563491 45.83376578)
5(17.51630494 25.81771252 34.96987316 44.30145698 51.45833826)
5(20.34897541 29.58451714 39.67941955 49.37706829 56.61624005)
5(23.41383714 33.41913941 44.4540284 54.54535121 61.67699777)
5(26.75423136 37.40201288 49.4787097 59.64526675 66.24842885)
5(30.30431762 41.39361503 54.12075676 64.35425569 70.16856549)
5(33.92708869 45.59403186 58.69075379 68.47764153 72.97235868)
5(37.76602895 49.7257525 62.9083525 71.80731495 75.55047865)
5(41.6869012 53.53198777 66.64412823 74.4571814 76.51470009)
5(45.57666534 56.9806659 69.88938453 76.27802777 76.87174068)
5(49.27044609 59.96367163 71.93556937 77.01802697 75.77849625)
5(52.58289307 62.09491274 73.30152813 76.55098441 73.26615996)
5(55.42629337 63.15090406 72.99826211 74.88269053 69.6212706)
5(57.12678549 63.34178986 71.75373334 71.57237732 65.20735312)
5(58.50110147 61.46994501 67.89535379 66.75903371 58.55313483)
5(57.08887712 58.54390483 64.10754492 60.40837403 51.21303355)
5(55.40217437 53.78871506 58.57267931 53.41504179 46.03496421)
5(51.42017442 45.67450259 50.74899587 46.83018267 36.9175071)
5(43.74476835 37.92470423 40.91375194 38.67589531 35.47740961)
5(34.8101795 26.68958633 29.61160715 32.26932126 26.82805493)
5(20.99742449 19.65095502 23.02770301 31.59016165 21.96655209)
5(12.09732371 11.4942585 17.43952913 34.9452669 16.80572466)
5(0.3675997458 -3.374253706 9.587035077 27.50636085 14.89459235)
5(-11.46095927 -7.433753426 7.53456852 19.00384346 14.65402942)
5(-25.17296836 -12.42685706 11.4459839 13.81233795 16.77740136)
5(-37.45529168 -9.51767476 24.07919421 11.88089162 17.10417197)
5(-40.79841874 -1.237961901 22.95513646 12.30281645 14.66209811)
5(-29.3201105 8.878655844 18.94615634 12.63162019 16.45116283)
5(-29.64419333 29.24460822 17.36405949 15.54816436 15.40771412)
5(-10.77110556 20.75649619 17.46756023 15.87998908 11.52395952)
5(2.878662006 16.00091495 15.42579626 17.24519571 15.26855741)
5(23.85837375 19.86538797 19.30249465 16.45103363 2.845557557)
5(30.33524723 16.03515143 22.56712666 17.73775372 14.56302916)
5(21.8749554 26.85113304 23.29732672 18.83060332 14.02469644)
5(25.72374804 26.3160183 22.17462185 18.11533337 15.17812688)
5(19.08293237 23.44557477 22.00367654 16.37516288 11.02089807)
5(17.45725487 16.66440678 15.89009852 10.9150397 14.40366348)
5(-2.814786117 0.8302153954 3.691967456 10.57075723 3.894288683)
5(-4.417398144 -6.744386025 -6.805302073 -15.60537379 -10.17982537)
)


60
(
5(3.407266938 3.891090617 10.04857491 12.22526733 20.7474369)
5(2.616177428 3.658939096 6.669789711 8.940191119 12.86514051)
5(2.260962333 3.495202398 5.387644736 7.510978967 9.626396862)
5(2.17582055 3.454861033 5.061561457 7.039671069 8.61746973)
5(2.289593173 3.574715332 5.254306804 7.180618172 8.942389572)
5(2.521454672 3.836780628 5.678143628 7.669877345 9.78502207)
5(2.786737627 4.205132452 6.165780271 8.382630753 10.75369864)
5(3.09268266 4.717704443 6.806876925 9.364315981 11.86735438)
5(3.505820813 5.410583811 7.706403655 10.71324498 13.35213919)
5(4.062878257 6.336940725 8.972691703 12.53743755 15.53489771)
5(4.792144109 7.540233587 10.68359209 14.91595326 18.42558962)
5(5.731445675 9.051748951 12.8513226 17.87189413 22.04112547)
5(6.934010919 10.93651957 15.5215998 21.472808 26.41515759)
5(8.401297238 13.23267623 18.72346605 25.79901665 31.62307384)
5(10.19336137 15.9886297 22.57668663 30.8866197 37.69354851)
5(12.33849029 19.27769028 27.1072396 36.83051229 44.74643673)
5(14.95311031 23.11285604 32.424323 43.68322647 52.77888924)
5(18.00555091 27.5702045 38.4723757 51.39404044 61.61113392)
5(21.55952464 32.63246853 45.33053474 59.88905618 71.20756074)
5(25.61796507 38.28704959 52.86170102 69.10162138 81.42832806)
5(30.13324276 44.52273619 61.07028462 78.82589643 92.04732962)
5(35.29063313 51.29904417 69.74018234 88.84043041 102.6799717)
5(40.81293064 58.48482909 78.80828137 98.9713281 112.9841325)
5(46.76505553 65.93051693 88.01851874 108.8159395 122.6916769)
5(52.98433076 73.45914638 97.13073086 118.1718733 131.4755087)
5(59.55388033 80.96362287 105.8724833 126.8475677 138.5638932)
5(66.1497469 88.10084934 113.8110463 133.9981954 144.3790901)
5(72.38199832 94.77827231 120.6552553 139.7085374 147.6178011)
5(78.75525905 100.5197114 126.0535276 143.1913621 148.9967356)
5(84.19125494 105.0201115 129.923756 144.673339 147.4662112)
5(89.09285517 108.2645161 131.522403 143.3543825 143.0401891)
5(92.64196764 109.562708 130.3776644 139.3283574 135.9380967)
5(94.74630802 108.3228188 126.7217939 132.528025 125.2951769)
5(95.03706904 104.8645546 120.1088214 122.0311349 112.1904464)
5(92.59773587 98.23696748 109.7724738 108.2924582 95.88207253)
5(85.31752638 88.37820043 96.52677109 91.77198168 79.18630104)
5(77.85664728 74.72029661 79.87582049 72.74225912 58.24534532)
5(66.79449484 58.12019502 59.89226093 51.80416118 38.68390504)
5(52.74408904 39.29749706 36.68687799 29.50265382 17.59573452)
5(34.06267461 16.57259362 12.35678468 7.143091532 -2.108512936)
5(10.33294387 -8.07623079 -10.71140045 -13.76454886 -18.49694622)
5(-8.454120919 -31.44392204 -35.01381153 -31.85720891 -29.69879128)
5(-33.29457553 -55.00218028 -56.85661551 -47.23229623 -37.71937822)
5(-54.46896179 -76.3227445 -74.88937764 -58.13576473 -44.14496249)
5(-75.8998401 -97.64761586 -89.32558097 -63.22823353 -39.78953639)
5(-91.62139454 -109.161306 -94.83810317 -64.30094683 -36.03308228)
5(-104.6707063 -115.2498455 -94.16225417 -57.85401455 -30.94221065)
5(-111.5170571 -114.9012431 -89.20087896 -48.36035319 -21.72213413)
5(-113.381061 -111.0739921 -78.1869269 -38.37573104 -13.32035728)
5(-102.6382709 -92.53692567 -60.20756695 -27.43075071 -6.447470931)
5(-86.08686608 -73.94665445 -41.8153287 -16.52512556 2.015542776)
5(-62.86018342 -53.40821522 -23.45506349 -6.402199804 5.386172042)
5(-37.63890638 -28.37854999 -6.834539847 0.195531886 12.07488998)
5(-21.71834097 -5.101813607 5.930786033 8.810558758 1.090605615)
5(8.293145347 7.941496006 15.32429083 16.06050319 15.53345493)
5(11.01675382 20.56118884 21.59487353 18.83825691 16.15678598)
5(19.9218038 25.31424869 22.1664616 20.98174217 18.36305341)
5(17.67686018 22.53026207 23.24828972 18.82098599 17.88036285)
5(4.689735628 7.963508949 7.367635163 8.33784973 8.21012596)
5(-1.168269015 -3.244477949 -5.067665088 1.936750599 0.162999256)
)


60
(
5(5.127034523 6.498481798 15.29713353 20.06607732 32.22721307)
5(4.294187118 6.290202864 11.19118038 15.66239015 22.36926129)
5(3.867704862 6.036509718 9.474619729 13.57451133 17.90266075)
5(3.756522742 5.933975778 8.984607457 12.8311319 16.4336348)
5(3.9116551 6.096706554 9.227453382 13.02531864 16.80029995)
5(4.24123263 6.50937661 9.849888248 13.80672542 18.00238302)
5(4.664197344 7.124054347 10.68982747 14.97903171 19.47099177)
5(5.19849785 8.001009292 11.84088213 16.63170196 21.31214983)
5(5.910025902 9.182423292 13.42529283 18.88578241 23.78212727)
5(6.859252303 10.74915231 15.58441546 21.87965248 27.26884639)
5(8.110274923 12.74050784 18.39935883 25.69151159 31.82210759)
5(9.700997038 15.23266144 21.91857377 30.3936214 37.55092258)
5(11.67205253 18.27891684 26.19412317 36.09590133 44.44809938)
5(14.10582976 21.96016446 31.30969606 42.89742598 52.53619908)
5(17.03777602 26.34039223 37.38140449 50.83142055 62.00885268)
5(20.54088332 31.49685001 44.49589951 60.02193106 72.83736165)
5(24.65724281 37.49276807 52.7105772 70.52568307 84.97452276)
5(29.51122919 44.37081012 62.02683279 82.18745898 98.33433775)
5(35.0335791 52.1363852 72.43640645 95.01710413 112.6522997)
5(41.34615657 60.76214476 83.81273907 108.7445992 127.7719507)
5(48.40879488 70.19090909 96.09518316 123.2092211 143.3295765)
5(56.09683263 80.31574787 108.9625153 137.9605582 158.7180396)
5(64.41807209 90.93821171 122.2764318 152.7587349 173.5322055)
5(73.415656 101.9130449 135.5416182 167.0947358 187.4670063)
5(82.76378154 112.925232 148.6035206 180.5215382 200.2348745)
5(92.16889468 123.758337 160.9391847 192.558177 210.4182681)
5(101.5611163 133.8915626 172.098235 202.7339496 218.0391499)
5(110.6145305 143.1040044 181.4291302 210.3242894 223.0691411)
5(119.0758655 150.9794061 188.6021719 214.8885462 223.3586519)
5(126.4076899 156.9444143 193.1189167 216.092352 221.3197955)
5(132.2669245 160.5288547 194.3566063 213.3472478 213.666517)
5(136.3510906 161.3983436 191.6732598 206.3878239 202.7086265)
5(138.0126003 158.865192 185.3517896 195.1938779 186.6090516)
5(136.6414588 152.8468666 174.42923 178.7922738 166.4245186)
5(132.177783 142.6938823 158.9881632 158.1599784 140.7140823)
5(123.9751967 128.4134892 138.4443982 133.4813309 112.7886508)
5(111.6131787 108.8909461 113.1320697 104.3760331 81.80954288)
5(95.83566509 85.5051127 83.51531829 71.74829639 45.21930532)
5(75.80406877 57.70288523 50.72820092 36.69886279 12.40215837)
5(51.34104296 26.46603375 16.4669588 0.1269839165 -25.84395546)
5(24.65447023 -5.126291136 -20.68434838 -35.91778331 -52.94153447)
5(-4.367307979 -37.93828335 -57.87880712 -69.22771613 -78.26196316)
5(-33.40377789 -71.09152289 -92.85923908 -98.41636368 -101.19697)
5(-61.98110899 -103.0804222 -124.0556023 -123.1070943 -116.0139255)
5(-86.3962358 -129.9811498 -149.3790377 -140.6228591 -123.8661174)
5(-107.8850954 -151.8834786 -168.9695724 -150.282565 -117.3560556)
5(-127.3396797 -169.0511277 -177.3429999 -151.0467978 -111.7437058)
5(-137.9564141 -174.2540818 -180.8012247 -141.2971663 -103.0143837)
5(-156.856313 -169.8051591 -168.8938065 -124.8651256 -81.78688055)
5(-142.7608374 -158.9293335 -144.3496829 -103.3034976 -70.6130825)
5(-133.1835049 -141.5275683 -116.2709973 -82.63237736 -57.89667257)
5(-126.0368409 -111.935923 -83.95733993 -54.57527134 -26.69740812)
5(-94.84520178 -75.52137151 -52.69406201 -31.4459973 -17.83016257)
5(-66.88222306 -40.11264556 -25.16987306 -12.25479678 -12.00393126)
5(-23.39666221 -12.46898337 -2.97690931 4.757388928 0.4793462944)
5(-12.32360734 12.1212912 16.15961459 11.68685361 14.90889183)
5(14.83961254 21.3437144 26.99125891 25.6413187 20.18059069)
5(21.26004679 27.45016654 29.06642559 26.50826128 23.17368634)
5(1.610524825 3.608785022 6.642569992 8.609583395 12.79746742)
5(-4.84277816 13.0884624 4.385519675 -57.59136936 -73.52347562)
)


60
(
5(7.148952659 9.675292341 21.51488245 29.7330242 46.17898333)
5(6.30175876 9.527508761 16.71088641 24.14358304 34.35851635)
5(5.795400649 9.151573321 14.51880136 21.31648864 28.58889029)
5(5.635342469 8.935841263 13.8405602 20.23117627 26.57486386)
5(5.82871228 9.123366492 14.12973659 20.40974759 26.82808211)
5(6.276508177 9.70870677 14.97895656 21.45678546 28.26398772)
5(6.877494998 10.60332982 16.21387482 23.08168594 30.10073686)
5(7.66456052 11.88758485 17.90253679 25.3933702 32.58016739)
5(8.72393968 13.60805387 20.20166749 28.51462439 35.97882827)
5(10.13358298 15.83910555 23.28846457 32.65979264 40.78476452)
5(11.95991217 18.68191337 27.25005879 37.90942833 47.02219651)
5(14.24312623 22.17533115 32.15700716 44.40216187 54.88039137)
5(17.08581994 26.41607068 38.09610155 52.19782332 64.28875676)
5(20.4724696 31.50463948 45.13660821 61.46510256 75.40646682)
5(24.60382987 37.52770243 53.44845424 72.26351062 88.22124808)
5(29.50221517 44.57926639 63.08135874 84.70439599 102.7568355)
5(35.20359772 52.7090097 74.1953648 98.75295791 118.9699021)
5(41.82066085 62.00813141 86.72826644 114.2901507 136.667139)
5(49.39195632 72.45233058 100.6043493 131.3788016 155.6129166)
5(57.92059988 83.97084976 115.7581492 149.5778335 175.4420253)
5(67.38101615 96.48173888 132.0216876 168.604891 195.7815733)
5(77.82801324 109.8889922 148.9866323 188.0443003 216.0567061)
5(88.90724073 123.913342 166.3265631 207.3923998 235.7121156)
5(100.7317313 138.3779333 183.720399 226.0862874 254.3475925)
5(112.9649693 152.9049926 200.7201251 243.642913 270.5299013)
5(125.3009848 166.8838074 216.7354299 259.4041743 284.2820633)
5(137.5414522 180.0241094 231.0754623 272.6293921 294.9751036)
5(149.1383132 191.8145314 242.9480366 282.6014845 301.4324843)
5(160.0868335 201.6993427 251.9775605 288.9076507 303.253648)
5(168.9132679 209.3173655 257.5731966 290.6058563 299.8945942)
5(176.4135547 214.0954069 259.0446503 287.271465 291.3629319)
5(181.5020497 214.9254428 255.6886399 278.8818468 276.2353838)
5(183.3086094 211.8547984 247.463867 264.6370094 256.836683)
5(181.8119696 204.2803743 234.0373803 244.2058367 230.0800616)
5(176.0188941 191.9700933 214.2636132 217.7632953 197.7811094)
5(166.2059311 174.5823582 188.9088721 185.1972504 159.8661349)
5(152.1686147 151.2810037 158.4415581 146.9263854 117.9368519)
5(132.7436904 123.3850481 122.5023037 104.7402066 72.71962916)
5(110.4186096 92.20151325 81.94259534 58.61707193 22.50251477)
5(84.31624087 56.63260931 37.0402012 9.748541321 -25.00814493)
5(56.87993526 19.09027354 -9.511784945 -39.0262636 -71.74369459)
5(26.2486035 -20.76505515 -56.25536919 -86.55694942 -121.6308633)
5(-5.755406729 -60.73795043 -101.7369005 -130.4957355 -154.3420331)
5(-37.55463694 -97.4931063 -143.2457107 -170.5759624 -184.6147578)
5(-67.33606642 -131.796788 -177.1544215 -203.0446785 -203.4988037)
5(-86.86203201 -160.1110312 -206.2683529 -225.8026558 -217.3730629)
5(-110.8272785 -179.6453652 -227.0384816 -238.5665266 -217.8231704)
5(-128.2413595 -193.7095354 -236.5234941 -239.4487771 -206.6635241)
5(-141.4271462 -198.7712803 -233.7431157 -223.4079325 -187.393357)
5(-150.1719147 -198.9328807 -218.4081941 -202.1228961 -157.8377772)
5(-153.8657964 -188.5549664 -190.0714012 -171.556813 -124.924581)
5(-150.9723275 -165.9522469 -153.4610648 -136.3108987 -92.57108062)
5(-133.3978554 -133.6925246 -112.1543013 -95.4623525 -87.98482411)
5(-116.163104 -94.69161542 -65.98322204 -55.4528745 -34.92883342)
5(-84.09502457 -53.0023 -26.31415585 -21.34939889 -13.27462151)
5(-51.06814966 -14.13979813 4.084654736 6.714108134 -0.2971629619)
5(-17.57839673 10.95201988 32.19886841 25.80964952 17.54710412)
5(4.557241673 26.78878015 35.89942414 36.04244401 27.23952921)
5(-6.600056871 -1.458606939 1.573964046 10.14721953 7.995353543)
5(-12.70596503 -8.915711557 -8.001474578 -3.37169838 -1.509843023)
)


60
(
5(9.468232909 13.41562387 28.71218591 41.19739301 62.64331006)
5(8.635889888 13.37342264 23.26268518 34.43401451 48.86761359)
5(8.059777093 12.83761902 20.58807734 30.78123197 41.77595104)
5(7.83391088 12.50371659 19.70900239 29.27616866 38.86323851)
5(8.052823275 12.71298382 20.01520058 29.36784465 38.83407472)
5(8.62768041 13.46860666 21.09352606 30.5901806 40.37164838)
5(9.424040293 14.65577385 22.71367506 32.59385822 42.41702735)
5(10.50308652 16.36800618 24.96602083 35.50077838 45.48808505)
5(11.94157004 18.6510899 27.97638787 39.46593751 49.78331133)
5(13.85328246 21.60036041 31.99554274 44.71295942 55.84277152)
5(16.27253982 25.27600113 37.08078414 51.3777971 63.77894314)
5(19.33326811 29.79756447 43.36558054 59.59872538 73.76492931)
5(23.02219561 35.2383387 50.92532473 69.49549266 85.69748439)
5(27.50608904 41.731097 59.90481247 81.19608537 99.74236511)
5(32.7950746 49.38934569 70.43893254 94.81771857 115.8473833)
5(39.04568891 58.29959349 82.64877204 110.4185605 134.1616745)
5(46.35445004 68.56790822 96.59365667 127.949775 154.3174941)
5(54.76650232 80.2018943 112.2317154 147.3850018 176.3011717)
5(64.37712759 93.24961599 129.552278 168.5035677 199.8068616)
5(75.05551141 107.6260827 148.3395744 190.992833 224.3648123)
5(86.9907927 123.2182519 168.3604132 214.4807516 249.5601955)
5(99.93051018 139.8252537 189.2974978 238.438728 274.4771552)
5(113.8187173 157.1835838 210.7627312 262.2972655 298.7799526)
5(128.3779655 174.9769631 232.2422667 285.4991366 321.7991345)
5(143.5577509 192.7754143 253.1155157 307.3443159 342.9662288)
5(158.7327079 210.1473633 272.7212498 326.934477 360.2400658)
5(173.7455064 226.355451 290.2820863 343.6073656 373.8316398)
5(187.9241697 241.0302868 305.2413473 356.4595083 382.7113835)
5(201.3239392 253.4118689 316.7244797 364.7733074 386.3113413)
5(212.5160827 263.0255728 324.0332961 367.8768043 383.6443317)
5(221.7061254 268.9473156 326.5869547 365.2060736 374.4780679)
5(227.7933988 270.8199003 323.9101193 355.9833815 358.2467871)
5(230.7295628 268.4794605 315.2601 339.9943613 334.4755072)
5(229.7193681 260.7065375 299.9761802 316.9451468 306.2013896)
5(224.8167548 247.4699038 277.822344 286.593079 267.1222007)
5(214.9717511 228.7222094 249.3843232 249.1322593 221.7283333)
5(199.3619852 204.5139536 215.1044635 205.7135399 171.1087953)
5(180.7952341 175.8708089 174.71315 156.5184336 116.0142173)
5(157.3653251 141.8469035 129.2496562 102.8131188 55.1984821)
5(132.3895108 103.0232641 80.22491519 45.79668182 -6.365353577)
5(104.0403154 63.05223766 28.10386518 -12.50123453 -67.79265501)
5(73.30945204 21.26302599 -24.80802187 -71.1968196 -127.0800943)
5(44.34828175 -20.49269462 -77.57154009 -127.6829837 -182.1096658)
5(13.03433655 -57.9736686 -123.7801259 -180.0416526 -229.8861607)
5(-16.86668429 -94.25850285 -164.4367372 -226.4305623 -271.4852716)
5(-40.72855597 -125.3912545 -200.6338532 -263.3143051 -296.9562629)
5(-63.30142281 -150.1190928 -230.7481938 -287.8132952 -315.3796319)
5(-85.34284343 -170.1584816 -251.2627873 -300.3078156 -317.3654863)
5(-107.1956435 -186.338604 -258.5415182 -297.5142043 -298.3407196)
5(-120.0693318 -199.9862952 -255.1058888 -279.2439999 -265.1605824)
5(-130.7085923 -201.6355394 -238.1705523 -250.0297113 -239.747803)
5(-142.7689956 -201.2194186 -208.9630988 -210.9371433 -187.7253271)
5(-136.6884317 -176.0519949 -174.2093448 -159.893088 -140.0734502)
5(-129.55509 -148.8789318 -124.6268445 -114.8572455 -92.75272016)
5(-116.6124835 -114.7065371 -72.659392 -58.28842903 -52.17147038)
5(-97.9930125 -69.1576717 -19.76141771 -12.65405024 -44.68416438)
5(-68.10004452 -35.19454504 12.41256832 22.61706037 15.57767597)
5(-48.68912596 -1.916941334 29.50584396 36.8939696 27.91409501)
5(-24.52196513 -13.14308267 -3.759777465 6.94363334 8.23480315)
5(-28.84883636 -19.34133585 -9.803015583 -8.940450258 -5.358210729)
)


60
(
5(12.07801649 17.70523887 36.86625519 54.47129044 81.53191751)
5(11.29880011 17.80539566 30.78843515 46.60217897 65.85143874)
5(10.64294724 17.13010772 27.66807976 42.03610073 57.27759643)
5(10.34744222 16.64515621 26.57384918 40.01914294 53.59831177)
5(10.58761538 16.86160584 26.9092624 39.93265881 52.98079778)
5(11.31247561 17.79932105 28.1838889 41.21772698 54.34314136)
5(12.32987146 19.30766236 30.16616359 43.47514524 56.54045759)
5(13.71086193 21.45916829 32.95245307 46.88296597 59.98842919)
5(15.58990493 24.32013697 36.66113657 51.5892464 65.07840211)
5(18.00649358 27.97752063 41.57656909 57.89981107 72.28800471)
5(21.10512118 32.51976673 47.78101983 65.91212847 81.88422096)
5(24.91297645 38.06063357 55.4384919 75.81568162 93.91007686)
5(29.52734647 44.70014441 64.59652174 87.73862679 108.3887117)
5(35.03519217 52.61749209 75.48137558 101.8455551 125.2412903)
5(41.56458152 61.88678488 88.18496686 118.1903733 144.6449872)
5(49.2423425 72.65654276 102.8742873 136.8487845 166.4031172)
5(58.13373317 84.97009576 119.5822299 157.7959629 190.5469834)
5(68.37662219 98.96678371 138.286978 180.9367877 216.7050862)
5(79.91283214 114.5973315 158.8938835 205.9691062 244.6376095)
5(92.88582427 131.7804888 181.1811195 232.6462804 273.7197191)
5(107.1809433 150.380488 204.9594403 260.45134 303.4444143)
5(122.631309 170.0788616 229.7719041 288.8609536 333.3648189)
5(139.2872254 190.75672 255.1723681 317.2730475 362.2706842)
5(156.84899 211.9523148 280.5330397 344.9237242 389.8466783)
5(174.5752183 233.096915 305.2698025 371.1725014 414.6317254)
5(192.887333 253.5375505 328.6783395 395.1337674 436.813302)
5(210.7989643 272.9731555 349.9634739 415.7016155 453.984762)
5(228.2541947 290.7016889 368.3381535 431.8044931 465.7277147)
5(244.0538953 305.9618779 382.4715075 442.9515777 472.2270957)
5(256.9131841 317.8774527 391.941699 448.4870484 470.4369762)
5(267.9009959 326.0757627 396.1699349 447.082946 463.5110697)
5(276.6086882 329.9793425 394.536641 438.374847 448.6652774)
5(281.0049793 328.6096461 386.3360455 422.1689901 421.8624571)
5(280.5839244 321.3691257 371.1801275 398.1615923 388.8209713)
5(276.0950455 308.4516384 349.2752829 366.2825806 348.7624519)
5(267.4091396 289.762809 319.7879564 326.9164606 298.8715887)
5(253.9120719 265.7915021 283.4808225 280.6019239 242.5128573)
5(235.8516805 236.2705418 241.124868 226.8296964 178.2213663)
5(214.740695 202.247548 194.0392428 167.0032954 111.9187763)
5(189.4108065 165.2791731 142.9392886 104.2453441 39.87021539)
5(164.1329196 126.4591333 88.3991841 40.12482063 -35.54345498)
5(136.7123884 86.4872205 33.45056653 -25.58571112 -107.8925249)
5(108.582859 46.04137289 -18.11019686 -89.3470265 -178.9586426)
5(81.14666552 8.113721842 -66.99048814 -150.1329853 -238.9625272)
5(51.40331369 -26.978424 -111.8939468 -205.6265399 -298.7212304)
5(24.61005235 -59.39492032 -151.3377106 -251.8172392 -335.5755909)
5(0.498009275 -89.53030358 -184.7573727 -287.0898472 -372.6569183)
5(-19.42954583 -112.6695008 -210.2809103 -311.5742183 -380.9005174)
5(-43.45972067 -133.6491696 -231.3150562 -321.7358812 -390.4772728)
5(-63.67305052 -153.0653271 -243.3314196 -319.344389 -366.1390808)
5(-72.85057056 -167.6141947 -245.8656631 -301.9462021 -327.3044831)
5(-84.13071962 -174.2486437 -237.9851509 -272.8085665 -280.0464233)
5(-96.88195992 -171.0264329 -223.5899625 -225.5938406 -221.9984836)
5(-105.7705598 -165.7200034 -182.7165254 -174.0071974 -175.4752583)
5(-106.9484945 -153.0033043 -148.1392221 -108.1740138 -113.1611019)
5(-102.137964 -123.1861227 -93.00108667 -47.28941759 -39.30384494)
5(-92.05358106 -90.60775081 -39.08027059 -2.040890564 -17.52764436)
5(-70.45363804 -56.22211984 -9.086029409 27.95656166 30.53154969)
5(-42.27507295 -34.31641124 -16.26926624 -4.209184564 5.07803619)
5(-41.97236224 -44.97992351 -44.74626724 -22.36184674 -12.25877435)
)


60
(
5(14.97676252 22.49876399 45.94623414 69.5512102 102.7435578)
5(14.28285639 22.83107174 39.37322194 60.59569856 85.37970711)
5(13.54916206 22.01368057 35.80474703 55.08857252 75.17620774)
5(13.18898842 21.36152085 34.45757559 52.41996741 70.37568755)
5(13.47166047 21.58523022 34.75848952 52.00381468 69.02294662)
5(14.32643406 22.7391309 36.21372626 53.22958273 70.03950237)
5(15.60411369 24.56464507 38.57669129 55.69990596 72.22874081)
5(17.34284799 27.1736607 41.85359631 59.50278289 75.92194621)
5(19.64940552 30.61364243 46.24815355 64.91039448 81.69442292)
5(22.64568221 34.99315913 52.01458737 72.15159876 90.10460036)
5(26.39246643 40.41256307 59.3473369 81.50678351 101.280035)
5(31.02164834 46.98724879 68.31364528 93.0490872 115.3295737)
5(36.57057214 54.85199728 79.120491 106.9628198 132.12285)
5(43.19845869 64.17328015 91.84836572 123.3552699 151.8141931)
5(50.94966305 75.08156477 106.7534471 142.3976656 174.3189699)
5(60.09522296 87.70356867 123.8960065 164.056854 199.5885466)
5(70.57363087 102.1520417 143.3890562 188.3008309 227.4066081)
5(82.70106544 118.4694169 165.0802045 214.9865016 257.7605846)
5(96.22012705 136.6669963 188.9356184 243.8616857 289.7967631)
5(111.4169849 156.592502 214.7086787 274.5290268 323.2075476)
5(127.9877753 178.0971213 242.1755037 306.5722831 357.5165344)
5(146.0598267 200.899228 270.8136297 339.2948857 392.0596718)
5(165.6134309 224.7823787 300.1268129 372.2535429 426.5119294)
5(185.6785478 249.188424 329.5089185 404.3917998 458.3736802)
5(206.6131482 273.665021 358.2348436 435.0687504 488.2392391)
5(227.8118029 297.7865041 385.4200743 463.1191578 514.1240614)
5(248.4148466 320.8330045 410.1973947 487.5783506 536.1925155)
5(268.9753126 341.7845753 431.7267812 507.7328824 551.606689)
5(286.4222271 359.5897036 449.029608 522.6973199 562.3330194)
5(303.5510107 373.8426837 461.2804641 530.9534106 563.9243823)
5(316.8358823 384.6650365 468.0338622 531.7485486 558.5712579)
5(326.7788416 390.5452828 468.4340205 524.7246378 542.0873964)
5(332.919794 390.7927649 461.7691134 509.6970658 518.0010134)
5(334.9131488 385.4586508 447.5767602 486.1347258 482.5178959)
5(332.8793838 374.0863904 425.9629907 454.2829965 440.2745346)