/*--------------------------------*- C++ -*----------------------------------*\
| =========                 |                                                 |
| \\      /  F ield         | OpenFOAM: The Open Source CFD Toolbox           |
|  \\    /   O peration     | Version:  2.3.1                                 |
|   \\  /    A nd           | Web:      www.OpenFOAM.org                      |
|    \\/     M anipulation  |                                                 |
\*---------------------------------------------------------------------------*/
FoamFile
{
    version     2.0;
    format      ascii;
    class       dictionary;
    location    "constant";
    object      la_r22;
}
// * * * * * * * * * * * * * * * * * * * * * * * * * * * * * * * * * * * * * //

la_r22_table
60
(

60
(
5(1.305364493e-08 2.400586096e-09 1.146018892e-08 4.072879225e-09 5.405965661e-09)
5(2.635898159e-09 1.186494167e-10 2.446648402e-09 1.120244116e-09 1.296918701e-09)
5(-2.631207942e-11 1.401388561e-10 3.491511269e-10 1.430984653e-10 -6.321929944e-15)
5(1.752193207e-10 -4.745634332e-11 1.532366002e-10 -2.852011152e-13 1.110236285e-10)
5(1.594037607e-10 -1.341248547e-10 -1.092187477e-11 7.09721912e-12 4.405518412e-11)
5(3.34627856e-09 -1.211068315e-10 -5.055371145e-11 -1.073902212e-10 -3.909357648e-11)
5(-2.079935203e-10 -7.465928804e-11 -1.748358724e-10 -6.558123257e-11 -9.978029425e-11)
5(-3.764688932e-11 -2.831287295e-11 -1.276597748e-10 -4.241573703e-11 -1.738789679e-11)
5(5.177477798e-09 -3.849109445e-12 -1.46556788e-10 -1.031398506e-11 -1.007127201e-12)
5(4.744633812e-09 -2.750120736e-10 -3.267579811e-10 -6.461375959e-11 -2.822097277e-13)
5(2.877208795e-09 -1.249992747e-09 -7.919965909e-10 -3.292496393e-10 -3.732293699e-11)
5(1.99314634e-09 -2.961423377e-11 -7.706920993e-10 -1.845002943e-11 -1.758810312e-10)
5(-2.212908318e-11 -1.925984511e-11 -2.142108331e-11 -1.273026617e-11 -9.61872208e-12)
5(-1.665786595e-11 -8.319901149e-12 -1.294843161e-11 -2.593563489e-12 -1.917120574e-12)
5(-8.260198166e-12 -1.975789682e-11 -4.664695507e-12 -1.110796998e-12 -5.016856507e-13)
5(-1.356707129e-10 -4.612450495e-08 -7.254626746e-10 -1.238113598e-09 -1.382176518e-10)
5(-1.010460761e-09 -6.214550904e-08 -1.640856079e-09 -8.93665478e-10 -5.990037855e-13)
5(-1.105049884e-09 -6.750405794e-08 -6.702238134e-11 -4.94153483e-12 -3.164825952e-13)
5(2.572136529e-13 -4.206114463e-08 -4.929624549e-12 -1.446089309e-12 -1.165942693e-10)
5(-1.365617365e-13 -4.798392668e-12 -2.784100133e-12 -2.606381832e-12 -1.518018847e-10)
5(-1.005719514e-12 -5.365675673e-11 3.193225386e-13 -2.139711625e-12 -1.2491693e-11)
5(1.065423872e-12 -1.855270483e-12 -4.608609513e-11 -8.09807797e-13 -1.461743139e-13)
5(-1.768324147e-12 -1.231901101e-12 -5.256334343e-11 -2.813159435e-13 -5.688103868e-13)
5(-5.882202726e-13 -9.343503187e-13 -5.995401421e-13 -3.705205382e-13 -6.207108099e-14)
5(-3.449516882e-11 -5.223531041e-11 -1.363516238e-13 -2.597224477e-13 -7.677257497e-13)
5(-7.940861457e-11 -1.861536085e-10 -1.51426956e-12 -2.624292852e-13 -6.078552401e-14)
5(-4.173769195e-13 -1.748417503e-10 -2.064728177e-12 -1.422073801e-12 -8.091833655e-13)
5(-9.16374272e-13 -1.900509298e-12 -1.424827814e-12 -2.233780457e-12 -6.655868237e-14)
5(-1.325098518e-11 -9.486187731e-12 -5.431731618e-12 -7.616093558e-12 -3.299336002e-12)
5(-1.320672401e-11 -1.401687018e-11 -2.061992641e-11 -2.970514412e-11 -5.389503383e-13)
5(-3.550233442e-11 -5.504474415e-11 -4.456659908e-11 6.632888294e-11 -3.650394163e-11)
5(-4.327614127e-11 -4.918202835e-11 -6.452184423e-11 2.012199051e-10 -1.778900693e-10)
5(-2.429459639e-10 -6.489654754e-10 -4.387056493e-10 5.073441606e-11 -7.655025785e-10)
5(-8.376124388e-10 -1.527395833e-09 -1.372358925e-09 -1.66414929e-10 -1.442926273e-10)
5(-1.994090193e-09 -5.76864284e-10 -3.774154914e-09 -6.797731038e-10 -4.428646958e-09)
5(-3.850937407e-09 -6.201673686e-10 -3.324471857e-09 -2.234771276e-09 -7.745142797e-09)
5(-6.573026428e-09 -2.011818226e-09 -3.879999984e-09 -1.205316872e-09 -6.142945558e-09)
5(-6.007365444e-09 -7.536905776e-09 -1.005317187e-08 -1.346939959e-08 -1.008933619e-08)
5(-7.276784804e-09 -6.782741511e-09 -5.082684613e-08 -1.84966763e-08 -2.57111586e-08)
5(-1.849708311e-08 -1.008360904e-08 5.690171978e-09 -1.801667038e-08 -2.086787674e-10)
5(-1.826490081e-08 -3.140961534e-08 7.412106127e-08 -2.320818881e-08 -2.951211645e-10)
5(5.447153058e-10 -7.199737703e-08 5.450051762e-08 -1.518303845e-07 2.271094813e-18)
5(2.597480817e-09 -3.999325348e-09 -1.617275036e-08 8.390818831e-18 1.828092146e-17)
5(-3.2767883e-08 5.097668114e-08 -8.389059116e-08 9.596264671e-18 -1.412617638e-08)
5(-3.166608904e-08 4.729488707e-08 -1.028236475e-07 6.625539537e-18 -1.161861921e-09)
5(-3.429606688e-08 -7.14422085e-09 -5.812296389e-09 5.807033269e-18 2.584858434e-18)
5(1.045789168e-09 -4.883392539e-08 -1.089487463e-08 -8.833254831e-09 6.98338757e-19)
5(-1.123617346e-07 -1.353182603e-09 -8.07254151e-09 6.049918508e-19 1.363296225e-19)
5(-5.763171606e-09 -2.502660247e-10 -2.140200507e-09 9.185396603e-20 1.590508225e-20)
5(-1.384015973e-09 -4.398263421e-11 -2.479721574e-20 1.629085775e-20 1.448228401e-21)
5(-6.254151907e-10 -1.78643026e-20 3.216688163e-20 1.600580955e-21 3.95651106e-23)
5(-6.402792623e-10 5.298587276e-21 1.24361064e-21 1.76448938e-22 6.056097689e-24)
5(-3.82301257e-13 -9.578659268e-21 1.405528638e-22 1.193725908e-23 2.948034449e-25)
5(7.354923169e-22 -1.379184885e-22 -2.88082391e-24 -5.075538676e-26 3.498184401e-27)
5(-1.109535891e-23 -6.267552954e-24 5.202845806e-26 1.801687484e-26 7.377793539e-28)
5(-4.294633245e-22 9.917288692e-25 2.24609191e-27 -8.345717115e-25 2.199348452e-28)
5(-7.436340585e-24 2.463739672e-23 -4.48722578e-26 4.223891835e-22 2.805335326e-28)
5(-3.558497154e-26 -2.042087794e-17 4.356021188e-25 -2.372592766e-19 -1.937950909e-26)
5(-3.11446321e-27 2.163519847e-15 2.620503566e-18 -1.937980907e-18 -5.454959383e-28)
5(2.68446817e-31 2.765030784e-30 2.85269572e-24 2.325088428e-28 1.05202178e-27)
)


60
(
5(6.059906129e-08 1.8308474e-08 4.091799955e-08 1.689379622e-08 1.404594073e-08)
5(2.656160827e-08 1.366549796e-08 1.834101108e-08 1.077286086e-08 7.802290058e-09)
5(1.02861005e-08 5.982261314e-09 9.044484412e-09 6.421468687e-09 4.752438419e-09)
5(-7.478437061e-10 -2.177350676e-09 3.158253641e-09 2.716623575e-09 2.957472568e-09)
5(-1.036420441e-08 -8.2654966e-09 -2.075688429e-09 -2.381198498e-10 1.693956494e-09)
5(-1.582171133e-08 -9.525450608e-09 -5.089514532e-09 -1.59888152e-09 1.29128403e-09)
5(-1.372268595e-08 -6.345599373e-09 -4.997023708e-09 -8.432041376e-10 1.507490626e-09)
5(-8.160495308e-09 -3.6103133e-09 -2.988523991e-09 -1.626808127e-09 3.278948325e-11)
5(-5.903013166e-09 -8.128760724e-09 -6.564735328e-09 -8.088026928e-09 -5.812826414e-09)
5(-1.068043551e-08 -1.87832977e-08 -1.69468996e-08 -1.621883707e-08 -1.255170244e-08)
5(-2.382980787e-08 -2.136876455e-08 -2.147056393e-08 -1.510661937e-08 -1.163808489e-08)
5(-2.155135082e-08 -1.420919103e-08 -1.4383727e-08 -7.672606391e-09 -5.13892661e-09)
5(-1.496568531e-08 -7.065348183e-09 -6.532739728e-09 -2.970681438e-09 -1.590626762e-09)
5(-6.492327525e-09 -3.370156295e-09 -2.810267135e-09 -1.236140574e-09 -6.399841742e-10)
5(-2.952509331e-09 -1.713673883e-09 -1.314331009e-09 -5.667287325e-10 -2.965974081e-10)
5(-2.132440346e-09 -9.468944501e-10 -6.784323653e-10 -2.825293461e-10 -1.69824144e-10)
5(9.364324575e-10 -5.355512543e-10 -3.664069828e-10 -1.485560832e-10 4.263540245e-11)
5(-1.830906584e-10 -3.18578509e-10 -2.068943261e-10 -8.127783164e-11 -1.14871683e-10)
5(8.430202814e-11 -1.947875093e-10 -1.212447668e-10 -4.636767638e-11 -2.237020373e-11)
5(-1.152457972e-09 -1.282338644e-10 -7.367248499e-11 -2.737961994e-11 -3.742639357e-11)
5(1.108159562e-09 -8.651845956e-11 -4.632749251e-11 -1.652219577e-11 2.438797428e-12)
5(1.257461331e-10 -5.852856224e-11 -2.955484361e-11 -1.016667565e-11 -1.004122694e-10)
5(-7.868953389e-09 -4.02058246e-11 -1.933527288e-11 -6.328909876e-12 -3.727468079e-11)
5(-3.621594147e-09 -2.840955354e-11 -1.287810369e-11 -4.039046796e-12 -8.017766844e-11)
5(-1.532276356e-09 -2.004195917e-11 -8.614355172e-12 -2.689791077e-12 -3.363883577e-11)
5(-1.998001508e-09 -1.445370876e-11 -5.976681995e-12 -1.929503771e-12 -4.264237911e-11)
5(2.623217019e-10 -1.047929724e-11 -4.281262778e-12 -1.630583781e-12 -9.760592834e-11)
5(-1.520681749e-09 -7.925055845e-12 -3.480567488e-12 -1.796631425e-12 -2.561940122e-10)
5(-9.164612285e-10 -6.464365869e-12 -3.499472819e-12 -2.532651499e-12 -1.597166321e-10)
5(-5.681781749e-10 -6.247095617e-12 -4.462213473e-12 -4.023838469e-12 -9.582832644e-10)
5(-4.003830428e-10 -7.430244581e-12 -6.723349464e-12 -6.594244505e-12 -4.977965143e-10)
5(-1.331809519e-09 -1.037538308e-11 -1.052983649e-11 -1.032410964e-11 -3.408529983e-10)
5(-2.775110455e-09 -1.520439184e-11 -1.602913407e-11 -1.510242232e-11 -8.329738057e-09)
5(-2.556940243e-09 -2.214164216e-11 -2.284041216e-11 -2.000984387e-11 -6.914856104e-09)
5(-6.692620741e-09 -3.018439257e-11 -2.927154616e-11 -2.248115377e-11 -1.281526072e-08)
5(-2.934051313e-09 -3.635357514e-11 -3.205760063e-11 -1.923021924e-11 -3.091291551e-08)
5(-3.767236947e-08 -3.623311404e-11 -2.547179199e-11 -7.0991719e-12 -6.170788104e-08)
5(-2.226311164e-08 -2.324007683e-11 -3.988644757e-12 1.53994515e-11 -9.512168736e-08)
5(-2.783150636e-08 8.217763445e-12 3.326279086e-11 4.559666209e-11 -1.039978246e-07)
5(-4.083661599e-08 5.392865915e-11 7.612816933e-11 7.037125374e-11 -3.068563108e-08)
5(-7.259859088e-08 1.056327065e-10 1.104069331e-10 7.783906218e-11 -1.34486372e-07)
5(-2.197734406e-07 1.427469024e-10 1.148090704e-10 5.702514878e-11 -6.756592812e-08)
5(-1.135479669e-07 1.404892808e-10 8.307054978e-11 1.740311965e-11 -2.364468725e-07)
5(-3.309366234e-08 9.315134176e-11 2.635743755e-11 -1.610157578e-11 -9.247776397e-08)
5(-1.018843075e-07 1.908142618e-11 -2.697690875e-11 -2.916684517e-11 -6.379614037e-08)
5(-2.950079857e-07 -4.145457978e-11 -5.042667158e-11 -2.28087235e-11 -2.184126876e-09)
5(-7.002068132e-07 -6.741556438e-11 -4.39466457e-11 -1.150084849e-11 -7.335705415e-10)
5(-4.715496428e-07 -5.593838583e-11 -2.368150328e-11 -3.883998294e-12 -1.073095175e-09)
5(-5.992893471e-07 -3.025773565e-11 -8.262405439e-12 -8.437063198e-13 -1.173194671e-10)
5(-1.235944036e-07 -1.083013942e-11 -1.863584373e-12 -1.094203637e-13 -2.321660514e-11)
5(-6.926732845e-08 -2.420677269e-12 -2.61932988e-13 -8.172566262e-15 -8.866864113e-12)
5(-7.49826936e-09 -3.219072885e-13 -2.060639019e-14 -4.220076398e-16 -6.005740449e-13)
5(-8.222001099e-09 -2.409944681e-14 -9.992870725e-16 -2.737576583e-17 -1.487913102e-14)
5(-3.842891362e-10 -9.020976088e-16 -3.437655689e-17 -2.340032897e-18 -1.923477269e-17)
5(-9.184246591e-12 -1.415272102e-17 -9.728289371e-19 -2.849006437e-19 -1.241328828e-17)
5(-4.382149332e-14 8.524041022e-17 -6.192844359e-20 -5.775744595e-17 -6.82311651e-19)
5(-1.551902304e-16 9.388322585e-15 9.632371192e-18 -1.710786771e-14 9.518922944e-19)
5(-2.12966841e-17 -4.228181643e-13 -1.889137893e-17 -4.397522246e-12 2.051383662e-16)
5(7.864095218e-16 -8.168740614e-12 5.586053183e-14 -2.079124641e-12 -2.630901172e-16)
5(4.393511183e-29 -8.537147177e-16 1.815962527e-13 -3.891705302e-16 -2.265112739e-26)
)


60
(
5(1.966771696e-07 6.764955565e-08 1.105960679e-07 4.68563693e-08 3.024190133e-08)
5(1.260643519e-07 6.443784227e-08 6.718138463e-08 3.747282954e-08 2.21019318e-08)
5(6.25009042e-08 3.735316282e-08 4.178054319e-08 2.751302562e-08 1.698183536e-08)
5(1.876005254e-09 -3.563196952e-10 1.99866143e-08 1.69857114e-08 1.354649943e-08)
5(-5.431324648e-08 -3.122831771e-08 -4.083281707e-11 8.617104365e-09 1.164308978e-08)
5(-9.078970631e-08 -4.184798047e-08 -1.085314752e-08 6.164771709e-09 1.219158608e-08)
5(-8.309068069e-08 -2.99453875e-08 -7.261701736e-09 7.369973461e-09 1.250272151e-08)
5(-4.760758186e-08 -2.277749822e-08 -8.436109964e-09 -4.853518563e-09 2.347502931e-09)
5(-3.671188969e-08 -6.835709458e-08 -4.862575105e-08 -5.072433054e-08 -3.016520132e-08)
5(-1.213705577e-07 -1.706035877e-07 -1.354505914e-07 -1.070884388e-07 -6.568434528e-08)
5(-2.790334697e-07 -2.126458849e-07 -1.769796533e-07 -1.069677207e-07 -6.629234422e-08)
5(-2.647838504e-07 -1.540690133e-07 -1.252884255e-07 -5.789316853e-08 -3.098523254e-08)
5(-1.766014616e-07 -7.891281627e-08 -5.839762303e-08 -2.281315067e-08 -1.118078709e-08)
5(-1.138843561e-07 -3.718516474e-08 -2.462023419e-08 -9.057810936e-09 -5.327722207e-09)
5(-4.324219428e-08 -1.864423065e-08 -1.143204409e-08 -4.135249102e-09 -1.635925919e-09)
5(5.758261778e-11 -1.026822151e-08 -5.816494158e-09 -2.080891198e-09 -1.082126415e-09)
5(-2.373967377e-09 -5.924800213e-09 -3.193438281e-09 -1.108076239e-09 -5.695814823e-10)
5(-5.544496961e-09 -3.601197947e-09 -1.818033447e-09 -6.103373489e-10 -7.339167557e-10)
5(-1.779870439e-08 -2.256869031e-09 -1.087045832e-09 -3.543416292e-10 -4.75348571e-10)
5(-3.298182106e-09 -1.464195888e-09 -6.637236576e-10 -2.108192722e-10 -4.243822864e-10)
5(-8.083645835e-08 -9.722532437e-10 -4.186200332e-10 -1.29242857e-10 -3.056332833e-10)
5(-1.546428918e-08 -6.611368765e-10 -2.697626648e-10 -8.104052977e-11 -1.085393011e-10)
5(-8.724773799e-08 -4.583397362e-10 -1.776301692e-10 -5.160547052e-11 -2.549700309e-10)
5(-1.875301659e-10 -3.229723668e-10 -1.18193821e-10 -3.320542452e-11 -7.439237886e-11)
5(-5.430065447e-08 -2.302025798e-10 -7.963623401e-11 -2.188028639e-11 -2.020172035e-10)
5(-1.764591574e-08 -1.662137197e-10 -5.420729626e-11 -1.480499963e-11 -2.603193878e-10)
5(-1.024893641e-08 -1.204707359e-10 -3.733585411e-11 -1.053972531e-11 -2.121748077e-10)
5(-4.64178657e-08 -8.804271985e-11 -2.63976531e-11 -8.517698464e-12 -4.576954961e-10)
5(-1.066227948e-08 -6.509848585e-11 -2.003758397e-11 -8.495243835e-12 -4.785895296e-10)
5(-1.296344542e-08 -4.998460931e-11 -1.755199545e-11 -1.074759807e-11 -3.307522192e-09)
5(-2.253520662e-08 -4.098798711e-11 -1.888431568e-11 -1.573965525e-11 -7.042491938e-10)
5(-3.010474886e-08 -3.833528676e-11 -2.454274105e-11 -2.407622057e-11 -4.568229623e-09)
5(-1.401425317e-08 -4.191724507e-11 -3.494928873e-11 -3.598375912e-11 -1.078832871e-09)
5(-1.655787128e-08 -5.105143918e-11 -4.969764466e-11 -4.905005397e-11 -2.315951082e-08)
5(-9.590989068e-09 -6.493558291e-11 -6.634757754e-11 -6.039443139e-11 -8.022207761e-09)
5(-9.069591613e-08 -7.947917212e-11 -7.776733089e-11 -6.237285344e-11 -5.576409911e-08)
5(-1.58718425e-07 -8.578885327e-11 -7.483009932e-11 -4.465387957e-11 -1.15174655e-07)
5(-3.858192596e-08 -7.280298839e-11 -4.315944376e-11 1.473412023e-12 -5.784694719e-08)
5(-1.908624071e-07 -2.886751978e-11 2.899930787e-11 7.57515892e-11 -3.293128663e-08)
5(-1.230371975e-07 5.567321658e-11 1.28484551e-10 1.608252812e-10 -1.883431471e-07)
5(-1.89134161e-07 1.744388092e-10 2.347087289e-10 2.250529127e-10 -1.933001539e-07)
5(-1.715037957e-07 2.835054437e-10 3.049654804e-10 2.334429609e-10 -8.38940679e-08)
5(-1.308508125e-07 3.407786177e-10 2.967973699e-10 1.696822777e-10 -2.396132494e-07)
5(-1.329649323e-07 3.028494337e-10 1.906216515e-10 5.415534726e-11 -5.810950526e-07)
5(-4.517521153e-07 1.738615358e-10 3.831245474e-11 -4.566657444e-11 -3.907860068e-07)
5(-2.494987095e-08 9.276743962e-12 -8.541106206e-11 -8.986802733e-11 -6.731426671e-08)
5(-6.518970954e-07 -1.185953289e-10 -1.348345265e-10 -7.928181085e-11 -2.176686027e-07)
5(-5.503333164e-07 -1.545047579e-10 -1.102467814e-10 -4.507425142e-11 -1.346014672e-08)
5(-6.657592106e-07 -1.176011373e-10 -5.962874133e-11 -1.755378482e-11 -1.266062613e-08)
5(-7.322075334e-07 -6.120729265e-11 -2.180635824e-11 -4.7003392e-12 -5.058234124e-09)
5(-7.904123541e-07 -2.133905701e-11 -5.34247819e-12 -8.262374723e-13 -1.811888145e-10)
5(-2.111777145e-07 -4.760903982e-12 -8.249835392e-13 -9.400788798e-14 -8.86687869e-11)
5(-3.460206517e-08 -6.370689608e-13 -7.449805897e-14 -6.76375574e-15 -3.823640814e-13)
5(-6.684632786e-10 -4.617746449e-14 -3.796164241e-15 -3.271394878e-16 -3.314839913e-14)
5(-2.802955059e-10 -1.624469974e-15 -1.041148231e-16 -1.370334129e-18 -2.438769013e-15)
5(-1.812313985e-11 3.317519465e-15 -1.328251991e-17 2.456675805e-15 -3.75411519e-17)
5(-8.03537763e-14 9.40053619e-13 -3.873498274e-15 6.702422584e-13 -9.13641351e-17)
5(6.709286045e-14 3.239447461e-10 -1.214971341e-12 2.096692485e-10 -2.250336693e-14)
5(1.037079277e-11 -6.710765621e-08 -5.190473051e-12 -2.364399761e-08 -5.779909634e-12)
5(-1.958889295e-26 4.91624144e-08 8.377478287e-13 3.601368366e-10 -6.509667135e-26)
)


60
(
5(5.055600112e-07 1.870884458e-07 2.461345317e-07 1.065573449e-07 5.839742463e-08)
5(4.104480116e-07 2.123616996e-07 1.871377715e-07 1.013206874e-07 5.23276644e-08)
5(2.495428284e-07 1.509456831e-07 1.381182305e-07 8.657168926e-08 4.691382826e-08)
5(4.424841799e-08 3.919296421e-08 8.555843276e-08 6.571232704e-08 4.307860993e-08)
5(-1.699626573e-07 -6.21717195e-08 3.232257618e-08 4.811627466e-08 4.183677773e-08)
5(-3.049112211e-07 -1.045019572e-07 4.940043295e-09 4.520553948e-08 4.596984704e-08)
5(-2.833321015e-07 -6.532463722e-08 1.770137524e-08 4.917020355e-08 4.679933875e-08)
5(-1.47390664e-07 -5.187123668e-08 6.766171265e-09 4.999748217e-09 1.42094293e-08)
5(-1.963076951e-07 -2.652102178e-07 -1.628188245e-07 -1.574341489e-07 -8.526682169e-08)
5(-6.685064512e-07 -7.088610798e-07 -5.219648936e-07 -3.846665007e-07 -2.104294411e-07)
5(-1.332757175e-06 -1.02057558e-06 -7.726454387e-07 -4.303703716e-07 -2.332480874e-07)
5(-1.633451964e-06 -8.144983707e-07 -5.932773774e-07 -2.590098456e-07 -1.283570997e-07)
5(-1.160031808e-06 -4.3295831e-07 -2.819991724e-07 -1.049203383e-07 -4.237587364e-08)
5(-7.484098162e-07 -2.012238043e-07 -1.157428783e-07 -4.016115514e-08 -1.609009331e-08)
5(-2.674296156e-07 -9.897918116e-08 -5.195996319e-08 -1.755083134e-08 -5.761703576e-09)
5(-1.843356323e-07 -5.356592979e-08 -2.622056146e-08 -8.787150147e-09 -4.735498108e-09)
5(-1.148947237e-07 -3.097381853e-08 -1.424488349e-08 -4.681776633e-09 -7.852911116e-10)
5(-3.704768031e-08 -1.872318957e-08 -8.071976887e-09 -2.594748643e-09 -3.534549523e-09)
5(1.569285901e-08 -1.177198927e-08 -4.819114413e-09 -1.510363436e-09 -1.502780744e-09)
5(-1.971887783e-07 -7.612652141e-09 -2.94789519e-09 -8.997093661e-10 -7.930575231e-10)
5(-3.086179717e-07 -5.114527001e-09 -1.865210604e-09 -5.563703864e-10 -1.609727996e-09)
5(1.5872515e-07 -3.520903403e-09 -1.202053059e-09 -3.507246315e-10 2.937005254e-10)
5(1.873253523e-07 -2.459572657e-09 -7.953803034e-10 -2.25427566e-10 -8.845478086e-10)
5(-1.429538533e-07 -1.770551328e-09 -5.36613742e-10 -1.471344277e-10 -1.031579123e-09)
5(8.338530981e-08 -1.304154689e-09 -3.669337937e-10 -9.76975079e-11 -7.034949104e-10)
5(-7.397970288e-08 -9.732944905e-10 -2.526494965e-10 -6.600218166e-11 -5.121096095e-10)
5(7.278984499e-09 -7.357109235e-10 -1.76077947e-10 -4.55987539e-11 -1.38752128e-09)
5(-4.887879121e-07 -5.613936582e-10 -1.244723714e-10 -3.298493838e-11 -6.768185308e-10)
5(-2.141846822e-07 -4.353861508e-10 -9.021344742e-11 -2.662244931e-11 -2.80225997e-09)
5(-5.427147384e-08 -3.44276542e-10 -6.86854058e-11 -2.56276927e-11 -5.657381159e-10)
5(-2.027678794e-07 -2.754387508e-10 -5.823683065e-11 -3.047428819e-11 -5.959606109e-09)
5(-2.12796938e-07 -2.275802052e-10 -5.80310893e-11 -4.180396042e-11 -7.507925665e-09)
5(-3.431385427e-08 -1.971095583e-10 -6.743112558e-11 -6.051554142e-11 -2.426746108e-08)
5(-2.399602287e-07 -1.81346417e-10 -8.630883303e-11 -8.418215983e-11 -1.103271776e-08)
5(-4.714473787e-08 -1.80646296e-10 -1.125157209e-10 -1.097082185e-10 -1.388311137e-07)
5(-7.647519352e-08 -1.86808978e-10 -1.371844186e-10 -1.264304435e-10 -4.203695631e-08)
5(-1.446780022e-07 -1.913469032e-10 -1.487919994e-10 -1.159891524e-10 -1.287838772e-07)
5(-1.657865702e-07 -1.811955057e-10 -1.206423948e-10 -6.193215202e-11 -3.682757104e-07)
5(-2.845995808e-07 -1.286060077e-10 -3.734000161e-11 4.871051021e-11 -1.209909072e-07)
5(-2.554700295e-07 -1.662015751e-11 1.08795332e-10 2.077866862e-10 -5.469837919e-07)
5(-1.736843504e-07 1.483277625e-10 3.028433553e-10 3.695194446e-10 -1.707926967e-07)
5(-1.905583517e-07 3.460648125e-10 4.792447061e-10 4.676013223e-10 7.988516236e-09)
5(-1.897639547e-07 5.111160402e-10 5.5641708e-10 4.373067208e-10 -8.77216838e-07)
5(-2.682253929e-07 5.653676939e-10 4.832321348e-10 2.7830379e-10 -1.679821536e-06)
5(-1.833431807e-07 4.553075196e-10 2.776585953e-10 5.441202218e-11 -1.369689635e-06)
5(-2.987656396e-07 2.275164265e-10 1.150684471e-11 -1.165207582e-10 -1.348182252e-07)
5(-9.806837519e-07 -4.874729178e-12 -1.78500775e-10 -1.822622419e-10 -3.811958787e-07)
5(-1.600152217e-06 -1.899432888e-10 -2.23609437e-10 -1.542624506e-10 -8.962860202e-08)
5(-6.601566219e-07 -2.322678115e-10 -1.709909485e-10 -8.643611213e-11 -9.01313421e-08)
5(-1.280808621e-06 -1.66365681e-10 -8.844324932e-11 -3.336725968e-11 -5.443744368e-08)
5(-1.717376811e-06 -8.090216008e-11 -3.0187352e-11 -8.728235629e-12 -1.533967597e-08)
5(-7.514529073e-07 -2.668073991e-11 -6.901209032e-12 -1.517613167e-12 -1.090404915e-09)
5(-6.290988347e-08 -5.479215985e-12 -9.772444377e-13 -1.60825951e-13 -1.955077732e-10)
5(-4.56719969e-08 -6.724418403e-13 -7.755891047e-14 -1.063375229e-14 -6.158354215e-12)
5(-1.454158216e-09 -4.463858543e-14 -3.127110333e-15 -5.706844101e-16 -2.437952831e-13)
5(-1.874877164e-10 -2.964461902e-14 3.242602738e-16 -2.642045458e-14 -1.472006015e-14)
5(-3.138405486e-13 -6.109856806e-12 8.114709008e-14 -5.583019212e-12 1.168346181e-15)
5(-2.98525441e-13 -1.77848939e-09 2.374318062e-11 -1.566801662e-09 2.883469143e-13)
5(1.903682818e-11 4.443087168e-07 -2.243137891e-09 2.77373506e-07 6.396827003e-11)
5(1.026606511e-08 462.8005762 -1.326983361e-07 323.1650653 8.544182588e-10)
)


60
(
5(1.120264218e-06 4.254932599e-07 4.750427083e-07 2.096825804e-07 1.043821643e-07)
5(1.087020529e-06 5.493009022e-07 4.298868577e-07 2.299034587e-07 1.105781897e-07)
5(7.705057473e-07 4.534316629e-07 3.617124686e-07 2.201660545e-07 1.105896949e-07)
5(2.343188672e-07 2.0119124e-07 2.634125118e-07 1.901188589e-07 1.100658051e-07)
5(-3.717119322e-07 -5.476861397e-08 1.577865353e-07 1.613614925e-07 1.143044012e-07)
5(-7.903044217e-07 -1.544002357e-07 1.075407741e-07 1.607357049e-07 1.274531713e-07)
5(-7.984206345e-07 -7.385125773e-08 1.437000926e-07 1.70137558e-07 1.307707408e-07)
5(-4.299235997e-07 -2.837646055e-08 1.089096602e-07 6.885834735e-08 5.765845683e-08)
5(-5.114194011e-07 -6.088845672e-07 -3.653225357e-07 -3.398474644e-07 -1.779583745e-07)
5(-2.326246338e-06 -2.177253696e-06 -1.414445808e-06 -9.844996485e-07 -5.279241586e-07)
5(-5.387765965e-06 -3.396082839e-06 -2.259900287e-06 -1.262014197e-06 -6.221103111e-07)
5(-6.306332929e-06 -3.082095264e-06 -1.896281559e-06 -8.598122186e-07 -3.964899922e-07)
5(-5.055589229e-06 -1.734179788e-06 -9.840434103e-07 -3.689062043e-07 -1.435828238e-07)
5(-3.251496894e-06 -7.995929799e-07 -4.023122951e-07 -1.370690287e-07 -4.963257019e-08)
5(-1.769693636e-06 -3.851379088e-07 -1.734185092e-07 -5.747326557e-08 -2.631273394e-08)
5(-1.022642198e-06 -2.055438157e-07 -8.63812027e-08 -2.828200758e-08 -1.962327272e-08)
5(-7.350244902e-07 -1.181841959e-07 -4.690755376e-08 -1.495013841e-08 -3.675297576e-09)
5(-2.625117226e-07 -7.195260797e-08 -2.658629577e-08 -8.325563852e-09 -7.202874738e-09)
5(-3.841163512e-07 -4.557043154e-08 -1.578049e-08 -4.842105587e-09 -2.81413006e-09)
5(-4.408923741e-07 -2.988177298e-08 -9.710422893e-09 -2.895798847e-09 -5.804539476e-09)
5(-2.756547757e-07 -2.042761531e-08 -6.166244091e-09 -1.800551202e-09 -9.387022732e-10)
5(-6.582662497e-07 -1.437784869e-08 -4.038383441e-09 -1.141755605e-09 -3.093575151e-09)
5(-9.325101652e-07 -1.037629084e-08 -2.708914506e-09 -7.43741239e-10 -6.243949579e-09)
5(-2.025766734e-06 -7.739997753e-09 -1.865681089e-09 -4.939320022e-10 -1.275903446e-09)
5(2.799631372e-07 -5.922795398e-09 -1.307167091e-09 -3.327041035e-10 -1.527281265e-09)
5(-2.183832837e-06 -4.662195729e-09 -9.332985391e-10 -2.278984785e-10 -2.670782283e-09)
5(-2.258153996e-07 -3.714471095e-09 -6.783621771e-10 -1.580187157e-10 -9.684259534e-10)
5(-5.572957936e-08 -3.01371823e-09 -5.036733694e-10 -1.123108365e-10 -1.291217459e-09)
5(3.963187898e-07 -2.508557076e-09 -3.788570499e-10 -8.370350565e-11 -1.712230967e-09)
5(-1.720675946e-06 -2.10219541e-09 -2.914026616e-10 -6.805689447e-11 -3.461219063e-09)
5(-1.754581392e-06 -1.757784122e-09 -2.351499755e-10 -6.387074075e-11 -4.949741569e-09)
5(-4.348779868e-07 -1.498569431e-09 -2.013705614e-10 -7.210370862e-11 -3.703176085e-08)
5(-4.154447099e-07 -1.280533347e-09 -1.864727575e-10 -9.236859737e-11 -1.6793011e-08)
5(-7.839365427e-07 -1.101241008e-09 -1.899227578e-10 -1.243429728e-10 -4.159355972e-08)
5(-1.400546924e-06 -9.505802095e-10 -2.083132664e-10 -1.629944451e-10 -5.981316164e-08)
5(-2.032448733e-06 -8.214362303e-10 -2.357238636e-10 -1.976028315e-10 -2.084350973e-08)
5(-1.201179302e-06 -7.265482167e-10 -2.575828368e-10 -2.068463907e-10 -3.769329597e-08)
5(-9.168750146e-07 -6.276376026e-10 -2.44916145e-10 -1.657212122e-10 -3.12028406e-07)
5(-5.377725996e-07 -4.945569421e-10 -1.691444367e-10 -4.240889597e-11 -2.005816195e-07)
5(-3.518151386e-07 -3.191509351e-10 3.551026508e-12 1.715165985e-10 -8.527184976e-08)
5(-4.99079905e-07 -7.78714975e-11 2.589933712e-10 4.327361545e-10 -4.433539773e-07)
5(-2.060486483e-07 2.27655685e-10 5.489964338e-10 6.709839434e-10 -8.861899541e-07)
5(-2.368159402e-07 5.297214352e-10 7.822389556e-10 7.735878826e-10 -1.694248882e-07)
5(-3.27072893e-07 7.351175459e-10 8.277103342e-10 6.512395838e-10 -3.04741215e-07)
5(-5.397693391e-07 7.707811211e-10 6.703896461e-10 3.626487058e-10 -1.609067138e-06)
5(-1.386280926e-07 5.796640652e-10 2.915768748e-10 1.64380188e-11 -3.503257092e-06)
5(-8.00892007e-07 2.530946835e-10 -8.481413877e-11 -2.129444499e-10 -2.91702865e-06)
5(-2.136405681e-07 -8.520754693e-11 -3.088811006e-10 -2.967023443e-10 -1.81230698e-06)
5(-1.016411248e-06 -2.855191487e-10 -3.319040474e-10 -2.299138113e-10 -7.983329939e-07)
5(-2.758377043e-06 -3.006377137e-10 -2.272810926e-10 -1.211202468e-10 -6.35518017e-08)
5(-2.174182432e-06 -2.082823842e-10 -1.078645385e-10 -4.475900783e-11 -2.533928679e-08)
5(-2.198545761e-06 -1.02553265e-10 -3.478422391e-11 -1.117054884e-11 -6.908727604e-08)
5(-2.629060039e-06 -3.328601538e-11 -7.233712996e-12 -1.799901473e-12 -7.730027981e-10)
5(-9.9996978e-07 -7.165274559e-12 -9.201744036e-13 -1.712521207e-13 -5.531962906e-10)
5(-4.90361964e-08 -9.697206008e-13 -6.533132672e-14 -9.482193445e-15 -2.338701876e-11)
5(-2.352245326e-08 -1.163596724e-13 -2.30310893e-15 -3.452633064e-14 -2.85608165e-14)
5(-1.612175703e-09 -7.242507219e-12 4.00789691e-14 -5.525747673e-12 -1.852190412e-15)
5(-2.642434386e-11 -1.749268166e-09 8.494037666e-12 -1.121638932e-09 2.908567367e-13)
5(8.214181405e-11 3.132560364e-07 1.065756768e-12 1.038271676e-07 4.375358971e-11)
5(-8.361379757e-15 -1.497096955e-07 1.669881697e-11 -9.576047341e-10 1.603122137e-09)
)


60
(
5(2.232377595e-06 8.406637289e-07 8.267211768e-07 3.716243133e-07 1.761312597e-07)
5(2.514497448e-06 1.204169938e-06 8.614121935e-07 4.585997591e-07 2.136398539e-07)
5(1.973772162e-06 1.108255654e-06 8.042944619e-07 4.78047373e-07 2.313076524e-07)
5(7.958782746e-07 6.441292939e-07 6.589842484e-07 4.485621772e-07 2.456646845e-07)
5(-6.759445794e-07 1.2362395e-07 4.793044229e-07 4.124856203e-07 2.642668345e-07)
5(-1.901046193e-06 -1.465839263e-07 4.023133606e-07 4.233724959e-07 2.960653308e-07)
5(-1.867363233e-06 1.164965957e-09 4.743892046e-07 4.500532498e-07 3.096041825e-07)
5(-1.083283169e-06 1.124969394e-07 3.858696489e-07 2.566363752e-07 1.678674332e-07)
5(-1.287077261e-06 -1.142046759e-06 -6.592566444e-07 -5.779568102e-07 -3.140272782e-07)
5(-6.692066328e-06 -4.772562906e-06 -3.085691524e-06 -2.063315745e-06 -1.06273225e-06)
5(-1.547022477e-05 -8.81954027e-06 -5.357820849e-06 -2.96677756e-06 -1.455802996e-06)
5(-2.395508319e-05 -8.955655852e-06 -5.026851255e-06 -2.326680129e-06 -1.09674105e-06)
5(-1.831237974e-05 -5.565498689e-06 -2.805469898e-06 -1.08499412e-06 -4.292714668e-07)
5(-1.35512192e-05 -2.696565876e-06 -1.174178329e-06 -3.991960264e-07 -1.498881387e-07)
5(-5.141586852e-06 -1.281337678e-06 -4.960211032e-07 -1.605565825e-07 -5.052075104e-08)
5(-2.440852929e-06 -6.786739942e-07 -2.412870157e-07 -7.702335928e-08 -4.680826759e-08)
5(-1.799391987e-06 -3.928088011e-07 -1.300173212e-07 -4.057615805e-08 -9.564326828e-09)
5(-5.140608175e-06 -2.413435135e-07 -7.465008493e-08 -2.264507798e-08 -1.911982963e-08)
5(-4.51337416e-06 -1.559015527e-07 -4.478736107e-08 -1.318593202e-08 -3.103444488e-09)
5(-4.766546186e-08 -1.047822877e-07 -2.788932531e-08 -7.963903728e-09 -2.695207801e-08)
5(-5.016005789e-07 -7.354733873e-08 -1.811897888e-08 -4.966844088e-09 -2.028904602e-08)
5(-9.429177919e-07 -5.3200485e-08 -1.208820783e-08 -3.197225807e-09 -2.68141114e-10)
5(-4.233388027e-06 -3.989234884e-08 -8.354512493e-09 -2.112268648e-09 -4.04978099e-10)
5(-2.105141998e-07 -3.082999282e-08 -5.961975881e-09 -1.423660839e-09 -2.383813572e-09)
5(-1.470846406e-07 -2.457517495e-08 -4.358372334e-09 -9.819293049e-10 -4.300788617e-09)
5(-1.95323662e-06 -2.004860576e-08 -3.277790201e-09 -6.904210101e-10 -4.215723218e-09)
5(-7.042182581e-06 -1.672063629e-08 -2.539207454e-09 -4.916413731e-10 -3.782645762e-09)
5(-5.551781911e-06 -1.425687612e-08 -2.004199028e-09 -3.581995233e-10 -8.402193369e-09)
5(4.657691095e-07 -1.233748973e-08 -1.606747944e-09 -2.687991393e-10 -4.135598087e-09)
5(-2.53793202e-06 -1.068092113e-08 -1.321850792e-09 -2.087999522e-10 -2.816212953e-09)
5(1.109773472e-07 -9.388821549e-09 -1.113954408e-09 -1.744740062e-10 -1.163618458e-08)
5(-3.36200441e-06 -8.362683267e-09 -9.503592957e-10 -1.610807355e-10 -1.992752787e-08)
5(-3.883390608e-06 -7.285749374e-09 -8.24749177e-10 -1.684362266e-10 -2.232745625e-08)
5(2.933572898e-08 -6.332307816e-09 -7.361032721e-10 -1.952999645e-10 -6.293980624e-08)
5(-6.359008709e-06 -5.45236081e-09 -6.82089015e-10 -2.377604272e-10 -1.115752762e-07)
5(-9.892110046e-07 -4.662916745e-09 -6.462307378e-10 -2.864685225e-10 -1.449890175e-07)
5(-5.061049684e-06 -3.929195717e-09 -6.153859702e-10 -3.219400952e-10 -1.341867092e-07)