/*--------------------------------*- C++ -*----------------------------------*\
| =========                 |                                                 |
| \\      /  F ield         | OpenFOAM: The Open Source CFD Toolbox           |
|  \\    /   O peration     | Version:  2.3.1                                 |
|   \\  /    A nd           | Web:      www.OpenFOAM.org                      |
|    \\/     M anipulation  |                                                 |
\*---------------------------------------------------------------------------*/
FoamFile
{
    version     2.0;
    format      ascii;
    class       dictionary;
    location    "constant";
    object      la_r16;
}
// * * * * * * * * * * * * * * * * * * * * * * * * * * * * * * * * * * * * * //

la_r16_table
60
(

60
(
5(2.469442962e-06 6.785437682e-07 1.760564465e-06 1.20397808e-06 1.986655555e-06)
5(-7.246813593e-07 -1.493169213e-06 -2.251324758e-06 -2.013566467e-06 -3.532540691e-07)
5(-0.06865536917 2.050487246e-06 8.161202839e-06 2.320328469e-06 -9.900194324e-15)
5(-0.1767398575 3.970637973e-06 1.522456709e-05 8.292517331e-06 1.375623938e-05)
5(-0.1606032635 1.858116939e-06 8.390598446e-06 2.830896263e-06 5.92716406e-06)
5(-0.1015564136 -3.121370152e-07 -3.376242727e-07 -6.005931239e-07 -6.64981893e-07)
5(-7.336686131e-07 -8.611722432e-07 -4.03251178e-06 -1.694978271e-06 -4.034105629e-07)
5(-6.532847379e-07 -5.516828945e-07 -2.346772002e-06 -1.289122622e-06 -6.824545806e-07)
5(-0.07688660607 -3.952066485e-08 -6.779884992e-06 9.392675037e-08 4.054019666e-07)
5(-0.1086066305 -6.727865517e-05 -5.051771264e-06 -7.76838453e-07 1.115582273e-06)
5(-0.1045672044 -0.0001024002078 -2.439347258e-06 -2.380576912e-06 1.205079386e-06)
5(-0.03684319543 -2.234957949e-09 -1.069210145e-06 -2.56401953e-09 -2.100683017e-06)
5(-1.628083801e-07 -1.322350704e-07 -4.364721337e-07 -5.139563432e-07 -7.362198442e-07)
5(-9.205617023e-08 -9.655898885e-08 -1.347277279e-07 -1.211632813e-07 -1.059927367e-06)
5(-2.537296913e-08 -1.840770672e-07 -8.863689787e-08 -1.590052366e-07 -6.571282794e-09)
5(-0.002590857316 -9.697838622e-05 -5.74375752e-05 -1.54532002e-05 -3.421245387e-06)
5(-0.002117730193 -7.213829075e-05 -7.712307251e-05 -6.426165139e-06 -3.299787173e-07)
5(-0.0007953153793 -4.592619695e-05 -4.454489555e-06 -1.919528386e-07 -2.46621762e-07)
5(-8.507790367e-08 -1.779668822e-05 -3.889604203e-07 -2.985160358e-07 -2.771497586e-05)
5(-9.262066509e-07 -1.81604495e-06 -5.406906598e-07 -7.793968249e-07 -2.215630241e-05)
5(-1.268520571e-06 -7.498486258e-06 -1.869888092e-06 -2.604411328e-07 -1.274179168e-06)
5(-2.628368463e-06 -1.312925646e-06 -3.890778332e-05 -2.054311192e-06 -5.341842299e-07)
5(-5.651346706e-07 -2.804487449e-06 -2.40040554e-05 -4.918498243e-06 -4.017121401e-06)
5(-1.739184811e-06 -2.565860934e-06 -6.637163249e-06 -2.374630709e-06 -1.018931717e-06)
5(-6.504756487e-05 -0.0003701139933 -1.950947618e-06 -5.200289415e-06 -7.237445999e-07)
5(-5.319732815e-05 -0.0009837671089 -1.521104822e-05 -6.655583527e-06 -3.301439002e-06)
5(-4.235862639e-06 -0.0007098288951 -2.609274167e-05 -1.481107733e-05 -1.12191261e-05)
5(-9.648993488e-06 -1.464609421e-05 -1.504754332e-05 -1.654355707e-05 -9.616800984e-06)
5(-6.681889255e-05 -4.26585328e-05 -3.079620995e-05 -3.238243494e-05 -4.982886666e-05)
5(-4.142695447e-05 -5.488550519e-05 -9.140205544e-05 -7.266059232e-05 -2.400957915e-05)
5(-7.612159878e-05 -0.0001217455985 -0.0001179547672 4.574924237e-05 -8.225742864e-05)
5(-8.283492429e-05 -0.0001113932906 -9.688525387e-05 0.0001254133693 -0.0002372229904)
5(-0.0002208443054 -0.0005137717819 -0.0002831934157 -2.441533231e-05 -0.0005372861109)
5(-0.0005184285141 -0.000823869793 -0.0005622143518 -0.0001290992613 -4.947572247e-05)
5(-0.0008737773463 -0.0002486061425 -0.001149712035 -0.0002146705212 -0.001449804277)
5(-0.001280641445 -0.0002136112021 -0.0006759797326 -0.0005844102008 -0.003392185887)
5(-0.001747760012 -0.0003164598061 -0.0006552894329 -0.0001965993206 -0.001664180949)
5(-0.00106784855 -0.0008949964121 -0.001208205922 -0.001793756048 -0.004670187604)
5(-0.0005625533281 -0.0006059786566 -0.005022516401 -0.002384476274 -0.008526047365)
5(-0.001693950611 -0.0007175831396 0.001085947549 -0.001897442107 -0.0007740545297)
5(-0.001579374605 -0.002087261062 0.007730776232 -0.008966528947 -0.001243421575)
5(8.871940636e-05 -0.003970065052 0.005213894345 -0.07259944517 1.466319991e-09)
5(0.0008135582524 0.0002425475827 -0.001877945819 2.849832404e-09 9.333609642e-09)
5(0.0001836359971 0.005038146771 -0.01014269662 4.680791755e-09 -0.001130834654)
5(-0.001007483549 0.007089683305 -0.02069902198 4.406184647e-09 -1.653482485e-05)
5(-0.000631440525 -0.0003640378266 -0.002494296514 5.796067249e-09 6.202524618e-09)
5(0.0004225060812 -0.01231802167 -0.0139928888 -0.0001300462097 3.638151705e-09)
5(-0.004130461541 -0.0009396692458 -0.003593410305 2.311333011e-09 1.858981842e-09)
5(-0.0008596200684 -0.000359409774 -0.0003113750548 8.890392406e-10 6.607120603e-10)
5(-0.0008290984476 -0.0001964493493 -2.007830546e-10 4.79320881e-10 2.098533372e-10)
5(-0.001799984789 -1.389313406e-10 7.667686069e-10 1.673943748e-10 2.250913266e-11)
5(-0.003039126991 1.211988886e-10 1.11557408e-10 7.715094675e-11 1.558217377e-11)
5(-3.186243275e-05 -8.654797841e-10 5.708488874e-11 2.543774847e-11 4.001618129e-12)
5(7.588838229e-11 -6.877525339e-11 -6.967926275e-12 -6.277177472e-13 2.512369563e-13)
5(-7.751174219e-12 -2.165260832e-11 9.264568156e-13 7.312361293e-13 1.238060401e-13)
5(-3.52363059e-09 -3.826129277e-13 2.497240858e-13 -2.712826672e-14 1.753443394e-14)
5(-1.010105169e-09 -7.775983184e-15 9.675714255e-15 4.008126086e-15 1.770494396e-15)
5(-5.396814871e-11 -4.258526517e-12 -6.054658748e-16 -1.467301986e-15 -5.152732124e-15)
5(-2.849325265e-13 1.393950717e-12 -1.529344952e-12 -4.539109413e-15 -3.276442678e-16)
5(-5.136613012e-18 -2.224392823e-17 6.345514922e-11 -3.465884712e-16 -8.567559396e-16)
)


60
(
5(7.47558076e-07 -2.624339991e-07 -2.100872972e-07 -1.491595924e-07 1.20196711e-07)
5(-1.742181991e-07 -2.912053731e-08 -5.282425229e-08 -4.373975878e-08 -5.121021571e-07)
5(-7.053138563e-08 -2.637280649e-08 -4.025601975e-08 -4.12504276e-08 -2.179532747e-07)
5(-1.493905429e-07 -2.557848694e-08 -3.413346978e-08 -4.795083687e-08 -4.354105402e-07)
5(-2.329184281e-06 -2.962189544e-08 -6.119360836e-08 -6.201454886e-08 -1.578846948e-07)
5(-1.408636683e-06 -5.14173758e-08 -8.276704831e-08 -9.294186336e-08 -4.552809322e-07)
5(-1.254968488e-06 -8.673755943e-08 -1.023556119e-07 -1.205795266e-07 -4.404995643e-07)
5(-2.462385621e-06 -1.17090437e-07 -1.372234291e-07 -1.604872554e-07 -1.05563159e-06)
5(-4.400454855e-06 -1.419792466e-07 -1.775984264e-07 -2.121537724e-07 -2.743601797e-06)
5(-1.102579147e-06 -1.807716832e-07 -2.367610892e-07 -2.834338407e-07 -9.252756449e-06)
5(-7.132535391e-06 -2.593477545e-07 -3.286791015e-07 -3.826600393e-07 -7.513098579e-06)
5(-3.139117335e-06 -3.832622688e-07 -4.538222383e-07 -5.17864826e-07 -2.183758678e-06)
5(-2.40556397e-06 -5.153223815e-07 -6.070913183e-07 -6.946436233e-07 -8.271981444e-06)
5(-5.233240776e-06 -6.996742801e-07 -8.255448253e-07 -9.503044376e-07 -7.761190571e-06)
5(-7.725838601e-06 -9.043660617e-07 -1.102446081e-06 -1.294119764e-06 -7.511554357e-06)
5(-1.027508299e-06 -1.233970235e-06 -1.500080977e-06 -1.815484419e-06 -1.200488057e-05)
5(-1.806515028e-05 -1.808593402e-06 -2.166176451e-06 -2.621569934e-06 -2.247249134e-05)
5(-2.194158497e-05 -2.596993557e-06 -3.126411942e-06 -3.80831319e-06 -2.04203323e-05)
5(-2.459273688e-05 -3.686576607e-06 -4.504269562e-06 -5.634054655e-06 -2.755631184e-05)
5(-2.940469463e-05 -5.347704876e-06 -6.709146774e-06 -8.599938796e-06 -1.338231023e-05)
5(-5.03972715e-05 -8.069042907e-06 -1.037616252e-05 -1.360658226e-05 -5.409735125e-05)
5(-9.048258642e-05 -1.252880926e-05 -1.640062752e-05 -2.188354097e-05 -5.279354374e-05)
5(-9.167148744e-05 -2.000405519e-05 -2.677121157e-05 -3.610633519e-05 -5.784534714e-05)
5(-5.61032847e-05 -3.295471263e-05 -4.485128319e-05 -6.106759425e-05 -7.98004127e-05)
5(-0.0001684223831 -5.525934714e-05 -7.588931253e-05 -0.000103799619 -0.0001527325166)
5(-0.0001267561857 -9.496168443e-05 -0.0001305855715 -0.000177733193 -0.0003375142655)
5(-0.0001911213887 -0.0001636128123 -0.000224361867 -0.0003014303981 -0.000629229188)
5(-0.0002205072103 -0.0002765465617 -0.0003794334741 -0.000501835901 -0.000852236672)
5(-0.0005081045746 -0.0004585094069 -0.000629498912 -0.0008125645323 -0.0009985711057)
5(-0.0004073936969 -0.0007443572857 -0.001011562107 -0.001265015826 -0.002031646077)
5(-0.001109448589 -0.001172730156 -0.001569295564 -0.001889906376 -0.002050145151)
5(-0.001937608146 -0.001777782141 -0.002318848475 -0.00267559205 -0.002503310475)
5(-0.00273027722 -0.002550741324 -0.003227781405 -0.003551910536 -0.005556983989)
5(-0.002835134684 -0.003481289198 -0.004229197431 -0.004366967329 -0.004989059613)
5(-0.004540730373 -0.004432331749 -0.005089945104 -0.004801018323 -0.005853342512)
5(-0.004150554097 -0.005161543858 -0.005522599424 -0.004486642564 -0.006591257491)
5(-0.009912779463 -0.005304135298 -0.005020317837 -0.00304426802 -0.006990355627)
5(-0.006405640664 -0.004258463582 -0.002858923561 -0.0001780652542 -0.00567115972)
5(-0.005679858153 -0.001673967705 0.001122917652 0.004246998879 -0.002567310814)
5(-0.004199285065 0.002602371633 0.006507263348 0.009214816226 0.006988323831)
5(-0.002408313157 0.008304649945 0.0125179901 0.01352939257 0.003316412182)
5(-0.0004792851978 0.01479363056 0.01752926152 0.01548845882 0.006348794509)
5(0.01325448241 0.0199084778 0.01997669831 0.01382808691 0.000867196536)
5(0.01652306251 0.02132844155 0.01777442337 0.008655600601 -0.002296664461)
5(0.01799984785 0.01799949116 0.01135950301 0.002094145877 -0.004430345776)
5(0.009589516655 0.01112132092 0.00345147507 -0.002759861404 -0.002576389545)
5(-0.01799277637 0.001635520994 -0.004080680454 -0.004728549066 -0.002293453774)
5(-0.01604328607 -0.00587449863 -0.007748430326 -0.004280456015 -0.001938996323)
5(-0.01816526939 -0.009188378627 -0.007111430674 -0.002678172119 -0.0007605535146)
5(-0.01275032192 -0.008386016503 -0.004363436199 -0.001237863578 -0.0003043483734)
5(-0.009892645988 -0.00513241746 -0.001992630692 -0.0004332535414 -0.0001182946202)
5(-0.007073001729 -0.002240566308 -0.0006614324236 -0.0001211577873 -2.304773187e-05)
5(-0.00302572383 -0.000696136761 -0.0001675529212 -2.822098993e-05 -7.675507866e-06)
5(-0.0008168211048 -0.0001470563553 -3.123380226e-05 -5.615837925e-06 -8.087554299e-07)
5(-0.0001149713177 -2.292417778e-05 -4.576904542e-06 -9.365857217e-07 -8.525535427e-08)
5(-6.129185461e-06 -2.074792224e-06 -5.225188306e-07 -1.181166935e-07 -1.909791275e-08)
5(-4.012996496e-07 -1.520806583e-07 -3.24754645e-08 -1.00417865e-08 -1.912632355e-09)
5(-1.302829465e-08 -4.853340574e-09 -1.189991443e-09 8.546434295e-10 -5.596643859e-11)
5(-3.332919719e-11 -1.588417091e-08 -1.187470762e-08 -9.747340558e-09 -1.243566086e-12)
5(6.105043844e-14 1.213313209e-09 -0.0004127769156 -2.948224036e-09 -6.751857305e-15)
)


60
(
5(6.2248856e-07 -8.842245824e-07 -8.660242814e-08 -4.872239383e-07 -4.304733505e-07)
5(-1.095415299e-06 -1.00974893e-07 -1.709072438e-07 -1.832612281e-07 -9.351858804e-07)
5(-9.575791614e-08 -1.106070117e-07 -1.439039276e-07 -1.745669903e-07 -5.600889139e-07)
5(-1.997815661e-06 -1.361193053e-07 -1.557331324e-07 -2.032508237e-07 -6.040476596e-06)
5(-1.558062367e-06 -1.821913742e-07 -2.193806252e-07 -2.787077016e-07 -1.164857398e-06)
5(-9.473142093e-07 -2.546320833e-07 -3.268358431e-07 -3.899678704e-07 -2.450506772e-06)
5(-1.77836016e-06 -3.445834122e-07 -4.434142295e-07 -5.153659439e-07 -6.428635116e-07)
5(-5.316950535e-06 -4.578031026e-07 -5.75150424e-07 -6.659660149e-07 -3.888487035e-06)
5(-1.726677392e-06 -6.061422013e-07 -7.38183612e-07 -8.456527271e-07 -1.3596298e-05)
5(-3.005592631e-06 -8.000648054e-07 -9.449384542e-07 -1.078052287e-06 -5.161096807e-06)
5(-6.220532873e-06 -1.057006887e-06 -1.232191116e-06 -1.386019279e-06 -4.293101526e-06)
5(-1.870367015e-05 -1.356782186e-06 -1.590413582e-06 -1.778746602e-06 -7.273483358e-06)
5(-7.000957105e-06 -1.748103327e-06 -2.06036819e-06 -2.291761461e-06 -9.100885715e-06)
5(-4.301221618e-06 -2.277158366e-06 -2.655160397e-06 -2.996084539e-06 -5.31682624e-06)
5(-1.160616664e-05 -2.950128576e-06 -3.502962551e-06 -3.966851003e-06 -1.975783407e-05)
5(-6.49606564e-05 -3.876171035e-06 -4.565208946e-06 -5.337433084e-06 -2.620096229e-05)
5(-3.606546907e-05 -5.029384398e-06 -6.132859892e-06 -7.347843791e-06 -2.734368437e-05)
5(-2.657286775e-05 -6.671297647e-06 -8.210320415e-06 -1.023697152e-05 -4.951612506e-05)
5(-3.726198313e-05 -8.943710088e-06 -1.146436033e-05 -1.456304212e-05 -6.870740506e-05)
5(-4.311568529e-05 -1.214971522e-05 -1.61450917e-05 -2.119488076e-05 -6.721340943e-05)
5(-0.0001188436019 -1.699650609e-05 -2.351408043e-05 -3.169312798e-05 -3.919014505e-05)
5(-0.0001005401159 -2.481963853e-05 -3.491225284e-05 -4.859504408e-05 -0.0001987002028)
5(-4.936560401e-05 -3.771632121e-05 -5.414536701e-05 -7.757487293e-05 -0.0002012804403)
5(-0.000161865484 -5.952401432e-05 -8.747720936e-05 -0.000127170667 -0.0002647187143)
5(-0.0002194715189 -9.739928814e-05 -0.0001461233313 -0.000213138748 -0.0003549426275)
5(-0.0002053100919 -0.0001644950718 -0.0002482433229 -0.0003620484432 -0.0007201561112)
5(-0.0003329065634 -0.0002789245396 -0.0004220476208 -0.0006083619077 -0.001125235871)
5(-0.0009576255562 -0.0004749482249 -0.0007124067035 -0.001014014844 -0.001414407271)
5(-0.0007871709403 -0.0007966023033 -0.001185002429 -0.001643588455 -0.002386267634)
5(-0.001859810197 -0.001303679479 -0.001919649347 -0.002588263022 -0.005444251379)
5(-0.001909630423 -0.002077176441 -0.002995063614 -0.003916400033 -0.00463164655)
5(-0.002496148365 -0.003187429151 -0.004476832792 -0.005655495096 -0.007727293288)
5(-0.003975840239 -0.004659920187 -0.006386808655 -0.007729172883 -0.008006605922)
5(-0.005981461771 -0.006477200661 -0.008608528206 -0.009799392289 -0.0142143418)
5(-0.006838062375 -0.008477913664 -0.01077036811 -0.01142638892 -0.01134847367)
5(-0.01509721115 -0.01027052272 -0.01224153938 -0.01185436026 -0.01743282157)
5(-0.03172653568 -0.0111601473 -0.01217051678 -0.01007222112 -0.01787429641)
5(-0.01277196049 -0.01034296811 -0.009322734577 -0.005094237916 -0.006145582763)
5(-0.0278740847 -0.006941752546 -0.002570292939 0.003544593728 0.007589578845)
5(-0.01613544549 9.896534037e-05 0.007760910325 0.01522320526 0.00476670395)
5(-0.01178329892 0.01121639123 0.02108935385 0.02799883672 0.02364195426)
5(-0.007339836964 0.02433667372 0.03539605944 0.03863378515 0.02391300752)
5(0.01915101776 0.03718935386 0.04623573423 0.04307857657 0.02365278694)
5(0.02772865996 0.04571793778 0.04861846752 0.03710072196 0.005682876129)
5(0.03759142808 0.04633352026 0.04072493479 0.02379853513 0.00494513704)
5(0.03940226227 0.03656588765 0.02523330762 0.007641174555 -0.004137756241)
5(0.03403779259 0.01944061537 0.004791767771 -0.006779609144 -0.01349107173)
5(0.01786157748 0.0003548191854 -0.01081710975 -0.01389568859 -0.01147967992)
5(-0.01124155309 -0.01351287682 -0.01850438966 -0.01328995291 -0.007875204585)
5(-0.0132608416 -0.01933464237 -0.01680146065 -0.009527005491 -0.00445158737)
5(-0.01400367097 -0.01666515629 -0.01092709673 -0.004873122473 -0.001421049397)
5(-0.007988218399 -0.01016977246 -0.005215188098 -0.001878800688 -0.0005497459229)
5(-0.004404995083 -0.00444133498 -0.001771099346 -0.0005437892504 -0.0001285058288)
5(-0.003115216326 -0.001312309934 -0.0004153428326 -0.0001140085875 -2.676605084e-05)
5(-0.0006075935345 -0.0002565212271 -6.860175627e-05 -1.904207268e-05 -4.309504443e-06)
5(-0.0001787885246 -3.137810665e-05 -7.157629418e-06 -2.322178518e-06 -5.680181401e-07)
5(-1.183415264e-05 -1.761585864e-06 -5.023985771e-07 -1.708995228e-07 -4.402700556e-08)
5(-2.802714506e-07 -2.948942175e-07 -1.572092677e-08 -1.737288392e-07 -1.572139e-09)
5(3.606356918e-09 -0.0001154519428 -3.106780197e-08 -7.203734812e-05 -4.934252111e-09)
5(3.546132708e-12 -1.56626687e-09 -0.0007428518564 3.697126253e-09 -3.792044517e-14)
)


60
(
5(4.818358237e-06 -9.722744336e-07 -9.439445473e-07 -1.46392091e-06 -2.115052227e-06)
5(-4.623684144e-07 -2.697604407e-07 -4.630954689e-07 -5.394822424e-07 -1.467491294e-06)
5(-1.112326007e-06 -3.128003306e-07 -4.217731514e-07 -5.366726842e-07 -2.611058045e-06)
5(-1.153928848e-06 -3.938273805e-07 -4.935162026e-07 -6.419948607e-07 -4.551668935e-06)
5(-1.013058708e-06 -5.335108126e-07 -6.850203033e-07 -8.631536242e-07 -2.776091652e-06)
5(-3.338320154e-06 -7.380652525e-07 -9.738360837e-07 -1.176523351e-06 -4.905413988e-06)
5(-4.573445732e-06 -9.974254288e-07 -1.311041478e-06 -1.53954053e-06 -5.601457637e-06)
5(-3.499566312e-06 -1.331249274e-06 -1.702055626e-06 -1.940325007e-06 -3.614359611e-06)
5(-4.96428001e-06 -1.738628941e-06 -2.146631234e-06 -2.402208162e-06 -1.556521233e-05)
5(-1.408013222e-05 -2.259290386e-06 -2.698912736e-06 -2.979122031e-06 -1.14471314e-05)
5(-1.736000945e-05 -2.894608278e-06 -3.407135809e-06 -3.703907497e-06 -2.177071373e-05)
5(-2.917783963e-05 -3.685272728e-06 -4.281176194e-06 -4.561518173e-06 -1.323544398e-05)
5(-5.111315874e-05 -4.64936224e-06 -5.366923316e-06 -5.705275914e-06 -2.188777205e-05)
5(-2.944664281e-05 -5.870537926e-06 -6.730164658e-06 -7.327466543e-06 -5.645512766e-05)
5(-3.090481998e-05 -7.306457467e-06 -8.497200426e-06 -9.440298514e-06 -3.233064281e-05)
5(-4.486921368e-05 -9.151297215e-06 -1.091168241e-05 -1.238766385e-05 -4.956389319e-05)
5(-0.0001283984984 -1.172429076e-05 -1.433231508e-05 -1.681750168e-05 -5.18757176e-05)
5(-5.649266933e-05 -1.489881431e-05 -1.868659199e-05 -2.274449447e-05 -5.179461403e-05)
5(-0.0002447497584 -1.910510636e-05 -2.476538587e-05 -3.119428308e-05 -0.0001342562132)
5(-7.189100692e-05 -2.485252241e-05 -3.289463138e-05 -4.251406029e-05 -0.00012608468)
5(-0.0001018426911 -3.232261202e-05 -4.468495101e-05 -5.983141254e-05 -0.0001305759336)
5(-0.0006726445823 -4.3302756e-05 -6.214036878e-05 -8.600075739e-05 -0.0005109573085)
5(-0.0009666190208 -6.034613004e-05 -9.05135472e-05 -0.0001284780094 -0.0004073579407)
5(-0.0001368536507 -8.803363557e-05 -0.0001349157805 -0.0001999462085 -0.0006277325663)
5(-0.000512572099 -0.0001344745575 -0.0002122251207 -0.0003221070415 -0.000477139516)
5(-0.0005438477989 -0.0002171270691 -0.0003495669359 -0.0005317492101 -0.00090793017)
5(-0.0007496609778 -0.0003605589042 -0.0005889489579 -0.000890899596 -0.001757728287)
5(-0.0005699965035 -0.0006119868362 -0.0009915035114 -0.001481267276 -0.002360790453)
5(-0.001215142333 -0.001036619818 -0.001657547614 -0.002420313358 -0.003631951764)
5(-0.001788021975 -0.001721607629 -0.002714513945 -0.003852317979 -0.004795969849)
5(-0.002212709387 -0.002780938434 -0.004303661367 -0.005919629971 -0.009082780896)
5(-0.003804248148 -0.004342548682 -0.006539270604 -0.008709625627 -0.0126520244)
5(-0.006316739989 -0.006497081439 -0.009510042587 -0.01222126436 -0.01952780642)
5(-0.007910020019 -0.009300384696 -0.01313182 -0.01605244646 -0.01948423537)
5(-0.01288358587 -0.01257671591 -0.01702856263 -0.01969459072 -0.04056913822)
5(-0.01386563247 -0.01592970474 -0.02033424834 -0.022018874 -0.0254105313)
5(-0.01536684153 -0.01840168517 -0.02193447862 -0.0213238687 -0.0307921386)
5(-0.02955904431 -0.01898274013 -0.01981324668 -0.01600758658 -0.03805898639)
5(-0.03222415382 -0.01593452641 -0.01252586683 -0.00459929664 -0.003599613917)
5(-0.02396507467 -0.007693632344 0.001008241036 0.01344664835 -0.00113358527)
5(-0.01849257711 0.005822869277 0.02137302452 0.03623204347 0.03574635997)
5(-0.004921642438 0.02471971566 0.04540944259 0.05879280333 0.05931501108)
5(0.009930874092 0.04628914289 0.06744610452 0.07476214069 0.06345817612)
5(0.03387875348 0.06553970468 0.08164921582 0.07773492098 0.05062815083)
5(0.047692625 0.07514814368 0.08273435782 0.06424123336 0.02014203867)
5(0.0592001292 0.07136983012 0.06533783637 0.03916099292 0.02050756635)
5(0.06293381747 0.05776764331 0.03401560991 0.01055097196 -0.0160782296)
5(0.04139846373 0.02744716379 0.004820601056 -0.01538636708 -0.02254607298)
5(0.01334928671 -0.00377318378 -0.01973972661 -0.02710313041 -0.02508293829)
5(0.00387345897 -0.0230553012 -0.03205944379 -0.02682110622 -0.0199187886)
5(-0.01378805386 -0.02805603962 -0.02719501 -0.01774926669 -0.01199110381)
5(-0.02905094987 -0.0237817285 -0.01671820539 -0.009039453991 -0.003444084228)
5(-0.01869407062 -0.01341270965 -0.007414257807 -0.003356139567 -0.001151399245)
5(-0.0142998534 -0.005319108614 -0.002256925004 -0.0008947912407 -0.0002103347099)
5(-0.003707930232 -0.001381116279 -0.0004450970032 -0.0001639883327 -3.958418874e-05)
5(-0.001105179655 -0.0002081596576 -5.653773388e-05 -1.990742563e-05 -5.14357307e-06)
5(-6.048601816e-05 -1.890457502e-05 -3.566601913e-06 -1.537804486e-06 -4.052430221e-07)
5(-5.109348093e-06 6.141095693e-07 -1.451928333e-07 1.457758519e-06 -1.849359268e-08)
5(4.910020661e-09 0.0007192261432 -6.927974956e-06 0.0007018872036 5.183987366e-08)
5(1.005612155e-07 1.183268187e-05 5.631898534e-07 1.059196738e-06 2.152160482e-12)
)


60
(
5(1.371864711e-05 -1.054348384e-06 -2.055896954e-06 -9.815715503e-07 5.103457734e-06)
5(-1.325325183e-06 -6.191759271e-07 -1.054531244e-06 -1.296502865e-06 -3.120658998e-06)
5(-3.78144757e-06 -7.363523237e-07 -1.014682744e-06 -1.337691451e-06 -6.811710827e-06)
5(-4.956812487e-06 -9.2920264e-07 -1.230119296e-06 -1.615374619e-06 -6.095838761e-06)
5(-2.322427791e-06 -1.260817073e-06 -1.696802875e-06 -2.129185576e-06 -3.561341611e-06)
5(-1.359548168e-06 -1.751930316e-06 -2.359068147e-06 -2.85128172e-06 -4.81336248e-06)
5(-4.987763817e-06 -2.351899939e-06 -3.139243984e-06 -3.653371701e-06 -1.648366261e-05)
5(-8.587992294e-06 -3.095401783e-06 -3.997454034e-06 -4.53483194e-06 -5.931485442e-06)
5(-7.657680433e-06 -3.992685646e-06 -4.972477159e-06 -5.487526787e-06 -2.56011394e-05)
5(-1.287233803e-05 -5.073241004e-06 -6.1516517e-06 -6.636959265e-06 -9.669518428e-06)
5(-1.649949809e-05 -6.456075596e-06 -7.5731709e-06 -7.960383152e-06 -3.808905399e-05)
5(-5.628990657e-05 -8.035968258e-06 -9.299381282e-06 -9.680618158e-06 -2.349798493e-05)
5(-4.472001702e-05 -9.922083943e-06 -1.142610084e-05 -1.187477386e-05 -5.411160241e-05)
5(-0.0001529717657 -1.222996641e-05 -1.407101897e-05 -1.496505119e-05 -2.241818444e-05)
5(-8.489119213e-05 -1.501262674e-05 -1.75447199e-05 -1.910660533e-05 -6.423891287e-05)
5(-3.137150266e-05 -1.861731498e-05 -2.189615023e-05 -2.505938022e-05 -8.788404901e-05)
5(-0.0001660044312 -2.312660293e-05 -2.804174213e-05 -3.317532431e-05 -0.0001200079826)
5(-0.000138152462 -2.898445506e-05 -3.618168843e-05 -4.33787504e-05 -8.028577159e-05)
5(-0.0001585279876 -3.646193155e-05 -4.658050055e-05 -5.789340959e-05 -0.0001156717457)
5(-0.0002196275431 -4.545441939e-05 -6.02410347e-05 -7.687434351e-05 -0.0001779633533)
5(-0.0002930650181 -5.613276329e-05 -7.835092225e-05 -0.0001026275346 -0.0002425943153)
5(-0.0002687847485 -7.093478493e-05 -0.0001021458236 -0.0001385928763 -0.0005869930051)
5(-0.0001714567451 -9.086201996e-05 -0.0001349155629 -0.000192070162 -0.0003346735297)
5(-0.0004326355037 -0.0001216985946 -0.0001867924803 -0.0002764928519 -0.001224965591)
5(-0.0009292698192 -0.000171977103 -0.000275399961 -0.0004201995761 -0.000775762985)
5(-0.0002460840816 -0.0002508451323 -0.0004299679326 -0.0006681993802 -0.001516694051)
5(-0.000360838756 -0.0003936265639 -0.0006952985858 -0.001093540799 -0.0024586617)
5(-0.001186260211 -0.0006584543096 -0.001151038907 -0.001805293964 -0.002855891308)
5(-0.00280466163 -0.001112684741 -0.001929338666 -0.002976375532 -0.005164286797)
5(-0.002238323119 -0.001878757924 -0.003193096806 -0.004786924169 -0.007523722743)
5(-0.00389433316 -0.003109064863 -0.005133508171 -0.007472128164 -0.01122652962)
5(-0.006146756759 -0.004949728805 -0.007948114517 -0.01126399428 -0.02442986497)
5(-0.006585457535 -0.007630145295 -0.01185496506 -0.01618755104 -0.02411807054)
5(-0.007147432643 -0.01120959815 -0.01684948944 -0.02197613321 -0.03335577535)
5(-0.0105822998 -0.01563159442 -0.02246654887 -0.02798308429 -0.03942220425)
5(-0.01916994014 -0.02055218477 -0.02804104133 -0.03289484457 -0.03600912537)
5(-0.02749514267 -0.02501110727 -0.03225235361 -0.03468468776 -0.03617747801)
5(-0.02399114491 -0.02780838093 -0.03275354825 -0.03114199101 -0.05457768324)
5(-0.02971056525 -0.02725263023 -0.02713334665 -0.01934077115 -0.01990220478)
5(-0.02721683764 -0.0207399209 -0.01251863401 0.002508548665 0.008686173611)
5(-0.03044218541 -0.00684693333 0.01141214673 0.03299571305 -0.001824701439)
5(-0.01309540841 0.01547607151 0.04337643528 0.06886915716 0.03828725306)
5(0.0002126561339 0.04378802921 0.0785609731 0.1017979587 0.09027507528)
5(0.02815491273 0.07234177313 0.1083979119 0.1204474037 0.1056488585)
5(0.03651955121 0.09596745239 0.1231955113 0.1189579739 0.1081278337)
5(0.06925882519 0.1047109803 0.1132539271 0.09269733075 0.06150630206)
5(0.07778639841 0.09436346253 0.08048188077 0.0558990882 0.01538955974)
5(0.07224026775 0.06579842356 0.03453225963 0.006668420858 -0.02186432282)
5(0.0646862198 0.02645055649 -0.009556579053 -0.02998933211 -0.04670655044)
5(0.04384490705 -0.007708126466 -0.03816452558 -0.04271730448 -0.03209123064)
5(0.001699833186 -0.02943817384 -0.04568254617 -0.03901613975 -0.02341079323)
5(-0.04140817774 -0.03961350663 -0.03616567782 -0.02501589342 -0.01022052566)
5(-0.0257420094 -0.02961064803 -0.02016462229 -0.01213137104 -0.00670802205)
5(-0.02990582704 -0.0159346447 -0.008170998887 -0.004147942597 -0.00150943541)
5(-0.01546298956 -0.006066945552 -0.002212725441 -0.0009361329831 -0.0002899937456)
5(-0.006871451571 -0.001441726277 -0.0003613718684 -0.0001364627643 -4.067218164e-05)
5(-0.001572199693 -0.0001766683248 -2.766226845e-05 -1.206758105e-05 -2.986399875e-06)
5(-0.0001167265971 -9.889040761e-06 -1.270945751e-06 5.909623141e-07 -1.391657036e-07)
5(3.405993967e-06 0.0005035244105 3.489907872e-07 0.0003160841586 3.439034312e-08)
5(9.031415362e-06 3.666400002e-07 -0.00204379534 -8.377939016e-08 -1.026778336e-12)
)


60
(
5(3.30845013e-05 -6.105987391e-08 2.632856164e-06 6.75311769e-06 4.458954647e-05)
5(-5.242264348e-06 -1.244504072e-06 -2.108510444e-06 -2.702294101e-06 -4.834929198e-06)
5(-3.282188713e-06 -1.50351712e-06 -2.139293893e-06 -2.854181099e-06 -5.551092554e-06)
5(-6.183282841e-06 -1.920800603e-06 -2.630125374e-06 -3.463847094e-06 -2.834589725e-05)
5(-1.045614378e-05 -2.578133029e-06 -3.56442196e-06 -4.528016192e-06 -3.306900726e-05)
5(-5.396383285e-06 -3.550608655e-06 -4.88976456e-06 -5.947022781e-06 -1.779637066e-05)
5(-1.226669086e-05 -4.727492569e-06 -6.405988805e-06 -7.486072793e-06 -5.863482449e-05)
5(-1.413192832e-05 -6.213852786e-06 -8.096897075e-06 -9.141975492e-06 -2.033211292e-05)
5(-2.485680131e-05 -7.94774863e-06 -9.917003307e-06 -1.087515146e-05 -3.900441124e-05)
5(-2.090625431e-05 -1.001284631e-05 -1.211259629e-05 -1.281649166e-05 -2.176479488e-05)
5(-7.571439916e-05 -1.235596312e-05 -1.455661166e-05 -1.515402417e-05 -6.176526753e-05)
5(-2.904401947e-05 -1.522659097e-05 -1.75309058e-05 -1.802983653e-05 -4.149750225e-05)
5(-0.0001006436221 -1.840575429e-05 -2.111761193e-05 -2.187559653e-05 -8.363128146e-05)
5(-6.304292784e-05 -2.233728406e-05 -2.579303286e-05 -2.725927443e-05 -4.00320202e-05)
5(-0.0001845473326 -2.736738274e-05 -3.188479505e-05 -3.459771784e-05 -0.0001250564987)
5(-0.0001826634904 -3.341630863e-05 -3.986933815e-05 -4.491140155e-05 -7.893420087e-05)
5(-0.0001617753492 -4.139215159e-05 -5.049417144e-05 -5.873524717e-05 -0.0002149208056)
5(-0.0003041206302 -5.110393786e-05 -6.412975572e-05 -7.749759196e-05 -0.0001381611068)
5(-0.0001663810597 -6.31480704e-05 -8.220539026e-05 -0.0001014484332 -0.0003880021678)
5(-0.0004295954362 -7.776804971e-05 -0.0001039046185 -0.0001311392697 -0.0003379483858)
5(-0.0007636221635 -9.478993595e-05 -0.0001299214246 -0.0001683117419 -0.0004044184271)
5(-0.0001835156222 -0.0001137215621 -0.0001623204095 -0.0002153657598 -0.0008161547645)
5(-0.0007064195708 -0.0001366959436 -0.0002033307397 -0.0002796528338 -0.0008445498632)
5(-0.001140651605 -0.0001643187905 -0.0002580931468 -0.0003750189273 -0.001147942089)
5(-0.0008725414837 -0.0002030147268 -0.0003439910136 -0.0005246065738 -0.00240310949)
5(-0.0007793144066 -0.0002726823952 -0.0004880805308 -0.0007778637699 -0.002111971602)
5(-0.001501713238 -0.0003962895637 -0.0007387080987 -0.001222595539 -0.002873645332)
5(-0.001831630454 -0.0006275825594 -0.001200102447 -0.001977299563 -0.004430494985)
5(-0.001882049186 -0.001048696276 -0.002000603037 -0.003242438608 -0.006985476986)
5(-0.002103286238 -0.001804596842 -0.003344607974 -0.005291191305 -0.008124829075)
5(-0.006038467593 -0.003060557079 -0.005481531413 -0.008402652823 -0.01534240365)
5(-0.008100549075 -0.005035411337 -0.008729423574 -0.01286212372 -0.02258891317)
5(-0.009715023377 -0.008011649148 -0.01330891432 -0.01892461033 -0.0294023519)
5(-0.009750808339 -0.01211023184 -0.01934037044 -0.02648068117 -0.05115146588)
5(-0.01351473334 -0.01744151615 -0.02665313826 -0.03495297522 -0.05944537499)
5(-0.02392251145 -0.02378402616 -0.03455478264 -0.04304835762 -0.06544253847)
5(-0.02277864712 -0.03043707668 -0.04173559124 -0.04884017552 -0.06460742262)
5(-0.03329743569 -0.03616914905 -0.04569274427 -0.04877463189 -0.06109202329)
5(-0.03216980682 -0.03859599715 -0.04336583018 -0.03948698573 -0.05784709889)
5(-0.04294915093 -0.03512129079 -0.03178869808 -0.01808662884 -0.05195126889)
5(-0.04083092172 -0.02389580484 -0.007800420535 0.01672848014 0.004651833649)
5(-0.03754546985 -0.002477535088 0.02812210741 0.06386565691 0.03560618445)
5(-0.05328393209 0.02886446944 0.07382227981 0.1139742912 0.1185744759)
5(-0.01814950563 0.06510632646 0.1184883867 0.1527857849 0.1479036471)
5(0.0345646176 0.1010171788 0.1533673408 0.1704081328 0.1685786713)
5(0.06339206811 0.1260800331 0.1621140259 0.1571992309 0.1378402098)
5(0.111761032 0.1321971297 0.1412629032 0.1142653216 0.06013397022)
5(0.1058244544 0.1147476095 0.0929645727 0.05851983626 0.001959330289)