/*--------------------------------*- C++ -*----------------------------------*\
| =========                 |                                                 |
| \\      /  F ield         | OpenFOAM: The Open Source CFD Toolbox           |
|  \\    /   O peration     | Version:  2.3.1                                 |
|   \\  /    A nd           | Web:      www.OpenFOAM.org                      |
|    \\/     M anipulation  |                                                 |
\*---------------------------------------------------------------------------*/
FoamFile
{
    version     2.0;
    format      ascii;
    class       dictionary;
    location    "constant";
    object      la_r21;
}
// * * * * * * * * * * * * * * * * * * * * * * * * * * * * * * * * * * * * * //

la_r21_table
60
(

60
(
5(3.374811585e-08 6.224297812e-09 4.042701644e-08 1.531742824e-08 2.918261287e-08)
5(7.726368347e-09 1.826452133e-10 6.983439599e-09 3.409497502e-09 5.3276616e-09)
5(-1.014289241e-09 6.882824827e-10 9.56806877e-10 4.488711606e-10 -1.097382901e-13)
5(7.476337711e-09 8.378814732e-10 9.020701864e-10 -6.113390444e-12 5.452675316e-10)
5(8.054073839e-09 5.82721233e-10 9.922853746e-10 3.256197481e-10 2.333680971e-10)
5(7.523080317e-08 3.656707782e-10 1.316184168e-10 3.363180959e-10 1.343977808e-10)
5(7.391018347e-10 2.242584224e-10 1.920681176e-10 1.141023127e-10 4.679403376e-10)
5(1.166315178e-10 1.509768769e-10 3.6998187e-10 1.189182882e-10 2.395271591e-11)
5(8.374188612e-08 6.507219698e-11 8.499722536e-11 5.520992274e-11 4.208772087e-11)
5(9.35433182e-08 7.945108376e-12 -9.347780063e-11 -2.894016501e-11 -9.183729246e-12)
5(1.007692601e-07 -1.622912761e-10 -3.328786091e-10 -1.312884803e-10 -8.983677214e-11)
5(3.169231742e-08 -4.923119752e-10 -4.34901644e-10 -2.470593539e-10 -1.363964085e-10)
5(-5.699346888e-10 -7.107717174e-10 -5.776513387e-10 -4.169666726e-10 -2.409071565e-10)
5(-1.033888207e-09 -9.067878837e-10 -7.66884813e-10 -3.717643616e-10 -2.431658451e-10)
5(-9.440414219e-10 -9.10872614e-10 -7.747324551e-10 -4.708523344e-10 -2.478325174e-10)
5(-1.05713178e-09 -1.170279637e-09 -1.012105047e-09 -5.375540416e-10 -2.721835392e-10)
5(-1.332344264e-09 -1.214565753e-09 -1.109807718e-09 -5.182437066e-10 -2.92057362e-10)
5(-1.335541502e-09 -1.173703863e-09 -9.103332792e-10 -5.205632302e-10 -2.869798473e-10)
5(-1.187339268e-09 -1.046134513e-09 -8.622340029e-10 -4.667419419e-10 -3.080051493e-10)
5(-1.260702586e-09 -9.998345943e-10 -8.607077892e-10 -4.93226559e-10 -2.649354262e-10)
5(-1.144523702e-09 -8.423608676e-10 -6.865932729e-10 -4.006370076e-10 -1.810385367e-10)
5(-1.049505806e-09 -7.050980739e-10 -6.43309539e-10 -2.330156939e-10 -1.113027681e-10)
5(-1.018593064e-09 -6.209996612e-10 -5.171810621e-10 -2.264815873e-10 -1.049655435e-10)
5(-8.272459059e-10 -5.63526288e-10 -3.972816335e-10 -1.720551502e-10 -7.231150997e-11)
5(-7.467203656e-10 -5.02816189e-10 -3.24277715e-10 -1.420752691e-10 -5.709137458e-11)
5(-6.122472261e-10 -4.709405144e-10 -2.835753555e-10 -1.230995093e-10 -3.926269932e-11)
5(-4.869057283e-10 -3.616584816e-10 -2.039314153e-10 -1.047506177e-10 -3.12506042e-11)
5(-3.889591071e-10 -2.448862364e-10 -1.902102588e-10 -9.820622369e-11 -2.740702068e-11)
5(-3.759509825e-10 -2.552709704e-10 -1.788086002e-10 -9.783954963e-11 -2.799031907e-11)
5(-3.816196656e-10 -3.026366606e-10 -1.908872453e-10 -9.626664612e-11 -2.771004388e-11)
5(-4.544958691e-10 -3.730992143e-10 -2.367899532e-10 -1.081559946e-10 -2.787831811e-11)
5(-5.523193782e-10 -4.147262575e-10 -2.358844873e-10 -7.499468057e-11 -1.110834298e-11)
5(-6.417477047e-10 -4.062814123e-10 -2.105434613e-10 -2.331216374e-11 5.311306912e-12)
5(-6.604168595e-10 -2.590053423e-10 -7.674673958e-11 7.871388023e-11 3.262361996e-11)
5(-4.550111951e-10 1.056030947e-10 2.364830141e-10 2.190141398e-10 -3.919685607e-11)
5(1.806760156e-10 9.029818781e-10 8.608163173e-10 3.816663964e-10 -3.062969674e-11)
5(1.392788195e-09 1.783353002e-09 1.109870509e-09 3.794903027e-10 4.504183996e-11)
5(2.981594489e-09 3.000648649e-09 1.359253358e-09 2.921033647e-10 -3.094923195e-11)
5(4.864816897e-09 3.474349038e-09 1.24161523e-09 8.370899486e-11 -8.8044192e-11)
5(6.815886405e-09 3.159705991e-09 9.576877165e-10 -1.178596214e-10 5.546959258e-12)
5(6.61781704e-09 1.408835755e-09 9.409203727e-11 -2.232785241e-10 6.507537352e-12)
5(3.99510677e-09 -6.655343865e-10 -5.46575646e-10 -4.898722022e-10 2.103577899e-15)
5(3.736165316e-11 -1.67406908e-09 -6.028649591e-10 6.37180473e-15 1.287783839e-14)
5(-3.641870581e-09 -1.986306158e-09 -1.046446388e-09 6.603536168e-15 -1.10780663e-10)
5(-5.264084231e-09 -1.318064969e-09 -5.800404491e-10 3.962466426e-15 -1.374902593e-11)
5(-4.357182947e-09 -7.391575312e-10 -4.003926194e-11 3.072299085e-15 1.338095765e-15)
5(-2.355162064e-09 -2.836880403e-10 -5.589317257e-11 -6.323268584e-11 3.556860062e-16)
5(-1.904980978e-09 -5.554573565e-12 -1.966125575e-11 2.858902983e-16 5.797937644e-17)
5(-2.59911929e-10 -1.144300714e-13 -5.89826892e-12 3.751317633e-17 6.073733719e-18)
5(-3.821587209e-11 -2.618847177e-13 -8.637815815e-18 5.898054825e-18 5.037351042e-19)
5(-8.47085962e-12 -7.100641351e-18 1.178436875e-17 5.027786217e-19 1.129998379e-20)
5(-2.097498091e-12 1.987886788e-18 4.148687593e-19 4.707547076e-20 1.472509962e-21)
5(-8.190889463e-15 -3.443888485e-18 4.332189332e-20 2.825706081e-21 6.06491809e-23)
5(2.621711405e-19 -4.69220859e-20 -7.879922246e-22 -1.368571443e-23 5.411033849e-25)
5(-4.073940345e-21 9.124296996e-21 1.31563908e-23 3.094583631e-21 3.185454375e-26)
5(-1.51597842e-19 2.70199209e-19 2.068958413e-22 -2.83426686e-19 4.557910101e-28)
5(-2.270558318e-21 7.068881309e-18 -1.425335524e-20 1.461587456e-16 2.720031586e-30)
5(-4.4086397e-24 -6.19106339e-12 1.429388624e-19 -8.282163535e-14 5.41342903e-33)
5(-1.863629055e-28 6.877936816e-10 8.801893012e-13 -6.746326459e-13 5.788943595e-33)
5(2.966813771e-36 3.366956674e-35 -1.400643703e-30 3.452253932e-33 1.694108518e-32)
)


60
(
5(1.390248012e-07 5.311622513e-08 1.468729409e-07 7.384776754e-08 7.903299244e-08)
5(7.287819805e-08 4.896509293e-08 6.608754834e-08 4.59409376e-08 3.807633163e-08)
5(4.945808549e-08 4.471561727e-08 4.258536224e-08 3.498924896e-08 2.429575702e-08)
5(4.096043544e-08 4.04203562e-08 3.685541279e-08 3.075933727e-08 2.058275824e-08)
5(3.642139464e-08 3.515574287e-08 3.631617869e-08 2.844489556e-08 2.015439696e-08)
5(2.870494894e-08 2.714254126e-08 3.292778424e-08 2.484074235e-08 1.905114733e-08)
5(1.312803033e-08 1.521340673e-08 2.404122967e-08 1.86254167e-08 1.546019551e-08)
5(-1.020106481e-08 -1.423410468e-09 1.173248575e-08 1.020043211e-08 1.006423654e-08)
5(-4.004779068e-08 -2.400873073e-08 -3.819375393e-09 -4.2827494e-10 3.676928279e-09)
5(-7.445877396e-08 -5.183715642e-08 -2.293431091e-08 -1.317666902e-08 -3.76665335e-09)
5(-1.266266932e-07 -8.445418337e-08 -4.647911418e-08 -2.785916473e-08 -1.227476089e-08)
5(-1.807727604e-07 -1.225600442e-07 -7.297325986e-08 -4.345880943e-08 -2.117952234e-08)
5(-2.465035145e-07 -1.617666161e-07 -1.004856004e-07 -5.823887806e-08 -2.931568929e-08)
5(-3.165054181e-07 -2.012033088e-07 -1.262109287e-07 -7.043762465e-08 -3.566262214e-08)
5(-3.88789283e-07 -2.389481017e-07 -1.486512098e-07 -7.967393881e-08 -3.983670754e-08)
5(-4.564279275e-07 -2.716112662e-07 -1.66362128e-07 -8.568553778e-08 -4.185960383e-08)
5(-5.323271128e-07 -2.997475434e-07 -1.790602605e-07 -8.842595003e-08 -4.201002769e-08)
5(-6.042104413e-07 -3.228736676e-07 -1.877392371e-07 -8.872732085e-08 -4.080028652e-08)
5(-6.689495923e-07 -3.428482734e-07 -1.920700919e-07 -8.668793745e-08 -3.832359928e-08)
5(-7.312962732e-07 -3.560532004e-07 -1.922573909e-07 -8.256093964e-08 -3.496296056e-08)
5(-7.833980734e-07 -3.610608453e-07 -1.87279153e-07 -7.661282399e-08 -3.108059219e-08)
5(-8.295462665e-07 -3.573374536e-07 -1.778143737e-07 -6.886556944e-08 -2.696021408e-08)
5(-8.649090744e-07 -3.474572549e-07 -1.64997734e-07 -6.027103998e-08 -2.26081241e-08)
5(-8.597258501e-07 -3.27254421e-07 -1.482701181e-07 -5.153852591e-08 -1.863716397e-08)
5(-8.51279196e-07 -3.026563731e-07 -1.304049969e-07 -4.299483426e-08 -1.501035343e-08)
5(-8.167054014e-07 -2.708934126e-07 -1.106987275e-07 -3.511641234e-08 -1.209833816e-08)
5(-7.642624957e-07 -2.360361856e-07 -9.176053324e-08 -2.832090838e-08 -9.993263127e-09)
5(-7.059541354e-07 -1.988419885e-07 -7.469289947e-08 -2.320741112e-08 -8.875089843e-09)
5(-6.319456939e-07 -1.627174275e-07 -5.991073464e-08 -1.974085023e-08 -8.518417109e-09)
5(-5.487475395e-07 -1.311965013e-07 -4.837556824e-08 -1.791151492e-08 -8.898344763e-09)
5(-4.644996729e-07 -1.042955504e-07 -3.983691304e-08 -1.727405696e-08 -9.564141132e-09)
5(-3.858445092e-07 -8.264253164e-08 -3.439090627e-08 -1.704615178e-08 -9.707048669e-09)
5(-3.152145197e-07 -6.631581437e-08 -3.023715882e-08 -1.570801207e-08 -8.097637164e-09)
5(-2.494518352e-07 -5.272206531e-08 -2.496230701e-08 -1.127268313e-08 -3.804133248e-09)
5(-1.944207251e-07 -3.817254682e-08 -1.547130951e-08 -1.782520922e-09 4.585706743e-09)
5(-1.388934367e-07 -1.973294325e-08 9.077471799e-10 1.380526271e-08 1.608305808e-08)
5(-9.069577787e-08 6.706782892e-09 2.582451626e-08 3.34753765e-08 2.891852286e-08)
5(-3.665546448e-08 4.117700165e-08 5.615661931e-08 5.37077528e-08 3.867995811e-08)
5(2.269774118e-08 7.936186228e-08 8.475322922e-08 6.672534945e-08 4.028760834e-08)
5(7.98811228e-08 1.114973504e-07 9.961260676e-08 6.434867978e-08 2.969792697e-08)
5(1.267485509e-07 1.229426044e-07 9.055159292e-08 4.464476485e-08 1.224763021e-08)
5(1.431123027e-07 1.072639702e-07 5.944946674e-08 1.338781767e-08 -4.398014302e-09)
5(1.219376314e-07 6.111616185e-08 1.291680163e-08 -1.517140961e-08 -1.391383098e-08)
5(6.952367701e-08 2.548858644e-09 -2.84901029e-08 -2.946444512e-08 -1.266789654e-08)
5(-4.305864237e-11 -4.454872453e-08 -4.980806395e-08 -2.663306759e-08 -7.770598403e-09)
5(-5.674319951e-08 -6.53429408e-08 -4.720102303e-08 -1.613425138e-08 -3.167076341e-09)
5(-7.709368834e-08 -5.713874172e-08 -2.952022434e-08 -6.959910074e-09 -8.966503282e-10)
5(-6.560644106e-08 -3.555104405e-08 -1.287988836e-08 -2.073383583e-09 -1.70428212e-10)
5(-4.278898816e-08 -1.608771157e-08 -3.882112782e-09 -4.15431446e-10 -2.161933416e-11)
5(-1.710536667e-08 -4.843387362e-09 -8.267533042e-10 -4.988226698e-11 -2.146144313e-12)
5(-5.4055262e-09 -9.841864558e-10 -1.021538227e-10 -4.016877275e-12 -1.290025031e-13)
5(-8.812963711e-10 -1.217065475e-10 -7.954218789e-12 -2.186801488e-13 -6.272599793e-15)
5(-1.231888565e-10 -9.151513948e-12 -4.367098062e-13 -9.927116788e-15 -2.199899393e-16)
5(-6.309937292e-12 -3.33408023e-13 -1.258304347e-14 -5.910537853e-16 -5.887653665e-18)
5(-1.685814795e-13 7.366036976e-14 -2.756748792e-16 -4.089199544e-14 4.709869881e-18)
5(2.399017028e-15 1.066974891e-11 -5.794611982e-15 -1.281205392e-11 1.333004169e-15)
5(2.417627647e-13 1.059131808e-09 2.005213846e-13 -3.736191466e-09 3.361991305e-13)
5(-6.448420771e-12 -7.018158938e-08 -1.065874546e-11 -9.240814112e-07 7.160887169e-11)
5(2.500034465e-10 -2.873859938e-06 7.224141161e-09 -8.933135554e-07 -9.158457934e-11)
5(4.232329209e-29 -2.714001397e-10 -1.429554853e-12 -1.354745777e-10 1.013195267e-31)
)


60
(
5(4.334780321e-07 1.922320155e-07 4.202174384e-07 2.132802482e-07 1.669780339e-07)
5(3.025381474e-07 2.083745971e-07 2.38741603e-07 1.525019603e-07 9.780229158e-08)
5(2.354384802e-07 2.039973681e-07 1.781967325e-07 1.254837413e-07 7.215843388e-08)
5(1.964846725e-07 1.850007795e-07 1.595605478e-07 1.120692402e-07 6.346560905e-08)
5(1.580821966e-07 1.542972905e-07 1.497926739e-07 1.013627816e-07 5.980302744e-08)
5(8.588376909e-08 1.047065561e-07 1.264444301e-07 8.508301218e-08 5.46520595e-08)
5(-4.084861731e-08 2.781916121e-08 8.034105137e-08 5.931947079e-08 4.398898935e-08)
5(-2.217635119e-07 -7.936786664e-08 1.45874959e-08 2.466093594e-08 2.904173177e-08)
5(-4.48333933e-07 -2.221738598e-07 -6.826890112e-08 -1.889907018e-08 1.053483591e-08)
5(-7.583967106e-07 -4.059505883e-07 -1.734929602e-07 -7.211926706e-08 -1.168601507e-08)
5(-1.172742321e-06 -6.314255544e-07 -3.00195151e-07 -1.345147e-07 -3.814873472e-08)
5(-1.681270296e-06 -8.967713423e-07 -4.47971018e-07 -2.028717573e-07 -6.724314632e-08)
5(-2.244097936e-06 -1.177849584e-06 -6.045178399e-07 -2.710443394e-07 -9.608834865e-08)
5(-2.899525778e-06 -1.465463653e-06 -7.570052169e-07 -3.324571283e-07 -1.213716589e-07)
5(-3.581581299e-06 -1.751273694e-06 -8.922112091e-07 -3.83095466e-07 -1.404363304e-07)
5(-4.364912445e-06 -2.017255353e-06 -1.009713815e-06 -4.197934595e-07 -1.532049763e-07)
5(-5.067784106e-06 -2.265519473e-06 -1.100328213e-06 -4.417326085e-07 -1.589891915e-07)
5(-5.843080645e-06 -2.471736284e-06 -1.169191114e-06 -4.516195969e-07 -1.600284132e-07)
5(-6.62319063e-06 -2.637111364e-06 -1.205244769e-06 -4.505321024e-07 -1.557805069e-07)
5(-7.353800464e-06 -2.757247308e-06 -1.216037591e-06 -4.390093831e-07 -1.475793257e-07)
5(-8.213221361e-06 -2.826992544e-06 -1.19911529e-06 -4.182040714e-07 -1.359672443e-07)
5(-8.682555303e-06 -2.833148664e-06 -1.156447384e-06 -3.872213027e-07 -1.226766939e-07)
5(-9.295386434e-06 -2.781964116e-06 -1.086501379e-06 -3.489149897e-07 -1.080791538e-07)
5(-9.622456943e-06 -2.669761172e-06 -9.953782504e-07 -3.074791289e-07 -9.264560185e-08)
5(-9.998557365e-06 -2.506287293e-06 -8.879500326e-07 -2.646567951e-07 -7.79148795e-08)
5(-9.97026992e-06 -2.297376841e-06 -7.729757727e-07 -2.206328206e-07 -6.45612821e-08)
5(-9.874984606e-06 -2.058549926e-06 -6.515784092e-07 -1.807694933e-07 -5.287126126e-08)
5(-9.856879954e-06 -1.783374053e-06 -5.357167083e-07 -1.446245985e-07 -4.445055313e-08)
5(-9.225105937e-06 -1.521127692e-06 -4.289601702e-07 -1.155871927e-07 -3.812985066e-08)
5(-8.755790693e-06 -1.266712446e-06 -3.332547809e-07 -9.300591574e-08 -3.504643849e-08)
5(-8.03006155e-06 -1.017642446e-06 -2.557780812e-07 -7.726577261e-08 -3.423557485e-08)
5(-7.289100387e-06 -8.129335066e-07 -1.968346782e-07 -6.672732497e-08 -3.365770175e-08)
5(-6.390288084e-06 -6.514982134e-07 -1.524979673e-07 -5.808166684e-08 -3.105965608e-08)
5(-5.489098336e-06 -5.031708556e-07 -1.163172414e-07 -4.697714224e-08 -2.215640777e-08)
5(-4.569933572e-06 -3.844836324e-07 -8.334183944e-08 -2.765107141e-08 -4.652648428e-09)
5(-4.01260378e-06 -2.781619058e-07 -4.374669936e-08 4.388183002e-09 2.636070942e-08)
5(-2.966068796e-06 -1.782355095e-07 9.05549188e-09 5.046348601e-08 6.378607604e-08)
5(-2.179460286e-06 -7.194628127e-08 7.587711011e-08 1.055831217e-07 1.024796511e-07)
5(-1.445873568e-06 3.936340023e-08 1.484584975e-07 1.555675844e-07 1.26299153e-07)
5(-8.55831241e-07 1.397151965e-07 2.068059668e-07 1.814022131e-07 1.261066347e-07)
5(-4.492664637e-07 2.139107946e-07 2.299925491e-07 1.664882968e-07 8.882734933e-08)
5(-7.130919597e-08 2.380422917e-07 1.980791593e-07 1.089782362e-07 3.671713094e-08)
5(9.478399004e-08 1.961401711e-07 1.162480697e-07 2.676581596e-08 -1.646861591e-08)
5(1.288307298e-07 1.000969696e-07 1.038648671e-08 -4.331489463e-08 -4.633418383e-08)
5(6.737035436e-08 -1.266859582e-08 -7.580288571e-08 -7.782456238e-08 -4.75670264e-08)
5(-2.482603236e-08 -9.746876488e-08 -1.141614251e-07 -7.409653091e-08 -3.160210819e-08)
5(-1.109387886e-07 -1.271250948e-07 -1.004499844e-07 -4.788708411e-08 -1.599272169e-08)
5(-1.307621671e-07 -1.072527445e-07 -6.333514476e-08 -2.265605899e-08 -5.264332551e-09)
5(-1.047983812e-07 -6.47318948e-08 -2.815788612e-08 -8.005791214e-09 -1.310077188e-09)
5(-6.325929099e-08 -2.829006673e-08 -9.225650671e-09 -1.826656905e-09 -2.165162289e-10)
5(-2.73535785e-08 -8.652794292e-09 -2.026213987e-09 -3.044423245e-10 -2.238069112e-11)
5(-7.478366869e-09 -1.696328348e-09 -2.763062065e-10 -3.153194186e-11 -1.948394013e-12)
5(-1.239898673e-09 -2.10542586e-10 -2.40027289e-11 -2.120324905e-12 -9.451592957e-14)
5(-9.461161969e-11 -1.460602732e-11 -1.119646049e-12 -7.240567067e-14 -2.804988685e-15)
5(-5.669031761e-12 3.765214097e-12 -3.987846942e-14 2.72907583e-12 -5.86249506e-16)
5(2.15258246e-13 9.100667288e-10 -2.964340292e-12 6.345447404e-10 -1.047838159e-13)
5(6.265273668e-11 2.289120556e-07 -7.842141065e-10 1.635561244e-07 -2.345499326e-11)
5(1.43580579e-08 7.20040231e-05 -1.971532877e-07 4.916052586e-05 -5.929313245e-09)
5(2.33263967e-06 0.03224149983 -9.370544069e-07 0.01775516343 -1.546305169e-06)
5(1.075331693e-25 0.3287438577 -3.101090188e-12 0.1933533263 7.509462802e-31)
)


60
(
5(1.124360902e-06 5.567230599e-07 1.007308116e-06 5.04580124e-07 3.137487882e-07)
5(9.495186658e-07 6.757757289e-07 6.722853828e-07 3.897624257e-07 2.022288374e-07)
5(8.092621405e-07 6.968174508e-07 5.481408948e-07 3.345203798e-07 1.588159384e-07)
5(6.782014232e-07 6.444069811e-07 5.036552489e-07 3.028706343e-07 1.423935941e-07)
5(5.021009897e-07 5.422643169e-07 4.678460617e-07 2.735893512e-07 1.347002163e-07)
5(1.750572597e-07 3.699505394e-07 3.884347975e-07 2.301625361e-07 1.24974281e-07)
5(-3.728673278e-07 1.040730284e-07 2.445247133e-07 1.636727456e-07 1.054976038e-07)
5(-1.139406662e-06 -2.774458853e-07 4.097055477e-08 7.26858257e-08 7.628977502e-08)
5(-2.194772746e-06 -7.940712912e-07 -2.207117273e-07 -4.303182559e-08 3.868900904e-08)
5(-3.592015967e-06 -1.447824375e-06 -5.522904053e-07 -1.866208855e-07 -9.18893432e-09)
5(-5.370109953e-06 -2.268382782e-06 -9.599871797e-07 -3.591788011e-07 -6.977761667e-08)
5(-7.67857136e-06 -3.222110381e-06 -1.433895929e-06 -5.548164287e-07 -1.408566356e-07)
5(-1.045036228e-05 -4.285018269e-06 -1.944402527e-06 -7.572510205e-07 -2.163879458e-07)
5(-1.347429385e-05 -5.398181273e-06 -2.451329684e-06 -9.49862584e-07 -2.910867795e-07)
5(-1.673707938e-05 -6.518226574e-06 -2.91620425e-06 -1.120441835e-06 -3.524520297e-07)
5(-2.045904695e-05 -7.571468371e-06 -3.320186063e-06 -1.254793845e-06 -4.011259775e-07)
5(-2.463737723e-05 -8.522610927e-06 -3.646916448e-06 -1.345293766e-06 -4.322812895e-07)
5(-2.856522881e-05 -9.370877675e-06 -3.891950913e-06 -1.399898094e-06 -4.48620327e-07)
5(-3.332745621e-05 -1.006869085e-05 -4.047096927e-06 -1.41743176e-06 -4.514150382e-07)
5(-3.77338185e-05 -1.066406272e-05 -4.119541428e-06 -1.403767698e-06 -4.403109313e-07)
5(-4.248164347e-05 -1.108772395e-05 -4.090059662e-06 -1.357619646e-06 -4.201800052e-07)
5(-4.763857599e-05 -1.127389523e-05 -3.992347305e-06 -1.28413826e-06 -3.922547708e-07)
5(-5.259081452e-05 -1.132437705e-05 -3.811590016e-06 -1.182940627e-06 -3.58532546e-07)
5(-5.604915522e-05 -1.121825266e-05 -3.559659884e-06 -1.067044524e-06 -3.195877149e-07)
5(-5.998450564e-05 -1.093138833e-05 -3.244380267e-06 -9.417941685e-07 -2.75816018e-07)
5(-6.392044735e-05 -1.043283781e-05 -2.886967756e-06 -8.106534744e-07 -2.349668218e-07)
5(-6.687050589e-05 -9.863412116e-06 -2.507539537e-06 -6.78154087e-07 -1.97139822e-07)
5(-6.995715561e-05 -9.151590125e-06 -2.134222911e-06 -5.552550006e-07 -1.615440295e-07)
5(-7.054190194e-05 -8.371370491e-06 -1.770764938e-06 -4.467387137e-07 -1.360503397e-07)
5(-7.013657709e-05 -7.596261548e-06 -1.433783775e-06 -3.52406749e-07 -1.133096817e-07)
5(-6.929903933e-05 -6.794010957e-06 -1.145635645e-06 -2.783385609e-07 -9.959065214e-08)
5(-6.675613686e-05 -6.035586149e-06 -9.134952559e-07 -2.225703794e-07 -8.89645483e-08)
5(-6.221725083e-05 -5.293980153e-06 -7.145069917e-07 -1.789565737e-07 -8.009816884e-08)
5(-5.784206863e-05 -4.535946726e-06 -5.53723192e-07 -1.429829396e-07 -6.528982127e-08)
5(-5.05036983e-05 -3.879537017e-06 -4.211512998e-07 -1.029936745e-07 -3.552424864e-08)
5(-4.358438388e-05 -3.155779521e-06 -3.042147558e-07 -4.90648358e-08 9.38277827e-09)
5(-3.649115263e-05 -2.524592806e-06 -1.856892273e-07 2.567580079e-08 7.847977408e-08)
5(-2.834443358e-05 -1.921875819e-06 -4.78713731e-08 1.201956276e-07 1.588738238e-07)
5(-2.181492988e-05 -1.32264655e-06 9.966856651e-08 2.220211249e-07 2.285126681e-07)
5(-1.538626019e-05 -7.828065604e-07 2.406233685e-07 3.025848705e-07 2.619865716e-07)
5(-9.432098596e-06 -3.174370182e-07 3.374937832e-07 3.278426031e-07 2.35802815e-07)
5(-5.81801959e-06 1.7045286e-08 3.569052366e-07 2.803567057e-07 1.565865852e-07)
5(-2.89612528e-06 1.762335425e-07 2.838860967e-07 1.616171959e-07 3.608979286e-08)
5(-1.214663673e-06 1.784738598e-07 1.378655542e-07 1.656833687e-08 -6.356048353e-08)
5(-3.610832811e-07 7.418210305e-08 -2.763324976e-08 -9.853786634e-08 -1.061616212e-07)
5(-1.130755201e-07 -6.364716172e-08 -1.472688756e-07 -1.466514182e-07 -9.864194591e-08)
5(-1.237201114e-07 -1.673603833e-07 -1.814904718e-07 -1.320245747e-07 -6.626086314e-08)
5(-1.765687251e-07 -1.897138497e-07 -1.52427018e-07 -8.29640528e-08 -3.138545192e-08)
5(-1.739884651e-07 -1.457106782e-07 -9.006715611e-08 -3.898879456e-08 -1.152864947e-08)
5(-1.42096651e-07 -8.361411471e-08 -3.729303953e-08 -1.274187866e-08 -2.984785754e-09)
5(-8.352778053e-08 -3.502172013e-08 -1.132472699e-08 -3.091770952e-09 -5.079357759e-10)
5(-3.376792424e-08 -9.698367469e-09 -2.365045232e-09 -4.730847666e-10 -4.959071671e-11)
5(-7.926266686e-09 -1.826930854e-09 -3.025533883e-10 -4.761725891e-11 -4.11783762e-12)
5(-1.304476605e-09 -2.038510301e-10 -2.224843758e-11 -3.33159449e-12 -1.883702752e-13)
5(-1.233565416e-10 -4.327596124e-11 -3.980301335e-13 -3.530864802e-11 5.301415823e-15)
5(-4.823247446e-12 -5.266741689e-09 7.595719375e-11 -5.971432835e-09 1.398965785e-12)
5(-2.710631627e-10 -1.139050703e-06 1.534038741e-08 -1.245571197e-06 2.558950033e-10)
5(-4.54616198e-08 -0.0003311173566 4.089902515e-06 -0.0003454961652 6.054354256e-08)
5(3.273150182e-06 -0.07290536464 0.001603348506 -0.1239694548 1.374157848e-05)
5(0.06863741234 -651.9112431 -0.02614639221 -501.8200669 0.4660117615)
)


60
(
5(2.508072574e-06 1.369184333e-06 2.09625084e-06 1.033356328e-06 5.46661775e-07)
5(2.402525597e-06 1.779892374e-06 1.56850963e-06 8.389231445e-07 3.738161714e-07)
5(2.14623901e-06 1.894211109e-06 1.359213385e-06 7.404455219e-07 3.046959989e-07)
5(1.758321091e-06 1.77959796e-06 1.272442135e-06 6.792662192e-07 2.778728675e-07)
5(1.139812557e-06 1.5203969e-06 1.183057252e-06 6.191167637e-07 2.673655585e-07)
5(6.609312268e-09 1.085483996e-06 9.922555697e-07 5.323625635e-07 2.554203473e-07)
5(-1.854028856e-06 3.925220464e-07 6.623959651e-07 4.001548991e-07 2.295398463e-07)
5(-4.413717257e-06 -5.993319024e-07 1.945023617e-07 2.205667767e-07 1.859308829e-07)
5(-7.842500516e-06 -1.942071232e-06 -4.147657527e-07 -1.495308769e-08 1.245384756e-07)
5(-1.252620761e-05 -3.707574093e-06 -1.18673599e-06 -3.136839765e-07 3.77756396e-08)
5(-1.848416531e-05 -5.849284215e-06 -2.13751965e-06 -6.830140141e-07 -7.531112272e-08)
5(-2.628173297e-05 -8.441840851e-06 -3.255980172e-06 -1.112157125e-06 -2.206757366e-07)
5(-3.552807196e-05 -1.135853613e-05 -4.484028236e-06 -1.581116663e-06 -3.875845923e-07)
5(-4.745493478e-05 -1.442384785e-05 -5.746746176e-06 -2.051534898e-06 -5.61125272e-07)
5(-5.900847678e-05 -1.760990821e-05 -6.952425275e-06 -2.487967416e-06 -7.249829529e-07)
5(-7.25494954e-05 -2.071928805e-05 -8.055495299e-06 -2.852101864e-06 -8.646898047e-07)
5(-8.866278523e-05 -2.376012301e-05 -8.940239038e-06 -3.134532816e-06 -9.667156966e-07)
5(-0.0001059016904 -2.652534399e-05 -9.636417496e-06 -3.335996361e-06 -1.039362067e-06)
5(-0.0001248773718 -2.906951823e-05 -1.016014508e-05 -3.434109986e-06 -1.074902269e-06)
5(-0.0001459865563 -3.145979913e-05 -1.045972074e-05 -3.460214243e-06 -1.083825973e-06)
5(-0.0001688207561 -3.36134116e-05 -1.056148489e-05 -3.404009618e-06 -1.059773759e-06)
5(-0.0001919384625 -3.539361148e-05 -1.048703135e-05 -3.28721124e-06 -1.02167007e-06)
5(-0.0002187739746 -3.704397617e-05 -1.026165672e-05 -3.109950286e-06 -9.594939835e-07)
5(-0.000247818456 -3.832096326e-05 -9.853063972e-06 -2.876766827e-06 -8.747645622e-07)
5(-0.000273215467 -3.938924056e-05 -9.278332524e-06 -2.600278343e-06 -7.83874481e-07)
5(-0.0003029792192 -4.050665569e-05 -8.614183186e-06 -2.300657929e-06 -6.89673544e-07)
5(-0.0003241799898 -4.046225374e-05 -7.912697677e-06 -1.990029243e-06 -5.866520914e-07)
5(-0.0003499109972 -4.064698665e-05 -7.169281838e-06 -1.687755945e-06 -4.932583036e-07)
5(-0.0003698168647 -4.088570127e-05 -6.380680859e-06 -1.396757061e-06 -4.078583406e-07)
5(-0.0003920682376 -4.032090326e-05 -5.630521269e-06 -1.138145556e-06 -3.370411814e-07)
5(-0.0003995586393 -3.887919832e-05 -4.976487701e-06 -9.115106583e-07 -2.787085609e-07)
5(-0.0003940203925 -3.756669572e-05 -4.374651082e-06 -7.293740327e-07 -2.349165176e-07)
5(-0.0003827971488 -3.547285834e-05 -3.781761455e-06 -5.787965679e-07 -1.974786178e-07)
5(-0.0003643090849 -3.331196015e-05 -3.204761218e-06 -4.605535725e-07 -1.618672404e-07)
5(-0.0003428326084 -3.016766989e-05 -2.712861158e-06 -3.5506347e-07 -1.171057899e-07)
5(-0.0003097272636 -2.62588845e-05 -2.238616461e-06 -2.477328247e-07 -5.175697684e-08)
5(-0.0002634082435 -2.28517772e-05 -1.770673274e-06 -1.262836679e-07 4.485549239e-08)
5(-0.0002168350128 -1.889054144e-05 -1.29921516e-06 2.265215277e-08 1.758351953e-07)
5(-0.0001668681711 -1.410506703e-05 -8.333353481e-07 1.929497524e-07 3.006251166e-07)
5(-0.0001223199469 -1.021533598e-05 -3.901699175e-07 3.541089784e-07 4.029403919e-07)
5(-8.452447068e-05 -6.777276352e-06 -4.539301549e-09 4.618850521e-07 4.375232641e-07)
5(-5.272994811e-05 -4.068276357e-06 2.542441307e-07 4.734613589e-07 3.670456151e-07)
5(-3.00226081e-05 -2.176200709e-06 3.495130658e-07 3.722944096e-07 2.09657976e-07)
5(-1.58458992e-05 -9.197108646e-07 2.743980388e-07 1.781661093e-07 2.238089213e-08)
5(-6.811976652e-06 -3.188472623e-07 1.022035209e-07 -3.065678008e-08 -1.365615162e-07)
5(-2.601369019e-06 -1.521906166e-07 -9.65552024e-08 -1.792903175e-07 -2.030903263e-07)
5(-8.86068112e-07 -1.852920893e-07 -2.247450715e-07 -2.323169258e-07 -1.773534294e-07)
5(-3.429945361e-07 -2.446217995e-07 -2.456027061e-07 -1.883457981e-07 -1.11736715e-07)
5(-2.588868818e-07 -2.427166572e-07 -1.876076299e-07 -1.12722185e-07 -5.140499429e-08)
5(-2.418729317e-07 -1.820753988e-07 -1.036285772e-07 -5.170563838e-08 -1.71172544e-08)
5(-1.785445053e-07 -1.036963153e-07 -4.205789863e-08 -1.65999356e-08 -4.331093461e-09)
5(-1.060704163e-07 -3.967679173e-08 -1.202540135e-08 -3.864971042e-09 -8.740106455e-10)
5(-5.471870391e-08 -1.18660303e-08 -2.332694751e-09 -5.607815582e-10 -6.459947771e-11)
5(-1.53986037e-08 -2.404143793e-09 -2.720678783e-10 -4.969417078e-11 -5.58443864e-12)
5(-1.79297149e-09 -3.136331493e-10 -1.854771344e-11 -4.973668627e-11 -1.790590239e-13)
5(-3.112361009e-10 -5.764774652e-09 3.317061171e-11 -6.337212957e-09 1.949461761e-12)
5(-1.999578989e-10 -1.11037539e-06 5.588897979e-09 -1.030582678e-06 2.808251996e-10)
5(-1.668044917e-08 -0.0002737831097 1.031982829e-06 -0.0002132904904 4.971669862e-08)
5(1.110738689e-05 -0.1138662111 6.446631707e-07 -0.06285506106 7.669887056e-06)
5(5.293205527e-14 -0.9995190071 -1.905206716e-10 -0.4913173511 0.003934827016)
)


60
(
5(4.934019768e-06 2.938247222e-06 3.901963399e-06 1.89876706e-06 9.016399507e-07)
5(5.086755698e-06 3.96681502e-06 3.165979951e-06 1.588077357e-06 6.389073965e-07)
5(4.554364494e-06 4.280751331e-06 2.859707307e-06 1.425598533e-06 5.317984824e-07)
5(3.453196229e-06 4.045706175e-06 2.710747687e-06 1.321183971e-06 4.958581735e-07)
5(1.48834024e-06 3.47328542e-06 2.520962419e-06 1.21996424e-06 4.861728495e-07)
5(-2.039559692e-06 2.487626745e-06 2.14450166e-06 1.079196225e-06 4.780592941e-07)
5(-7.357878423e-06 9.426548029e-07 1.505928287e-06 8.639321178e-07 4.56906159e-07)
5(-1.481386942e-05 -1.252506966e-06 6.072882593e-07 5.636517762e-07 4.019192138e-07)
5(-2.475634146e-05 -4.270804893e-06 -5.757449974e-07 1.61151737e-07 3.167283062e-07)
5(-3.820570676e-05 -8.163465793e-06 -2.071605139e-06 -3.670908407e-07 1.87184764e-07)
5(-5.592459509e-05 -1.314084055e-05 -3.949712852e-06 -1.034683767e-06 -4.32045264e-09)
5(-7.820696537e-05 -1.906821504e-05 -6.186349994e-06 -1.846443741e-06 -2.629564941e-07)
5(-0.0001066232066 -2.595799232e-05 -8.716836069e-06 -2.766657161e-06 -5.840053918e-07)
5(-0.0001389445617 -3.360813333e-05 -1.137854055e-05 -3.735308804e-06 -9.369543488e-07)
5(-0.0001789188991 -4.170352205e-05 -1.402634234e-05 -4.68236892e-06 -1.295701219e-06)
5(-0.0002239559172 -5.013241896e-05 -1.65294394e-05 -5.533895328e-06 -1.619326353e-06)
5(-0.0002756228393 -5.846872256e-05 -1.875304729e-05 -6.240108643e-06 -1.894109347e-06)
5(-0.0003382608784 -6.717396948e-05 -2.066452824e-05 -6.765697593e-06 -2.10320292e-06)
5(-0.0004024547064 -7.585476707e-05 -2.217210514e-05 -7.124656288e-06 -2.237780872e-06)
5(-0.0004816791919 -8.478553068e-05 -2.338605813e-05 -7.324600521e-06 -2.325223891e-06)
5(-0.0005686998418 -9.389452108e-05 -2.425428035e-05 -7.370912252e-06 -2.335132773e-06)
5(-0.0006590988072 -0.0001030642846 -2.480607e-05 -7.288158012e-06 -2.292979187e-06)
5(-0.0007759631263 -0.0001128217511 -2.518841808e-05 -7.051374744e-06 -2.204746436e-06)
5(-0.0008918233826 -0.0001232999123 -2.527662841e-05 -6.698866166e-06 -2.076460128e-06)
5(-0.001005924215 -0.0001336228187 -2.514039688e-05 -6.274232878e-06 -1.912778633e-06)
5(-0.001141003463 -0.0001434786964 -2.497081662e-05 -5.760392526e-06 -1.725088019e-06)
5(-0.001288544171 -0.0001539238227 -2.461407134e-05 -5.191589878e-06 -1.520790308e-06)
5(-0.001417957682 -0.0001644260879 -2.399836958e-05 -4.635657204e-06 -1.322593341e-06)
5(-0.00150490845 -0.0001732575795 -2.322947678e-05 -4.071551078e-06 -1.113760475e-06)
5(-0.00161725358 -0.0001784588253 -2.261214323e-05 -3.508331134e-06 -9.27383635e-07)
5(-0.001693550768 -0.0001848688113 -2.196886718e-05 -3.022546436e-06 -7.69292078e-07)
5(-0.001752987152 -0.0001898367074 -2.092038139e-05 -2.581017209e-06 -6.288638397e-07)
5(-0.001751466093 -0.0001859674174 -1.978343933e-05 -2.195584584e-06 -5.133124213e-07)
5(-0.00167892944 -0.0001802592657 -1.845016306e-05 -1.856371789e-06 -4.200672419e-07)
5(-0.001612416862 -0.0001703870231 -1.707338151e-05 -1.546779061e-06 -3.240663242e-07)
5(-0.001462781716 -0.0001577675799 -1.532596959e-05 -1.266874282e-06 -2.17204198e-07)
5(-0.001321374471 -0.0001417337206 -1.308768936e-05 -9.825072776e-07 -7.788734981e-08)
5(-0.001110153929 -0.0001198118548 -1.085550339e-05 -6.603448788e-07 9.890372669e-08)
5(-0.0009062116221 -9.647384902e-05 -8.555358002e-06 -3.046059235e-07 3.001239496e-07)