/*--------------------------------*- C++ -*----------------------------------*\
| =========                 |                                                 |
| \\      /  F ield         | OpenFOAM: The Open Source CFD Toolbox           |
|  \\    /   O peration     | Version:  2.3.1                                 |
|   \\  /    A nd           | Web:      www.OpenFOAM.org                      |
|    \\/     M anipulation  |                                                 |
\*---------------------------------------------------------------------------*/
FoamFile
{
    version     2.0;
    format      ascii;
    class       dictionary;
    location    "constant";
    object      la_r9;
}
// * * * * * * * * * * * * * * * * * * * * * * * * * * * * * * * * * * * * * //

la_r9_table
60
(

60
(
5(-2.473210148 -1.462160266 -6.211996102 -4.88735193 -11.93702542)
5(-1.010476306 -0.2694895977 -2.083127531 -1.795212424 -3.014117717)
5(-2.067151537 -0.4474523262 -0.7961946831 -0.6466839944 -0.0157074822)
5(-9.785958193 -0.4975709411 -0.7893823104 -0.1961589788 -1.023632141)
5(-12.66694459 -0.4311618885 -0.7863160341 -0.5595238176 -0.6048732327)
5(-11.17170512 -0.3790476789 -0.2947565681 -0.6054334656 -0.4386471775)
5(-0.4105262551 -0.360080498 -0.3976510067 -0.431048414 -1.035864812)
5(-0.2178331292 -0.398281284 -0.7038531346 -0.5962012326 -0.3253222873)
5(-14.69629648 -0.4866844476 -0.7606605279 -0.7268046398 -0.6659680528)
5(-24.87449064 -0.8401872433 -1.135150145 -0.8020799876 -0.8932923925)
5(-28.26423943 -1.128529843 -1.259564247 -1.01970549 -1.084717309)
5(-8.477326211 -0.8583449592 -1.198476694 -1.171316003 -1.205177378)
5(-0.6110143654 -1.053313079 -1.32720026 -1.57399092 -1.541650015)
5(-0.8746572339 -1.30167811 -1.655012893 -1.67338298 -1.747423255)
5(-0.9146229429 -1.481871866 -1.88871623 -2.192567177 -2.111571046)
5(-1.874331659 -2.785867229 -2.726749998 -2.949179967 -2.701974229)
5(-2.201626711 -3.007819283 -3.435220314 -3.384124136 -3.348229306)
5(-1.989255357 -3.185128094 -3.452340348 -4.029541525 -4.086204544)
5(-1.929729881 -3.29978795 -4.042715867 -4.671083746 -5.312990988)
5(-2.382036208 -3.726464224 -4.907886974 -5.836212282 -6.03475033)
5(-2.719447634 -4.122186935 -5.380285986 -6.505199579 -6.308195745)
5(-3.138242873 -4.586250593 -6.389494158 -6.294877969 -6.381666949)
5(-3.718479032 -5.215921798 -6.982091751 -7.581202933 -7.589443755)
5(-4.058231141 -6.015192284 -7.529094402 -8.168264779 -8.017482158)
5(-4.678823046 -7.090800552 -8.259309919 -9.020683739 -8.76094538)
5(-5.083600304 -8.570878861 -9.206780996 -9.882631474 -8.888286858)
5(-5.395007782 -8.495439179 -9.167292945 -10.27211079 -9.000263632)
5(-5.619897891 -7.393659695 -9.629617499 -10.41156881 -8.932329245)
5(-6.128289048 -7.737622868 -9.499617774 -10.09457101 -8.959570852)
5(-6.341739879 -8.069117599 -9.45488152 -9.409344098 -8.427624967)
5(-6.639416219 -8.27627307 -9.630907315 -9.749517234 -8.013940299)
5(-6.730034018 -8.130968046 -9.050728809 -8.962832537 -6.52528059)
5(-6.656254054 -8.128929685 -8.795807157 -8.531931735 -6.869608295)
5(-6.688153357 -8.029862403 -8.571245826 -8.018736625 -5.778765404)
5(-6.613714532 -7.488166089 -7.858776733 -7.548506006 5.366940204)
5(-6.360644491 -7.30582462 -8.178051873 -7.229740505 11.83120169)
5(-5.93132074 -6.524337647 -7.178992566 -6.724330684 -4.272186472)
5(-5.146245324 -6.018372036 -6.535580403 -5.652672982 2.171211728)
5(-4.270018184 -5.490180108 -4.843549443 -4.97167361 5.272668738)
5(-3.41532108 -4.81068688 -6.686611537 -4.751165482 9.078787399)
5(-2.524006093 -3.710730802 -8.529692008 20.51166476 20.26826989)
5(-2.005715562 -2.333068498 -5.934354748 215.8074842 -0.02128759568)
5(-1.088732202 -3.403954649 -3.825822482 -0.01720499384 -0.0192098539)
5(0.141957358 -5.177462925 3.128460606 -0.01643242322 18.30165813)
5(1.243276158 -7.371949709 23.34227764 -0.02083309688 1.929878779)
5(1.012533777 -2.596100705 2.110936773 0.01152135155 -0.01123940861)
5(-0.1500384208 20.32455669 185.8737578 1.587959237 -0.01623103876)
5(24.35030852 0.9823466212 25.28985008 0.07312584376 0.008240807349)
5(2.444229843 0.3178165482 1.419885754 0.08469260533 0.097082715)
5(1.562906144 9.963692827 0.07984891566 0.04835129524 0.09585699349)
5(65.72947118 0.04408945519 -0.01874760198 0.06452876944 0.261740539)
5(182.1266441 0.01578617085 0.02035455813 0.006652362578 0.1095864031)
5(27.53806644 0.2740660355 -0.02589001732 -0.03309867217 0.08256725749)
5(-0.01096208002 0.1147880323 0.1116460897 0.1270933369 0.274435534)
5(0.01628146862 0.183892325 0.008746638847 -0.01153677445 0.05714926916)
5(45.01727015 0.03885634303 -0.04665477078 0.107713654 -0.04649742084)
5(139.1592063 0.01568634394 -0.03570359486 -0.03384674001 -0.1267101209)
5(141.5481742 65.36828444 0.05326048453 0.01655204273 0.309442573)
5(78.62525088 81.62469403 52.44049585 0.1209399637 0.8927541378)
5(-0.08847397299 -0.1290311404 -0.2027305498 -0.2996288797 -0.3864894249)
)


60
(
5(-4.676680383 -4.649544544 -12.82718899 -14.01291501 -27.97775126)
5(-3.179027666 -4.054667031 -7.490493877 -9.280099232 -13.88018696)
5(-2.57385097 -3.863337548 -5.60123454 -7.549077334 -9.165607171)
5(-2.458134816 -3.945025484 -5.325470789 -7.281142567 -8.251657479)
5(-2.670423315 -4.258343712 -5.881120413 -7.74910848 -8.954773166)
5(-3.072436951 -4.74149302 -6.687057613 -8.467241654 -9.92031951)
5(-3.51714355 -5.337854053 -7.408634884 -9.161696858 -10.38855407)
5(-3.982104289 -6.045709701 -8.135604016 -9.868835678 -10.59452212)
5(-4.533511478 -6.891889411 -8.956415138 -10.68352851 -10.88082167)
5(-5.258237609 -7.934573928 -10.03578449 -11.76403815 -11.46278987)
5(-6.149375553 -9.196222597 -11.41884116 -13.17438465 -12.55651578)
5(-7.26683345 -10.71440655 -13.15831962 -15.01590315 -14.28190509)
5(-8.59193595 -12.5542735 -15.28447376 -17.430264 -16.71539572)
5(-10.16153645 -14.75388261 -17.89610425 -20.58963877 -20.19674857)
5(-12.02725933 -17.40656843 -21.12175922 -24.61524781 -24.85216415)
5(-14.2651743 -20.58093784 -25.11293142 -29.6424818 -30.78992347)
5(-16.89358864 -24.32007635 -29.9464309 -35.77685271 -38.03741277)
5(-19.97127111 -28.70429516 -35.65256152 -42.91962969 -46.44623106)
5(-23.5379556 -33.66549648 -42.21046877 -50.97456693 -55.72074049)
5(-27.54365504 -39.18927796 -49.40902023 -59.63850222 -65.63752473)
5(-31.98448308 -45.16775862 -57.14649234 -68.50308493 -75.26351947)
5(-36.72448288 -51.38357838 -65.01013177 -77.26276808 -84.35270325)
5(-41.62680958 -57.56778381 -72.62839162 -85.21445157 -92.47828924)
5(-46.72001652 -63.52496425 -79.77844114 -91.87722718 -98.62905168)
5(-51.49557821 -68.71216516 -85.65264742 -96.98235473 -102.8547801)
5(-55.99056556 -73.01869469 -90.35425878 -100.2505572 -104.8570675)
5(-59.77356676 -75.893155 -93.08204831 -101.3701121 -104.1835414)
5(-62.47169536 -77.69144692 -93.66137139 -99.98025558 -100.1879454)
5(-64.10619079 -77.89556109 -92.3044853 -96.11881259 -95.66781442)
5(-64.54243653 -75.93643714 -88.72986304 -90.41268062 -87.63054102)
5(-63.44669613 -72.16179803 -83.31586672 -82.77616368 -79.36920673)
5(-60.67951307 -66.80855857 -75.22791905 -73.68793899 -69.19833124)
5(-56.03652801 -59.30786776 -66.31443938 -63.42034043 -58.64082631)
5(-49.78912482 -50.03016715 -55.18875914 -52.78508509 -47.26579507)
5(-41.01796442 -40.19948996 -44.27598128 -41.50689703 -37.99300756)
5(-32.68238658 -28.37969841 -31.68380092 -30.49626108 -26.51766274)
5(-19.54051089 -16.11189098 -20.12371605 -18.52660919 -16.82622841)
5(-8.901033015 -5.401557068 -10.87765825 -10.33321048 -9.267320359)
5(2.830732728 9.714530889 -1.610916034 -4.748113141 -3.895393213)
5(17.56738109 18.73456777 7.951800761 1.456138553 3.490410211)
5(31.29445593 33.97974859 23.08078511 5.93846888 10.31008178)
5(52.25154207 35.80098561 25.64536644 6.593137473 12.17498798)
5(58.49423964 42.74756635 29.9288089 5.401601206 17.75539013)
5(69.84952653 62.68776801 32.40463494 15.44813067 19.49271553)
5(82.85209138 65.61444302 39.59500704 29.63896027 20.29013537)
5(105.4940562 73.20373314 39.2862602 38.7480996 15.95306702)
5(129.0904896 75.69986294 40.19662375 41.97223255 13.82305277)
5(142.3082669 78.19012357 47.25445202 39.86588026 15.96443488)
5(125.2320179 62.21797209 52.32293939 36.46600647 9.562784051)
5(133.8778734 53.96757122 50.63622122 26.43652154 8.751065881)
5(110.7258713 63.66686715 44.90077501 21.77115116 13.81972581)
5(112.0230313 63.44735935 42.90349777 15.72893957 4.960368238)
5(72.67067057 47.80244019 29.68079634 14.61246535 27.21470794)
5(50.68719231 47.48839827 17.9509694 9.107086935 3.953576375)
5(51.61244737 19.9824298 12.0464217 4.880404859 4.464411745)
5(31.05185845 13.90340727 9.446135472 4.398630942 1.99945157)
5(25.45187378 10.88606369 4.701922436 5.808608378 10.14778098)
5(8.526818059 12.68049913 9.80185399 13.79093586 3.408920724)
5(43.75048558 29.54534784 7.924065704 3.085853602 22.12972527)
5(-3.27208249 -3.869835119 59.62924835 -4.669749032 3.060051713)
)


60
(
5(-7.314090271 -8.586495802 -21.60586598 -27.23671461 -50.33416437)
5(-5.711875668 -8.040101759 -14.64803674 -20.04868828 -30.12952533)
5(-5.070864736 -7.944525128 -12.15938183 -17.23959942 -22.51989158)
5(-5.046137779 -8.198226816 -11.87468369 -16.55309442 -20.21421196)
5(-5.488591792 -8.796238752 -12.67290158 -16.82809711 -19.86387402)
5(-6.21727316 -9.654600654 -13.75717703 -17.29047373 -19.4502628)
5(-7.033257524 -10.65070732 -14.69178203 -17.5779383 -18.38563058)
5(-7.916310155 -11.7987177 -15.56381922 -17.83419264 -17.1627424)
5(-8.952300213 -13.13219231 -16.57303129 -18.28533254 -16.30040612)
5(-10.21628849 -14.71234273 -17.90736019 -19.17971914 -16.27132499)
5(-11.73786299 -16.61918938 -19.71411345 -20.76634811 -17.37481626)
5(-13.56605701 -18.93123725 -22.1053504 -23.34315501 -20.04064334)
5(-15.7585054 -21.78712625 -25.30269393 -27.23190157 -24.69720805)
5(-18.36358152 -25.34057761 -29.53759892 -32.7654925 -31.6521891)
5(-21.5132363 -29.7513218 -35.12463629 -40.19146357 -41.01249217)
5(-25.29249708 -35.21290967 -42.23700238 -49.7218258 -52.90824728)
5(-29.89347235 -41.80039004 -51.08153776 -61.36445189 -67.18977361)
5(-35.31666254 -49.66617186 -61.57373951 -74.89879404 -83.28587226)
5(-41.66701907 -58.73844302 -73.72496501 -90.01374476 -100.8202749)
5(-48.92380126 -68.90024395 -87.10718794 -106.1974515 -118.9943178)
5(-56.91782588 -79.90910163 -101.4052766 -122.7177457 -137.0817442)
5(-65.8340173 -91.47462878 -115.9331248 -138.7306728 -153.8283574)
5(-74.95662439 -103.119681 -130.1089324 -153.5305592 -168.4092983)
5(-84.21834074 -114.1868629 -143.1009177 -166.0741431 -180.036775)
5(-93.02577531 -124.0572878 -154.2142059 -175.7718577 -188.2326171)
5(-101.2962148 -132.3257691 -162.7655244 -182.4393401 -191.6184084)
5(-108.1944287 -138.260798 -167.9858365 -184.544346 -191.8359883)
5(-112.8313086 -141.6826821 -169.3820569 -182.7776761 -186.3908847)
5(-116.2485949 -141.8139398 -166.9053416 -176.3252342 -178.2413005)
5(-116.3156595 -138.5041551 -161.0640471 -166.560748 -165.7171287)
5(-114.3368732 -132.2486227 -150.9841147 -152.8695228 -150.1451878)
5(-108.853257 -122.5180544 -136.8853829 -136.5030221 -132.7551529)
5(-100.6446761 -108.9881692 -120.4402224 -118.4744809 -112.5348804)
5(-89.822699 -93.46979751 -101.948385 -97.5780271 -92.76926551)
5(-75.05246756 -75.18239164 -80.96308931 -75.88163464 -72.15938194)
5(-53.5691272 -55.22532856 -60.14784624 -54.89350257 -56.36851247)
5(-36.84022434 -33.08278492 -39.17307608 -35.07525102 -36.75737495)
5(-17.50413981 -11.63400492 -18.29806637 -17.67315213 -24.4503969)
5(1.163930267 7.475781479 2.998990783 -2.447843348 -10.35446087)
5(23.81541482 28.3742332 21.19176359 10.80561354 1.284014068)
5(50.86074319 48.18231903 33.6487154 21.36889186 11.61746725)
5(61.48693233 60.93247254 48.24646945 29.98566368 19.03594103)
5(82.37603345 75.16563276 61.0077219 41.26935647 29.54087189)
5(95.48365266 89.49295323 73.73894701 54.00525524 44.75169663)
5(113.4731314 111.2392418 90.07773574 65.96347577 46.03287298)
5(126.7993187 121.3171822 98.96763521 79.39052848 53.37422687)
5(144.1620396 132.818295 108.6651813 83.56894372 59.4164081)
5(160.4932676 144.3702369 120.9862547 84.80100396 56.28784526)
5(176.4432287 160.30324 126.5012056 85.17149846 51.71417401)
5(176.6904326 149.727685 117.1864304 80.65381796 46.70834537)
5(170.0829716 144.1184916 105.4040467 72.1943301 36.48497265)
5(153.7800744 133.6465762 90.68977489 61.96128013 34.34674673)
5(131.8231625 107.9772666 72.90753905 56.40878644 24.18968393)
5(125.6152732 80.33513163 58.68047457 43.39912532 47.29467774)
5(80.90522902 66.98731163 46.45753158 31.05155396 19.66567821)
5(82.98460802 46.44300403 36.4721501 26.37961134 18.94590302)
5(60.36813998 35.99805044 34.71949776 21.41303546 14.15682131)
5(50.00778683 32.6077468 24.78269574 23.59485062 14.311488)
5(29.74849709 28.03060383 14.75811716 20.11234438 28.29214634)
5(6.902497953 2.006721244 45.57873883 1.18029831 8.287574053)
)


60
(
5(-10.48537957 -13.59487767 -32.80163463 -45.03989971 -79.1938794)
5(-8.785526256 -13.13218183 -23.96852694 -34.50431182 -51.47325341)
5(-8.146194884 -13.13288324 -20.70658885 -29.94364752 -39.7756966)
5(-8.228969828 -13.49762831 -20.20012711 -28.10043629 -34.60832271)
5(-8.913971953 -14.2834527 -20.89645387 -27.30322341 -31.49532407)
5(-9.961074615 -15.36867904 -21.7761367 -26.5436103 -28.13527403)
5(-11.11436341 -16.57113098 -22.3804956 -25.48835082 -24.24690216)
5(-12.3460679 -17.89426053 -22.85863498 -24.43970385 -20.69772487)
5(-13.74192937 -19.38735676 -23.48067219 -23.77886489 -18.14371147)
5(-15.3975045 -21.1668945 -24.53429196 -23.94007499 -17.2227129)
5(-17.36461117 -23.3418854 -26.25953814 -25.37568448 -18.52314133)
5(-19.701307 -26.11323054 -28.97341982 -28.59336207 -22.73207417)
5(-22.50853879 -29.69289835 -33.04992447 -34.08818763 -30.21759169)
5(-25.9506399 -34.37031818 -38.90191095 -42.32003021 -41.31000794)
5(-30.18843873 -40.40421444 -46.91573704 -53.53943644 -56.21127105)
5(-35.41839123 -48.03688823 -57.36888179 -67.91958533 -74.66928307)
5(-41.79771509 -57.51419838 -70.44094894 -85.45927614 -96.37720743)
5(-49.55189839 -68.9213655 -86.08843819 -105.7171093 -120.7892432)
5(-58.66355442 -82.19142798 -104.0808317 -128.3012399 -146.7506508)
5(-69.21834268 -97.13662523 -123.9348003 -152.1850964 -173.64785)
5(-81.1016296 -113.4623573 -145.0853295 -176.6180086 -200.1175181)
5(-93.93805296 -130.5666863 -166.4557463 -200.3152953 -224.6429425)
5(-107.4366878 -147.7071814 -187.3682427 -222.344295 -246.1043947)
5(-121.2411364 -164.2708755 -206.5313131 -241.3483572 -263.5738567)
5(-134.6791447 -179.4360149 -223.1436892 -256.3899579 -277.041076)
5(-146.7898099 -192.3236416 -236.1166383 -266.5888599 -283.4306051)
5(-157.1428403 -201.8697501 -244.7980142 -271.4860535 -283.9901308)
5(-165.0328565 -207.8381958 -248.119305 -270.3269783 -279.5822913)
5(-170.0402155 -209.6772737 -246.1373441 -263.1270081 -266.5004185)
5(-171.2461202 -206.6891249 -238.7596592 -250.5414861 -251.7046388)
5(-168.4730144 -198.7075181 -225.8057076 -232.4188223 -229.178583)
5(-161.8439396 -186.0277357 -207.2452814 -209.8851334 -205.7683199)
5(-150.7487638 -168.5308127 -185.2317753 -184.2653775 -177.9816197)
5(-135.0494142 -147.5815967 -159.1827818 -154.7897196 -149.5877927)
5(-115.9369534 -123.1185021 -130.6808647 -124.7916382 -118.6498675)
5(-92.11537294 -96.46585932 -99.97356845 -95.81190218 -91.94859413)
5(-65.98803596 -66.04009357 -68.86263314 -67.03324094 -67.2575059)
5(-40.00699553 -36.36419482 -38.4620509 -40.45243199 -38.88697063)
5(-11.69544038 -6.15568454 -11.04686992 -16.99656485 -23.32439032)
5(18.62333199 23.06523426 10.969582 4.423569995 3.253999364)
5(46.4448592 44.46843371 33.24800143 22.25163591 9.22070631)
5(73.28743522 63.57678045 53.56625071 36.52588753 21.0047516)
5(95.77887443 82.34808737 71.08195311 50.3314122 40.72649483)
5(116.7820805 101.8273398 87.92277181 68.4384753 58.84385688)
5(130.6132704 118.3458995 105.480646 88.44255517 78.1742488)
5(145.7102593 135.9008734 129.2251626 110.7636861 82.07266099)
5(165.9358602 158.9812494 147.7262701 130.1129007 98.1103829)
5(179.1578516 174.1304458 175.7483127 139.5743849 113.1261829)
5(224.4362953 185.8794611 186.4639826 143.5263033 104.0407075)
5(206.7090832 196.8847418 181.0725235 140.31285 112.2944282)
5(211.2984242 205.1461077 171.5617301 137.1075288 112.4480787)
5(231.934046 192.2509582 151.9291121 113.730797 71.46812644)
5(204.0278258 163.410216 132.7542364 95.93752404 71.68361515)
5(186.2172917 133.3166044 112.7905586 80.8326886 74.16694154)
5(128.3245183 112.4807766 95.75620412 63.41266113 59.2306383)
5(141.8058759 83.22322757 72.41810909 64.04201792 37.44578156)
5(91.22727824 75.34315627 57.97771171 39.87236774 32.46249701)
5(56.43602743 49.2197163 47.38485629 39.2087047 29.11835546)
5(32.48065047 20.95323301 16.26606205 48.12886099 23.6164805)
5(11.86744186 -334.8646284 -21.16648018 922.1462134 866.1135813)
)


60
(
5(-14.24389765 -19.82688683 -46.57332255 -67.68650089 -114.4836314)
5(-12.48769642 -19.48458645 -35.57646907 -52.72888161 -77.63662621)
5(-11.87758254 -19.52321988 -31.24044412 -45.51340103 -60.20789119)
5(-12.0532905 -19.8590876 -30.12815909 -41.59401291 -50.56800175)
5(-12.94007212 -20.66187355 -30.27580761 -38.75371917 -43.1829705)
5(-14.26528855 -21.77707954 -30.42517116 -35.86553269 -35.6668067)
5(-15.6736971 -22.92187875 -30.15569939 -32.65298585 -28.06463856)
5(-17.13545925 -24.12809779 -29.68543081 -29.61601655 -21.65385803)
5(-18.7533219 -25.45567872 -29.39840603 -27.30244694 -17.14473226)
5(-20.62235883 -27.06945632 -29.74052451 -26.41711675 -15.48640611)
5(-22.82610989 -29.21804933 -31.08776391 -27.56560673 -17.221645)
5(-25.45106041 -32.14505689 -33.93695562 -31.44653916 -23.33075441)
5(-28.70395352 -36.22366868 -38.83373976 -38.6737615 -34.10248304)
5(-32.73775336 -41.84677776 -46.29367103 -49.77893611 -49.91276815)
5(-37.92447583 -49.37530908 -56.81879457 -65.00124944 -70.52974282)
5(-44.47043234 -59.15806283 -70.67877897 -84.49740272 -95.76585136)
5(-52.61645737 -71.44712587 -88.1424665 -108.0431183 -125.0731207)
5(-62.57511258 -86.41636187 -109.0029498 -135.0877109 -157.6344333)
5(-74.50094819 -103.9305601 -132.8803113 -165.1621616 -192.2577846)
5(-88.34173908 -123.7029786 -159.2759588 -196.952489 -227.8219345)
5(-103.9322251 -145.2234498 -187.3124345 -229.4507521 -262.8688452)
5(-121.1739334 -167.9181248 -215.8000841 -261.1369081 -295.6595735)
5(-139.0114415 -190.8844007 -243.4581348 -290.5453182 -325.012155)
5(-157.4218447 -213.3402756 -269.2011416 -316.2427654 -349.7736966)
5(-175.3092902 -234.1727654 -291.8870908 -337.2305463 -367.4745519)
5(-191.7826145 -251.9027765 -310.2355845 -352.2928173 -378.4705097)
5(-206.2134068 -265.5771274 -322.8776789 -360.5535461 -382.4812193)
5(-217.3340985 -274.6106439 -328.7264852 -361.2661431 -378.0827259)
5(-225.3921061 -278.1929596 -327.783312 -354.7328552 -365.4548957)
5(-227.1705515 -276.1875307 -319.9230237 -340.4429828 -345.6393026)
5(-225.5196325 -268.3717797 -304.9921071 -319.1659388 -319.8588861)
5(-218.6875924 -253.3478345 -282.847645 -292.4262672 -287.4996525)
5(-205.2916818 -232.7459142 -255.5736218 -260.4685615 -254.8957774)
5(-186.7097472 -206.7801643 -224.0793795 -223.9840762 -216.6842506)
5(-162.2043567 -176.5724666 -187.1384005 -185.0387714 -177.6597797)
5(-133.9491687 -142.8493227 -148.2235938 -144.5951968 -139.3404687)
5(-102.2637934 -104.4424599 -109.4854777 -104.249195 -104.1062316)
5(-65.21249192 -65.8329754 -71.21424563 -68.14196983 -73.77340209)
5(-29.85469022 -30.65866241 -35.28698232 -35.2938669 -42.83467577)
5(5.873314824 4.246048638 -0.5751323711 -6.043750143 -22.09463453)
5(36.91783018 34.59366506 28.79038744 16.94118993 -3.496807793)
5(68.11529184 63.41507578 53.65939208 36.70174722 27.67951172)
5(97.7382324 89.07527074 76.0415949 53.9941893 35.64003182)
5(124.7061589 107.9151121 94.70853061 75.92312563 55.91926982)
5(147.6301564 128.2116516 108.5564793 99.88410621 75.54465163)
5(148.3200539 146.1720059 131.2453836 126.8294159 107.8426431)
5(169.076758 158.5907289 159.0421633 156.7391343 132.9559364)
5(179.6658462 176.885886 186.9899149 185.4143528 151.8783566)
5(195.1102073 194.4010785 210.9791731 193.0042304 164.0665485)
5(211.3750793 218.9444121 224.5092186 204.1500896 159.6196475)
5(227.1310754 233.8469633 223.7237953 203.2222718 146.4850838)
5(240.198642 235.5014726 211.984316 192.3574111 129.740574)
5(226.9249089 218.448348 193.1595284 169.2815323 167.050565)
5(226.7810525 193.1078 160.0488447 138.1113961 93.96184765)
5(198.2222339 164.6104897 131.4723644 111.483912 80.42539684)
5(170.4246145 128.4037633 110.4867297 86.01489303 78.19239929)
5(132.1073 106.3109991 69.04535681 66.58233519 59.2533289)
5(88.4064578 63.76577879 55.36868833 48.79917682 50.22622714)
5(55.63651624 38.39565881 28.50226612 25.08377908 60.63373515)
5(47.79373144 29.49910832 5.114412552 12.14015629 12.15401151)
)


60
(
5(-18.62291171 -27.40131433 -63.01127344 -95.28613823 -156.1185385)
5(-16.86544905 -27.15572568 -49.50945436 -74.65548995 -108.1269813)
5(-16.25207078 -27.10855111 -43.75571618 -63.7137631 -83.29482164)
5(-16.51566536 -27.27440479 -41.60143492 -56.73419586 -67.57471708)
5(-17.57699063 -27.89236749 -40.63262012 -50.9398942 -54.55549269)
5(-19.09570452 -28.77171982 -39.50472118 -45.0999858 -41.96958933)
5(-20.65762344 -29.57310432 -37.81929267 -39.02673082 -29.99541715)
5(-22.20793213 -30.35487596 -35.93392159 -33.47270936 -20.4969031)
5(-23.87526918 -31.22174235 -34.33559848 -29.18624738 -14.05959691)
5(-25.77509388 -32.41470615 -33.65185024 -27.01143926 -11.66496737)
5(-27.99582027 -34.23010765 -34.37920158 -27.80035691 -14.16358116)
5(-30.7592739 -37.10594933 -37.22105613 -32.37617961 -22.39129167)
5(-34.23667529 -41.49832819 -42.85244222 -41.42614673 -36.76172015)
5(-38.81920235 -47.90978829 -51.96245929 -55.51487333 -57.39292512)
5(-44.75609333 -56.8798458 -65.07859583 -74.86376597 -83.89988605)
5(-52.48422349 -68.75364062 -82.51240203 -99.47823987 -116.1605023)
5(-62.33298082 -83.86421173 -104.3585043 -129.0238889 -152.9920327)
5(-74.53461586 -102.2991064 -130.3926709 -163.010345 -193.7713384)
5(-89.25924253 -123.9772897 -160.2671874 -200.4309162 -237.0905724)
5(-106.2851039 -148.5380824 -193.1147863 -240.094409 -281.5734968)
5(-125.7860533 -175.4382649 -227.9262998 -280.5602556 -325.5050801)
5(-146.966574 -203.7925596 -263.4388466 -320.1776061 -366.5890121)
5(-169.5176268 -232.6773066 -298.3096516 -357.3440857 -403.9174786)
5(-192.3943335 -260.9251313 -331.0228287 -390.5549942 -435.7259251)
5(-215.1239701 -287.2130114 -360.0263526 -418.1734714 -461.0762345)
5(-235.9936146 -310.3992431 -383.8060574 -438.7125444 -476.5184965)
5(-254.6673065 -328.8910207 -400.8483346 -451.2196357 -483.3609409)
5(-269.3130454 -341.9701268 -410.6485947 -454.715987 -480.6035898)
5(-280.341621 -348.4499945 -412.1145512 -449.1732379 -468.5260841)
5(-284.9659317 -348.1157285 -404.9928919 -434.7916963 -447.3396983)
5(-284.4100934 -339.9914169 -389.3801886 -411.8185611 -418.1771876)
5(-276.6927013 -324.4818 -366.0218709 -380.4931936 -381.1177258)
5(-262.7374236 -302.5243392 -335.1362998 -342.4174516 -338.9458495)
5(-242.1919649 -272.757785 -296.8810947 -298.9202791 -298.6682907)
5(-216.3381713 -236.8952506 -252.7284268 -251.3163031 -247.7958708)
5(-183.6949093 -196.2474302 -205.5409423 -201.8291497 -197.863958)
5(-143.1423053 -152.4504033 -157.7169016 -153.666568 -152.2394252)
5(-103.0734111 -108.7717882 -109.6085841 -106.9708169 -111.5108866)
5(-58.82562426 -63.02568166 -63.45253378 -65.17705106 -72.36601616)
5(-18.62715036 -16.66970979 -22.38802142 -29.46681583 -44.42302546)
5(21.71284318 22.30370931 15.11274577 -0.5962013815 -18.45709842)
5(61.77336083 57.7386831 46.61041562 24.75366972 2.976247664)
5(91.34785505 87.52343681 75.34978424 46.78100289 23.68484297)
5(120.9944622 105.7134333 91.53126995 68.74220136 45.25434999)
5(145.3824836 124.7527857 105.1507125 93.59421274 76.84564609)
5(153.297193 139.5673801 124.5983446 121.9925621 104.74692)
5(161.8774861 150.0179835 153.2396538 151.3354261 146.9624675)
5(173.3783423 162.441325 185.3668468 184.3662886 183.0465302)
5(191.4088377 181.5467725 210.2986947 211.9023934 199.3855587)
5(200.5183976 213.5559833 236.1795762 228.9369276 201.5545154)
5(211.8898323 232.9258304 249.9637309 239.5388374 228.879637)
5(235.0287423 263.8061056 249.413983 239.2081488 201.9578534)
5(225.7625079 244.9535096 246.9996544 215.628573 182.8173102)
5(223.6451542 234.2798882 217.603698 206.1495317 155.258002)
5(220.1729862 218.7779596 184.0957777 159.080806 133.741818)
5(205.7907039 179.0205233 138.4618176 124.7217145 173.0344498)
5(174.8877308 160.9622664 113.5739183 92.16733359 80.37190089)
5(185.7341888 110.8997369 84.95617934 77.11730113 77.81636269)
5(113.211738 75.5361462 48.35421167 38.12104651 76.17010195)
5(134.534144 64.57299146 -31.85710253 21.72844005 10.48192072)
)


60
(
5(-23.65873337 -36.36320442 -82.19427974 -127.8589288 -203.9067206)
5(-21.94333641 -36.15485079 -65.66935989 -100.277774 -142.6364608)
5(-21.35926865 -35.93563288 -58.0892113 -84.49135505 -108.7286601)
5(-21.63355277 -35.71587201 -54.40969871 -73.44917343 -85.65818717)
5(-22.80525297 -35.90728931 -51.84952023 -63.83537904 -65.89843088)
5(-24.41991922 -36.29510161 -48.89016888 -54.26115206 -47.45929833)
5(-26.00159158 -36.48045516 -45.28794646 -44.69717947 -30.75757455)
5(-27.48996953 -36.53921062 -41.55494136 -36.15091519 -17.80274864)
5(-29.05036624 -36.65671473 -38.30856717 -29.57706595 -9.324545168)
5(-30.78079637 -37.1460048 -36.32874894 -26.02224667 -6.143551463)
5(-32.88852507 -38.44038811 -36.29531393 -26.35653446 -9.587498831)
5(-35.57787701 -41.07326537 -39.07880836 -31.61450336 -20.10598816)
5(-39.18254299 -45.6453316 -45.43295911 -42.5512419 -38.09515179)
5(-44.10756537 -52.8476698 -56.17644548 -59.64755574 -63.57744822)
5(-50.80736714 -63.19034039 -71.84017716 -83.06226285 -96.05003211)
5(-59.73503548 -77.13072261 -92.75736638 -112.7545348 -134.9536669)
5(-71.2526361 -94.9569071 -118.9711213 -148.2737028 -179.4877565)
5(-85.69684614 -116.8850789 -150.1971905 -188.9878762 -228.4191858)
5(-103.087593 -142.7895447 -185.9152255 -233.6864875 -280.4848284)
5(-123.5739122 -172.1542726 -225.0746753 -281.1084725 -333.5718779)
5(-146.8116364 -204.3408866 -266.717495 -329.6158778 -386.2104395)
5(-172.1730416 -238.2410062 -309.2985994 -377.3745512 -436.4696238)
5(-199.2304107 -273.0445379 -351.2945983 -422.6063866 -481.6780976)
5(-227.2497767 -307.4095384 -390.8454022 -463.3629961 -521.1074981)
5(-254.077802 -339.5556518 -426.3400633 -498.3216833 -551.9446971)
5(-280.1278952 -367.730326 -456.1519025 -525.7373451 -575.2075014)
5(-303.3301737 -391.3812675 -478.9148103 -543.6955656 -586.1276601)
5(-323.2466391 -409.0687945 -493.6382082 -551.0729388 -585.5359889)
5(-337.4137524 -419.4257986 -497.9049975 -548.28963 -575.8573484)
5(-342.9175986 -421.3737829 -492.0739269 -535.4603478 -552.5037156)
5(-343.0102284 -415.0898735 -476.6021553 -510.7620821 -524.1771451)
5(-337.7574029 -400.4874334 -451.6439065 -476.1383749 -487.0163555)
5(-323.3404183 -376.5755342 -417.5183839 -433.5463908 -433.8555731)
5(-299.8203527 -343.747779 -375.1335581 -384.2429824 -380.7173866)
5(-269.7035019 -303.2549792 -326.9204403 -329.9119066 -326.7283321)
5(-233.4562872 -256.4976924 -272.5537161 -272.9695763 -267.7622501)
5(-190.905738 -206.578959 -215.2948568 -215.6054659 -212.299112)
5(-143.1051161 -152.9024109 -157.7381579 -157.748093 -157.1307713)
5(-94.50496397 -98.94539249 -102.7744406 -102.598683 -112.5434698)
5(-41.96672199 -47.76995211 -51.49694912 -55.35458299 -71.82886219)
5(3.12951662 -1.592633937 -3.837301428 -18.08735139 -36.21410028)
5(46.92643125 39.82499275 35.49877072 14.01942784 -6.722321112)
5(86.30468081 76.5117651 60.87120491 38.42806959 19.03014875)
5(117.3784613 102.7428773 81.3070818 61.5726513 33.84214998)
5(145.666703 119.8712475 98.53776791 85.05319144 68.108084)
5(164.7014674 133.5117476 114.1212963 107.1547467 82.84698471)
5(172.8552136 147.647376 131.6234704 132.5530189 132.996584)
5(173.4283914 152.4365093 151.009135 164.9186684 155.1207167)
5(186.0099642 163.9937261 181.3189168 196.5582081 217.1215068)
5(196.8407322 182.1088781 213.8123283 230.6343326 234.2741963)
5(186.2303825 203.2250923 243.7953872 255.1261899 242.1689123)
5(187.4122053 221.3287697 264.9410984 271.0615982 245.4453261)
5(204.2820312 228.4338303 288.9383511 263.24365 231.1480635)
5(218.8933791 242.5557563 261.5782958 248.1250293 242.8787134)
5(224.8971196 247.3312832 262.3697309 207.5560239 210.0915156)
5(219.5213722 222.3369171 217.0006094 165.5444399 137.6280431)
5(215.4893933 202.5266466 166.5158816 140.2114433 164.4182906)
5(195.101501 170.7062483 143.5944103 103.9186692 92.42446624)
5(180.0344506 141.3799189 91.27319738 92.6040301 49.74938712)
5(175.2878043 230.0766105 311.6820526 44.40067256 35.81640735)
)


60
(
5(-29.35313684 -46.74824218 -104.017635 -165.2111549 -257.690661)
5(-27.72845477 -46.52971627 -84.08082236 -129.2728947 -180.9786251)
5(-27.14271279 -45.96322817 -74.21463195 -107.5886561 -136.3039524)
5(-27.40455053 -45.12648991 -68.45041705 -91.48088945 -104.4294608)
5(-28.59852863 -44.64019152 -63.66994066 -77.16012374 -76.98681924)
5(-30.19235342 -44.28469434 -58.40976239 -63.20135367 -52.04211201)
5(-31.65629993 -43.5555689 -52.51556989 -49.74442718 -30.37472302)
5(-32.9425139 -42.6113689 -46.56232295 -37.86146611 -13.61747571)
5(-34.20315554 -41.6937666 -41.36521046 -28.77637562 -3.06910167)
5(-35.62339966 -41.25265405 -37.86722741 -23.59961091 0.6695126099)
5(-37.40816566 -41.86047585 -36.98775242 -23.53584485 -3.738616723)
5(-39.91870973 -44.1626059 -39.60321797 -29.50113248 -16.6006291)
5(-43.55055793 -48.88733077 -46.78535437 -42.29269726 -38.22022925)
5(-48.82484959 -56.79754136 -59.19156792 -62.31127453 -68.57908735)
5(-56.21268503 -68.53646557 -77.50507963 -89.83242648 -106.8682039)
5(-66.37225499 -84.55832168 -101.9464084 -124.5718349 -152.5667581)
5(-79.53984731 -105.2907488 -132.6196137 -166.0445852 -204.4098958)
5(-96.3492496 -130.7656573 -168.9962 -213.3294206 -261.4874916)
5(-116.5108316 -160.8779197 -210.5077915 -265.2302104 -321.7081994)
5(-140.4099109 -194.9788143 -256.0779379 -320.2248468 -383.5006661)