/*--------------------------------*- C++ -*----------------------------------*\
| =========                 |                                                 |
| \\      /  F ield         | OpenFOAM: The Open Source CFD Toolbox           |
|  \\    /   O peration     | Version:  2.3.1                                 |
|   \\  /    A nd           | Web:      www.OpenFOAM.org                      |
|    \\/     M anipulation  |                                                 |
\*---------------------------------------------------------------------------*/
FoamFile
{
    version     2.0;
    format      ascii;
    class       dictionary;
    location    "constant";
    object      la_r18;
}
// * * * * * * * * * * * * * * * * * * * * * * * * * * * * * * * * * * * * * //

la_r18_table
60
(

60
(
5(-0.0003472724253 -0.0001333850986 -0.0004694818934 -0.0002511682561 -0.0004084435211)
5(-0.0001291040672 -1.622077114e-05 -0.0001550236375 -9.114866889e-05 -9.726869505e-05)
5(0.01516229263 -4.040981346e-05 -5.338757315e-05 -2.814730797e-05 -3.309582526e-09)
5(0.05262302177 -5.118590175e-05 -6.077290513e-05 -4.996814389e-06 -3.640667894e-05)
5(0.05995423682 -4.4308366e-05 -6.398889584e-05 -2.786888374e-05 -1.973479609e-05)
5(0.04124842017 -3.740940277e-05 -1.771796004e-05 -3.156354879e-05 -1.309257614e-05)
5(-5.930108445e-05 -3.378411645e-05 -2.62128712e-05 -1.912452313e-05 -4.060195466e-05)
5(-2.457398108e-05 -3.632146239e-05 -5.44835757e-05 -2.796849679e-05 -7.756143609e-06)
5(0.04154884117 -4.344706465e-05 -4.857670139e-05 -3.291928846e-05 -1.881103416e-05)
5(0.07545361219 -3.927798677e-05 -7.652223047e-05 -3.122396514e-05 -2.39138538e-05)
5(0.08032484859 -3.348995999e-05 -8.138926428e-05 -3.587919011e-05 -2.654662371e-05)
5(0.01768430802 -6.577229686e-05 -6.958273387e-05 -4.101644501e-05 -2.332099109e-05)
5(-5.932832705e-05 -7.928416556e-05 -7.33741423e-05 -5.653430713e-05 -3.335068945e-05)
5(-8.97009866e-05 -9.900328398e-05 -9.239418906e-05 -5.644729943e-05 -3.687038908e-05)
5(-8.822297769e-05 -0.0001117471398 -0.0001045401211 -7.998482246e-05 -4.59099264e-05)
5(0.0007285113425 -8.033241577e-05 -0.0001245327237 -9.134496713e-05 -5.808824031e-05)
5(0.0005555293368 -0.0001181738495 -0.0001599503438 -0.0001315536541 -8.9215874e-05)
5(6.821991155e-05 -0.0001856943962 -0.0002414966831 -0.0002000489736 -0.0001250000678)
5(-0.0002426028815 -0.0002996961555 -0.0003282756942 -0.0002690346849 -0.0001684289305)
5(-0.0003517476301 -0.0004893246188 -0.0004835702342 -0.0004289712614 -0.0002372537566)
5(-0.0004697469583 -0.0006343330647 -0.0006278724402 -0.0005875594087 -0.0003400530679)
5(-0.0006602591881 -0.0008877517542 -0.0009206978005 -0.0006609858066 -0.0004183908512)
5(-0.001002076596 -0.001312590032 -0.00130985739 -0.001127155451 -0.0007202403929)
5(-0.001384499966 -0.002045886481 -0.001923337842 -0.001644202117 -0.001029820323)
5(-0.002061261477 -0.002828526364 -0.002905257812 -0.002570892305 -0.001591985841)
5(-0.003013251277 -0.003865805203 -0.004570598537 -0.004066267871 -0.002289661381)
5(-0.004436775204 -0.005584530959 -0.006068117512 -0.005943528632 -0.003252459804)
5(-0.006212150426 -0.008264819308 -0.008963448171 -0.008254262673 -0.004340374636)
5(-0.009358931765 -0.01171176067 -0.01166367561 -0.01041801007 -0.005565477212)
5(-0.01301396478 -0.01621706582 -0.01475112745 -0.01173364531 -0.006322681847)
5(-0.01807824342 -0.02112495826 -0.01915377457 -0.0141807437 -0.006896101393)
5(-0.02308542524 -0.02426953441 -0.02024945075 -0.01235128711 -0.004337560041)
5(-0.02726750758 -0.02596388853 -0.02045241116 -0.009504475061 -0.003181848155)
5(-0.02973902038 -0.02367107346 -0.01640365642 -0.002651486976 0.001314506023)
5(-0.02738160167 -0.01362649085 -0.00344420992 0.007730571782 0.001433563378)
5(-0.016155016 0.006639078379 0.01870099662 0.0218142954 0.006510263465)
5(0.007046796701 0.03724497206 0.04110818774 0.03124082123 0.01416574296)
5(0.04316089817 0.08074651499 0.06739552057 0.04135325651 0.005031586086)
5(0.09449330091 0.1219084634 0.0936644089 0.03793503799 0.008882020722)
5(0.1627026942 0.1577458308 0.1128484174 0.02945226374 0.0005009976009)
5(0.2159997494 0.1533094786 0.0774976547 0.01085197853 0.0006957087449)
5(0.2325556894 0.1234338029 0.03565993627 0.002671404495 4.883615227e-07)
5(0.2103705345 0.05726302764 -0.005355104929 7.201352544e-07 1.931661398e-06)
5(0.143445146 -0.001607829094 -0.04391395311 1.161234689e-06 -0.004017780099)
5(0.03810347537 -0.05608082857 -0.05995322584 9.679762127e-07 -0.0005044674629)
5(-0.07066309422 -0.08375236874 -0.02797906186 1.128905099e-06 1.153331496e-06)
5(-0.1310857774 -0.07176903203 -0.01558333164 -0.001155629714 6.67482766e-07)
5(-0.1713080847 -0.01430368092 -0.002412032885 4.246338315e-07 3.349116759e-07)
5(-0.09694550573 -0.007224664752 -0.0003421617004 1.609872331e-07 1.172909849e-07)
5(-0.05065560397 -0.000362452784 -3.547940762e-08 8.615942832e-08 3.625804851e-08)
5(-0.02447234985 -2.872347481e-08 1.382216338e-07 2.965843966e-08 3.690492493e-09)
5(-0.006662464371 2.336058429e-08 2.007847557e-08 1.326808675e-08 2.430018292e-09)
5(-0.0001170651208 -1.642149546e-07 1.01593089e-08 4.159587191e-09 4.958748302e-10)
5(1.522817832e-08 -1.308166791e-08 -1.214313285e-09 -1.094592512e-10 4.641459446e-11)
5(-1.597908998e-09 -4.078016933e-09 1.402946834e-10 4.743421409e-11 -2.71097153e-11)
5(-7.341663065e-07 -8.083852525e-11 1.163389872e-11 -8.486497262e-11 -1.482127034e-10)
5(-2.14933337e-07 -2.622926243e-11 -3.530566987e-11 -1.316492624e-10 -3.80478609e-10)
5(-3.122536838e-08 1.570115581e-09 -6.837734809e-11 -4.666826423e-10 -2.384136204e-09)
5(-2.497940409e-08 -1.065990566e-08 -1.762065151e-10 -5.658855297e-10 -1.160022782e-09)
5(-3.105898632e-11 -9.434071908e-11 5.69822065e-09 -8.396631814e-10 -1.630407503e-09)
)


60
(
5(-0.0008016584816 -0.0005362076382 -0.001116763723 -0.0008016987891 -0.00113798598)
5(-0.0005635096985 -0.0005335274797 -0.0006809767795 -0.0005900177289 -0.0005754139865)
5(-0.0004822021332 -0.000561708677 -0.0005537566401 -0.0005369427809 -0.0004177157899)
5(-0.0004936064583 -0.0006212452607 -0.000578562648 -0.0005794433404 -0.0004293224954)
5(-0.0005797069432 -0.0007180927233 -0.0007061308591 -0.0006921191995 -0.0005519269551)
5(-0.0007131791719 -0.0008460776375 -0.0008820717962 -0.0008491680591 -0.0007378176668)
5(-0.0008533743571 -0.0009919612782 -0.001053347559 -0.001015715792 -0.0009114837439)
5(-0.0009856972634 -0.001151642015 -0.001217938089 -0.001187810712 -0.001064051971)
5(-0.00111887592 -0.001322265557 -0.001385490451 -0.001368018698 -0.001213218721)
5(-0.00126899481 -0.001506955328 -0.001577464971 -0.001569860867 -0.001389347529)
5(-0.001442017535 -0.001718675783 -0.001807534665 -0.001808037498 -0.00160557525)
5(-0.001656602705 -0.001993586717 -0.002104040781 -0.002117461361 -0.001885118408)
5(-0.001937186421 -0.002378100918 -0.002508763357 -0.002549787846 -0.002254048479)
5(-0.002324468583 -0.002912529253 -0.003072654187 -0.003155736557 -0.002765862694)
5(-0.00284951697 -0.003632195053 -0.003839176256 -0.003969052187 -0.003463512459)
5(-0.003539310261 -0.004571474856 -0.004859963957 -0.005053522428 -0.004402791877)
5(-0.004417556246 -0.00579795896 -0.006220412358 -0.006523387589 -0.005689146883)
5(-0.005567621667 -0.007452763691 -0.008066719441 -0.00855849835 -0.007500475434)
5(-0.007117661196 -0.009740087428 -0.01065515363 -0.01146983355 -0.01010929481)
5(-0.009270106388 -0.01300375792 -0.0143664358 -0.01570259808 -0.01396237031)
5(-0.01235084842 -0.01774617873 -0.01980452865 -0.02190930561 -0.01959060951)
5(-0.01683937786 -0.02468956978 -0.02779556493 -0.0310605226 -0.02792314843)
5(-0.0234782066 -0.03488442844 -0.03956802365 -0.04438769228 -0.04016883651)
5(-0.03335519541 -0.04984099038 -0.05688338222 -0.06365605748 -0.0577959599)
5(-0.04785130955 -0.07143728276 -0.08179534499 -0.09111382895 -0.0828130717)
5(-0.06908039449 -0.1023492578 -0.1173209053 -0.1293954351 -0.1172024014)
5(-0.09952670322 -0.1453098392 -0.1662849806 -0.1809774294 -0.1625542506)
5(-0.1421270022 -0.2037423764 -0.2313244716 -0.2471790618 -0.2197765652)
5(-0.2000875232 -0.2797106089 -0.3143410231 -0.3276811473 -0.2872768635)
5(-0.2761238429 -0.3732200385 -0.4135963733 -0.4180169937 -0.357899781)
5(-0.3702282827 -0.4818519053 -0.5233546228 -0.5082313195 -0.4235176654)
5(-0.4798450616 -0.5957750111 -0.6280334263 -0.5799920595 -0.4618679169)
5(-0.5952160499 -0.6955945415 -0.7048470382 -0.6049761075 -0.4472799129)
5(-0.6964428173 -0.7508954602 -0.7141662263 -0.5481599529 -0.356128997)
5(-0.7530231307 -0.7232422235 -0.6153371737 -0.3707121522 -0.1564242106)
5(-0.7238129514 -0.5605338241 -0.3598458379 -0.04369624613 0.1542885382)
5(-0.5445662191 -0.2128766656 0.08982805337 0.4373679982 0.5658789394)
5(-0.1804063729 0.3410721825 0.7316159818 1.036160241 1.01705087)
5(0.4132556399 1.108503336 1.516546336 1.664407067 1.41405483)
5(1.224234211 1.985722856 2.309650067 2.177108975 1.596525398)
5(2.178410006 2.85109109 2.937228314 2.415035737 1.498973011)
5(3.10529369 3.470367283 3.172990809 2.224620885 1.102452934)
5(3.752357236 3.632578063 2.889432078 1.59352564 0.5353329959)
5(3.924442931 3.210979074 2.077558509 0.7229774287 0.006515314199)
5(3.421485692 2.174390176 0.9154705394 -0.1224452303 -0.3479517472)
5(2.305429836 0.834105596 -0.2239396706 -0.6447149198 -0.4487685858)
5(0.8164050144 -0.4814220861 -1.032885032 -0.7941846144 -0.3645169478)
5(-0.5612519201 -1.335872963 -1.259453014 -0.6476247391 -0.2146284117)
5(-1.472859941 -1.533893296 -1.021760311 -0.389166851 -0.09624044414)
5(-1.660073463 -1.243562972 -0.6107487639 -0.1761838472 -0.03433528787)
5(-1.30064028 -0.7320225581 -0.274190227 -0.06221014637 -0.009889914366)
5(-0.7400414248 -0.3148311386 -0.0920651756 -0.0173215518 -0.002382576713)
5(-0.3098141529 -0.09995174365 -0.02399649456 -0.003911864472 -0.0004992754003)
5(-0.0841190559 -0.02123672687 -0.004352762455 -0.0007070925932 -9.480432058e-05)
5(-0.01455632613 -0.003402118398 -0.0006102792727 -0.0001060086522 -1.486134661e-05)
5(-0.001357466777 -0.0002894128455 -6.42979086e-05 -1.19905138e-05 -1.939095318e-06)
5(-7.49295563e-05 -2.050925486e-05 -3.497914847e-06 -9.454306402e-07 -1.279166729e-07)
5(-1.996254327e-06 -5.679717528e-07 -1.442258752e-07 6.508468462e-07 -2.348873808e-08)
5(8.069183401e-08 -4.670800603e-06 -5.888710782e-09 -2.767069055e-06 1.054379516e-07)
5(1.519728886e-09 1.142513105e-07 -0.000979582178 -2.782077951e-07 1.485077176e-08)
)


60
(
5(-0.001519268866 -0.001141831431 -0.002208338352 -0.001812189792 -0.002511529496)
5(-0.001284731012 -0.00126833038 -0.001580414573 -0.001503673297 -0.001550924974)
5(-0.001237696672 -0.001425568861 -0.001451602336 -0.001486070388 -0.001309352848)
5(-0.001347966482 -0.001635820956 -0.00160704138 -0.00166741002 -0.001425293184)
5(-0.001610485899 -0.001934353084 -0.001972812275 -0.002011477439 -0.001785786871)
5(-0.001996080407 -0.002322734348 -0.002462291198 -0.002464872906 -0.002294262862)
5(-0.002415353835 -0.002764344844 -0.002968970879 -0.002950812571 -0.002786063272)
5(-0.002834327324 -0.003240762878 -0.003468395585 -0.003455702551 -0.003238309195)
5(-0.003253695165 -0.00372790422 -0.003967427645 -0.003972443839 -0.00368873539)
5(-0.003688764444 -0.004208134835 -0.004489955495 -0.004504918108 -0.004177678388)
5(-0.004124214217 -0.004690019502 -0.005031314444 -0.005059081529 -0.004712330144)
5(-0.004584616643 -0.005228979532 -0.005628326541 -0.005682422927 -0.005307913879)
5(-0.005135897916 -0.005917617539 -0.006360081084 -0.00646073945 -0.006027464615)
5(-0.005879172827 -0.006861326216 -0.007333863224 -0.007504184341 -0.006978234626)
5(-0.006879865495 -0.008110637973 -0.008638085671 -0.008901274259 -0.008258947443)
5(-0.008120946083 -0.009668414185 -0.01033364494 -0.01075766496 -0.01001622809)
5(-0.009583189445 -0.01158227537 -0.01250362936 -0.01323574746 -0.01243610096)
5(-0.01132111887 -0.01399295047 -0.01538741718 -0.01667582793 -0.01585671749)
5(-0.0134290705 -0.01724354502 -0.01939065727 -0.0216255088 -0.02082472392)
5(-0.01624559011 -0.02192094217 -0.02524464582 -0.02894573174 -0.02821403354)
5(-0.02035919014 -0.02892914113 -0.03403158474 -0.03990323545 -0.03928876263)
5(-0.02655520837 -0.0395912969 -0.04742192619 -0.05632385097 -0.05563471427)
5(-0.03638491658 -0.05588977881 -0.06770103003 -0.08077790677 -0.0800251845)
5(-0.05142394834 -0.08048452154 -0.09808977816 -0.1167539929 -0.1155369286)
5(-0.07484139422 -0.1170536819 -0.1427627019 -0.1684786338 -0.1662542383)
5(-0.1101002555 -0.1703351993 -0.2070609165 -0.2415693877 -0.2364984004)
5(-0.162006355 -0.2460319067 -0.2969883332 -0.3406199245 -0.3308956737)
5(-0.2362289183 -0.3498937991 -0.4179878054 -0.4706275031 -0.4516868552)
5(-0.3390173746 -0.4876462101 -0.5747755481 -0.6323816903 -0.597964471)
5(-0.475379915 -0.661743727 -0.7678155232 -0.8215737128 -0.7593093891)
5(-0.6489617539 -0.8701919184 -0.9882617688 -1.022374199 -0.9254032399)
5(-0.8565366772 -1.10070499 -1.216345408 -1.208148005 -1.05422226)
5(-1.086221485 -1.327319714 -1.414148587 -1.334180909 -1.105174499)
5(-1.310238226 -1.507408233 -1.527136916 -1.333822971 -1.013382911)
5(-1.490551703 -1.577080138 -1.477877965 -1.1334885 -0.729758777)
5(-1.545817708 -1.452470881 -1.179322769 -0.6625458903 -0.1729976882)
5(-1.398480431 -1.041685683 -0.5474779903 0.1273327822 0.6106619072)
5(-1.00060759 -0.2766182168 0.4659201352 1.227400922 1.606224015)
5(-0.1922611635 0.8696555062 1.843513257 2.53872638 2.651372793)
5(0.9664860624 2.350483101 3.40246783 3.855895871 3.536719991)
5(2.477559964 4.01529998 4.903472852 4.887092825 3.927478185)
5(4.121504966 5.509055258 5.997645459 5.312598253 3.706571296)
5(5.575952882 6.494937401 6.331314045 4.885540685 2.819989311)
5(6.480490716 6.600983958 5.613421817 3.54342032 1.529494874)
5(6.480388146 5.648709445 3.920192508 1.704932203 0.1749310068)
5(5.45726091 3.739703847 1.694372197 -0.1055527759 -0.8111347544)
5(3.44069724 1.304004611 -0.511382047 -1.384809076 -1.243149712)
5(1.099117753 -0.8947904339 -1.957706824 -1.859076263 -1.142192837)
5(-1.015096295 -2.21416103 -2.392270791 -1.596329352 -0.7759638426)
5(-2.257825761 -2.527871398 -1.980596133 -1.057456669 -0.4061280314)
5(-2.453271119 -2.009771965 -1.215682226 -0.5344742292 -0.1619161016)
5(-1.81710041 -1.173967393 -0.5636008257 -0.202921827 -0.05181953682)
5(-0.9721636993 -0.5022342868 -0.1923630162 -0.05895455132 -0.0129018319)
5(-0.3572891232 -0.1483083162 -0.04495353861 -0.01194986071 -0.00249539215)
5(-0.08661924183 -0.02927255631 -0.007460369453 -0.001932499739 -0.0004126835551)
5(-0.01200293125 -0.003619827774 -0.0007445637484 -0.0002176110042 -4.794174992e-05)
5(-0.0008869884141 -0.0001877893485 -5.033932175e-05 -1.43333257e-05 -3.584374722e-06)
5(-1.742642094e-05 -6.179170289e-05 -1.323040302e-06 -3.747581526e-05 -1.864187483e-07)
5(1.2782746e-06 -0.02741024188 -1.023545824e-06 -0.01454632352 -9.34671413e-07)
5(-2.367323346e-09 2.084703873e-05 -0.002523272079 1.127539825e-06 1.286343869e-08)
)


60
(
5(-0.002608992912 -0.002116068328 -0.004000814098 -0.0036274858 -0.004926298131)
5(-0.002477605025 -0.002536340755 -0.003180592113 -0.00322818554 -0.003432270061)
5(-0.002566983645 -0.002977074654 -0.0031259607 -0.003331066869 -0.003116630698)
5(-0.002889173221 -0.003494850978 -0.003571848773 -0.003804439777 -0.003449814584)
5(-0.003509792169 -0.004192914412 -0.004416362161 -0.004589450071 -0.004256723861)
5(-0.004382716103 -0.005091573479 -0.005501519831 -0.005584432686 -0.005328769899)
5(-0.005350155612 -0.006104595349 -0.006637969924 -0.006652522085 -0.006355645877)
5(-0.006338577094 -0.007199314542 -0.007766704785 -0.007745412538 -0.007296518116)
5(-0.007345986557 -0.008302020944 -0.008872369931 -0.008825391538 -0.008210664198)
5(-0.008334768486 -0.00932699731 -0.009961990839 -0.009868452333 -0.009143255185)
5(-0.009238444476 -0.01023636771 -0.01097004743 -0.01083304522 -0.01007031989)
5(-0.01006100737 -0.01105969781 -0.01188399822 -0.0117294491 -0.01096705033)
5(-0.01089080513 -0.01193163117 -0.01278197019 -0.01263909283 -0.01187940482)
5(-0.01188182772 -0.01301160333 -0.01380474415 -0.01373352083 -0.01299855736)
5(-0.01316755609 -0.01437449025 -0.01509774027 -0.01517032909 -0.01447288066)
5(-0.01466427032 -0.01593783224 -0.01670457157 -0.01705404728 -0.01650701341)
5(-0.01617393697 -0.0176322007 -0.01864815224 -0.01953012837 -0.01936286407)
5(-0.01756850126 -0.01949204631 -0.02112993743 -0.02301912519 -0.02349126499)
5(-0.01869411028 -0.02181873259 -0.02461777441 -0.02823393173 -0.0295791175)
5(-0.0202609511 -0.02537417277 -0.03016907916 -0.0364444289 -0.03898802923)
5(-0.02253737476 -0.03133894801 -0.03920093523 -0.04936680661 -0.05356210169)
5(-0.02633057341 -0.0415172884 -0.05420806688 -0.0698816023 -0.07547286563)
5(-0.03440403341 -0.05886276446 -0.0783667435 -0.1014879225 -0.109616407)
5(-0.0502352572 -0.08717984941 -0.1166266899 -0.1495032596 -0.1600730366)
5(-0.07581519773 -0.1319501181 -0.1748974401 -0.2206113899 -0.2341784963)
5(-0.1182907162 -0.1998538426 -0.2614024797 -0.3227027026 -0.3383226647)
5(-0.1839096705 -0.2998068961 -0.3853835389 -0.4646827513 -0.4800248326)
5(-0.2823283255 -0.4407091313 -0.5560997333 -0.654145188 -0.6658520753)
5(-0.4208533912 -0.6317950697 -0.7818145961 -0.8963845929 -0.8969531198)
5(-0.6104432615 -0.879713067 -1.065886772 -1.188070231 -1.167110273)
5(-0.8573774289 -1.185020842 -1.401937083 -1.515185104 -1.450381178)
5(-1.160549018 -1.538568766 -1.770767275 -1.843739441 -1.710034859)
5(-1.511201431 -1.91143045 -2.125351031 -2.12077642 -1.879519685)
5(-1.881644681 -2.254748193 -2.397917312 -2.253417184 -1.886251165)
5(-2.219241324 -2.490136798 -2.492330326 -2.144530287 -1.586033118)
5(-2.457166392 -2.516157527 -2.278591663 -1.680636929 -0.9720776737)
5(-2.478955099 -2.201593973 -1.638688966 -0.7508918976 0.1084007538)
5(-2.137543407 -1.438167487 -0.451593814 0.6812872794 1.594069609)
5(-1.359379993 -0.1228150709 1.284621149 2.564340734 3.324729128)
5(-0.08329880409 1.746235648 3.467625853 4.697113152 5.053712799)
5(1.697201567 3.985000163 5.845817992 6.710857141 6.330841364)
5(3.86312698 6.32468171 7.960181313 8.131058445 6.817949617)
5(6.074418283 8.312368771 9.263950208 8.452398109 6.187885976)
5(7.870737439 9.421918707 9.331176982 7.415903655 4.573693087)
5(8.834228425 9.16470298 7.977630842 5.128917649 2.354599327)
5(8.500661187 7.520343668 5.228113396 2.279943246 0.09067502389)
5(6.789749613 5.005123192 1.869501437 -0.4079138087 -1.613936944)
5(4.067846068 1.577402789 -0.9785728076 -2.332998775 -2.287453221)
5(1.259134073 -1.379485714 -2.812165862 -2.961595526 -2.080574831)
5(-1.325203839 -2.972399672 -3.376047191 -2.570912229 -1.426887929)
5(-2.797869857 -3.135028346 -2.627654591 -1.6421193 -0.7555457639)
5(-2.851207352 -2.415170642 -1.548884827 -0.8029613776 -0.3025214026)
5(-2.076631375 -1.31691557 -0.6717288404 -0.2978559217 -0.09367826508)
5(-1.088207167 -0.5095528749 -0.2030411017 -0.07917460139 -0.02151957952)
5(-0.3782105456 -0.1311977223 -0.03963521946 -0.01412565648 -0.003621197649)
5(-0.0769489313 -0.01925033464 -0.00504341552 -0.001637043787 -0.0004733978494)
5(-0.005483245456 -0.001769131313 -0.0002909179829 -0.0001174222746 -3.213780928e-05)
5(-0.0003788445408 0.0002055211186 -1.315064172e-05 0.0002425261464 -1.106455398e-06)
5(5.947245863e-06 0.1453987328 -0.001298491769 0.122097273 9.948213143e-06)
5(1.905343152e-05 12.00977743 0.0003311993735 0.1212230186 8.273525238e-06)
)


60
(
5(-0.004185826722 -0.003622617799 -0.006789328959 -0.00667672709 -0.008864173723)
5(-0.004328468436 -0.004594311836 -0.005846002218 -0.006253407546 -0.006750223621)
5(-0.004718054006 -0.005556171648 -0.006023624063 -0.006630525282 -0.006414489164)
5(-0.005433737286 -0.006620676906 -0.007016884268 -0.007635038946 -0.007150072602)
5(-0.006655107052 -0.008007005172 -0.008685228 -0.009168538805 -0.008686083724)
5(-0.008352238499 -0.009772121936 -0.01076509046 -0.01105809863 -0.0106487216)
5(-0.01026048624 -0.011768432 -0.01295456826 -0.01306334638 -0.01250602043)
5(-0.01224161134 -0.0139254748 -0.0151381185 -0.01508537209 -0.01418205513)
5(-0.01426581979 -0.01608775309 -0.01725487725 -0.01705445878 -0.0157680107)
5(-0.01624568039 -0.01808494168 -0.01926491195 -0.01887183593 -0.01733819761)
5(-0.01798012366 -0.01971534012 -0.02097650284 -0.02039499876 -0.01872555143)
5(-0.01940186989 -0.02094483237 -0.02225811372 -0.02151582345 -0.0198909952)
5(-0.0205478971 -0.02187055807 -0.02309021488 -0.02230499457 -0.02080497353)
5(-0.02164195831 -0.02265450731 -0.02368140252 -0.02291678634 -0.02170336606)
5(-0.02279615449 -0.02344473674 -0.02413441522 -0.02355472552 -0.02273115707)
5(-0.02399125081 -0.02406675545 -0.02456646514 -0.02429933693 -0.02418575863)
5(-0.02462486149 -0.02427717528 -0.02476730044 -0.02532712033 -0.02621940667)
5(-0.02451974191 -0.02376752106 -0.0248741299 -0.02707346899 -0.02961511549)
5(-0.0229468523 -0.02268680922 -0.02533474547 -0.03000792966 -0.03484193355)
5(-0.02027724381 -0.02183758851 -0.02706567177 -0.03580333227 -0.04360444346)
5(-0.0170909251 -0.0225623468 -0.03189342697 -0.04657123639 -0.05804918743)
5(-0.01487161994 -0.02704303918 -0.04299545792 -0.06575372716 -0.08167740738)
5(-0.01638026483 -0.03889999233 -0.06465813555 -0.09835451635 -0.1205282093)
5(-0.02451322558 -0.06282456276 -0.1027883664 -0.1508996378 -0.1788677679)
5(-0.04418804962 -0.1059920408 -0.1654047786 -0.2322848925 -0.2692885175)
5(-0.08583896229 -0.1789416359 -0.2635670161 -0.3535879472 -0.3994089032)
5(-0.154329394 -0.2903605825 -0.410195718 -0.5276911174 -0.5814825417)
5(-0.2639090116 -0.4557997535 -0.6185466079 -0.7662570232 -0.8266835661)
5(-0.4267591347 -0.687578897 -0.9013655394 -1.079747269 -1.139069417)
5(-0.6612261426 -0.9972626284 -1.267266998 -1.470038724 -1.515806046)
5(-0.9708185886 -1.391744415 -1.716909137 -1.924621782 -1.93454089)
5(-1.363820931 -1.864077049 -2.229099252 -2.414817209 -2.346146792)
5(-1.839152229 -2.390647777 -2.762906026 -2.877720663 -2.696385575)
5(-2.369587529 -2.926668674 -3.247428446 -3.218968959 -2.860745475)
5(-2.904456418 -3.386288301 -3.56122011 -3.307221116 -2.722166117)
5(-3.344960809 -3.657197676 -3.563355306 -2.990071554 -2.143379385)
5(-3.600128183 -3.579185102 -3.08669642 -2.115538844 -0.9805808628)
5(-3.546494714 -3.001978479 -1.967952918 -0.5771228622 0.8637920119)
5(-2.978134402 -1.798147911 -0.1241672399 1.658913567 3.134572855)
5(-1.806777012 0.1325546842 2.443539308 4.444388207 5.727662942)
5(0.0573846692 2.707143889 5.48533861 7.391726089 8.140304071)
5(2.455145067 5.717873806 8.575430989 10.00075957 9.734764674)
5(5.198119675 8.652595824 11.15175237 11.60034617 10.01974063)
5(7.838267699 10.89564485 12.46188465 11.50186394 8.782900625)
5(9.881517078 11.98040166 12.14351986 9.708262223 6.124209391)
5(10.73440669 11.30226618 9.627076704 6.371447445 2.778214409)
5(10.13752927 8.991036477 5.729118338 2.67797242 -0.4031959789)
5(8.124806185 5.363857662 1.453864052 -1.083429734 -2.638420492)
5(4.975143768 1.397875838 -2.072757943 -3.364115721 -3.492183689)
5(1.441789243 -1.657183081 -3.925534996 -3.922823341 -3.044721655)
5(-1.443127522 -3.321563245 -4.069739511 -3.225029207 -2.019411016)
5(-3.068880997 -3.754799435 -3.012110545 -1.99699288 -1.05488871)
5(-3.276720641 -2.664804925 -1.631663565 -0.9257145038 -0.3943183441)
5(-2.466601182 -1.393716441 -0.6389557393 -0.3115317346 -0.1181269503)
5(-1.356527947 -0.5125106627 -0.1719972346 -0.0689396558 -0.02349926992)
5(-0.4984350969 -0.1181400986 -0.0272863232 -0.009875633395 -0.002613325584)
5(-0.1144453061 -0.0130904618 -0.001875704785 -0.0008420652594 -0.0002369625783)
5(-0.007427922704 -0.0003186921393 -7.371408935e-05 0.0001198618444 -8.285264492e-06)
5(0.0008731723379 0.0914293491 1.682561394e-05 0.0482324923 6.619932903e-06)
5(0.001554611408 -2.95190787e-05 -0.01267728657 -1.165540295e-05 4.636529018e-07)
)


60
(
5(-0.006369496683 -0.00584688341 -0.01092300361 -0.011492665 -0.01488885285)
5(-0.007040924446 -0.007740718525 -0.01002094958 -0.01118026748 -0.01213787378)
5(-0.00794824214 -0.009561262361 -0.01069465899 -0.01206911325 -0.01190878215)
5(-0.009315152283 -0.01149616243 -0.01260488913 -0.01393899172 -0.01333599903)
5(-0.01149279264 -0.01395688216 -0.01555312944 -0.01663485906 -0.01596939499)
5(-0.01446569079 -0.01708046057 -0.01914993367 -0.01988619677 -0.01923750418)
5(-0.01780913422 -0.02059964091 -0.02295429444 -0.02329832747 -0.02229651142)
5(-0.02134962035 -0.02440345081 -0.02674564247 -0.02671330174 -0.02506038903)
5(-0.02499574391 -0.02824127826 -0.03041443593 -0.0299962387 -0.0276367572)
5(-0.02857007397 -0.03175730502 -0.03381934015 -0.03294929842 -0.03003724707)
5(-0.0316845958 -0.03460837164 -0.03661517473 -0.03525305669 -0.03208117858)
5(-0.03408966745 -0.03650178943 -0.03841836626 -0.03664325447 -0.03346941607)
5(-0.03573679455 -0.03745059389 -0.03908075183 -0.03704903306 -0.03423232859)
5(-0.03668475436 -0.03755520564 -0.03864019123 -0.03657668843 -0.03439837428)
5(-0.03729232123 -0.03689297517 -0.03728641423 -0.03545383846 -0.03423993885)
5(-0.03736272502 -0.03537135557 -0.03500452581 -0.03372894179 -0.03397561266)
5(-0.03621095854 -0.03238852569 -0.03158723631 -0.03158934012 -0.03378685995)
5(-0.03263029443 -0.02747989928 -0.02694603562 -0.02895913783 -0.03435358986)
5(-0.02623185132 -0.02024182251 -0.0210078484 -0.02664509767 -0.03559841557)
5(-0.01653911014 -0.01120894859 -0.01491240102 -0.02600282952 -0.04057522757)
5(-0.003436251433 -0.001777808238 -0.01060234958 -0.02953387818 -0.05063613555)
5(0.009671710314 0.00561804049 -0.01120620702 -0.04133639004 -0.06974702081)
5(0.02212623245 0.006698383719 -0.02230640538 -0.06676530646 -0.1055144832)
5(0.02912943608 -0.00476349284 -0.05085669115 -0.1143707519 -0.1653429895)
5(0.02274340129 -0.03708863278 -0.1069219468 -0.1955370789 -0.2597240246)
5(-0.006068724364 -0.1015282919 -0.2048052849 -0.3235447905 -0.406838501)
5(-0.06817662557 -0.2126105508 -0.3599615052 -0.5155823295 -0.618146987)
5(-0.1786941836 -0.3874189195 -0.5907419537 -0.7898563231 -0.9105421594)
5(-0.3547773566 -0.6443091929 -0.9152153196 -1.160983427 -1.295166373)
5(-0.618192198 -1.000536942 -1.350593262 -1.63690156 -1.776188837)
5(-0.9789449128 -1.471299502 -1.901343886 -2.217641111 -2.329395164)
5(-1.459197227 -2.056735208 -2.555336355 -2.8711057 -2.924959959)
5(-2.054012524 -2.739570335 -3.279160316 -3.543263034 -3.483174498)
5(-2.745327072 -3.477285763 -3.997122678 -4.135089115 -3.825510798)
5(-3.480790573 -4.190742065 -4.593815427 -4.500312327 -3.946561279)
5(-4.181327936 -4.760343506 -4.901525604 -4.463872184 -3.549227266)
5(-4.762727726 -5.021473615 -4.72587901 -3.821523498 -2.465126615)
5(-5.005718616 -4.798113344 -3.862495228 -2.38751416 -0.5881045585)
5(-4.78370695 -3.88338865 -2.160924898 -0.06855258245 2.086437382)
5(-3.871107236 -2.133040976 0.4430597046 3.079488152 5.406779202)
5(-2.227847506 0.450387224 3.873614742 6.760498067 8.756441375)
5(0.1630616646 3.747521077 7.72443234 10.5521588 11.70789019)
5(3.213580125 7.403642505 11.46529158 13.59546756 13.29746252)
5(6.418435969 10.79849604 14.21500488 14.91129524 13.2244472)
5(9.394513993 13.27019007 15.45535449 14.20897552 11.03248313)
5(11.56735731 14.14435986 14.22100487 11.35951358 7.290936528)
5(12.10148887 13.11502764 10.84923253 6.951883856 2.807072669)
5(11.62392181 10.2097123 6.109477892 2.343528654 -1.358080073)
5(9.313962614 6.121643926 1.437308748 -1.756236086 -3.880347572)
5(5.688714827 2.322450655 -2.634673886 -4.446933098 -4.660448944)
5(2.291964536 -1.550464724 -4.586724497 -4.821026301 -3.890788047)
5(-1.041015543 -2.955847607 -4.468734754 -3.650625784 -2.410443485)
5(-3.131687651 -3.824502587 -3.058723762 -2.083802192 -1.159423406)
5(-3.44691594 -2.877808197 -1.58326312 -0.8956761574 -0.4190428148)
5(-2.898349189 -1.572407433 -0.5848299487 -0.2625431 -0.09939088589)
5(-1.878366386 -0.5853213067 -0.1138783866 -0.04749696606 -0.0155334757)
5(-0.7852018302 -0.1468784065 -0.01776500722 -0.004560892606 -0.001201277636)
5(-0.2477742541 -0.0119131479 -0.0007012460692 -0.0001794421266 -6.007639868e-05)
5(-0.04027894547 0.0009205957782 1.258494559e-06 -4.352513909e-05 6.285322828e-07)
5(-0.04961933488 0.005354065778 -0.03758906943 -1.802568081e-05 0.2216820211)
)


60
(
5(-0.009299447656 -0.0089980451 -0.01681004242 -0.018689806 -0.02367604424)
5(-0.01083635418 -0.01231305358 -0.01620345648 -0.01872695137 -0.02036151959)
5(-0.01259400178 -0.01545884936 -0.01775572089 -0.02047266708 -0.02047406581)
5(-0.01494267534 -0.01869407634 -0.02108594044 -0.02364602346 -0.02293515386)
5(-0.01851976853 -0.02273318865 -0.02591938748 -0.02802754735 -0.02716926212)
5(-0.02332020489 -0.02783066532 -0.03168316384 -0.03320905463 -0.03229079768)
5(-0.02874834798 -0.03355636796 -0.03779107612 -0.03861952916 -0.03702399899)
5(-0.03456194287 -0.03975943889 -0.04388290285 -0.04399275544 -0.04135210182)
5(-0.04058239083 -0.04603376708 -0.04976725816 -0.04911992542 -0.04525425335)
5(-0.04655792614 -0.05182001424 -0.05518338275 -0.05367228827 -0.04880738604)
5(-0.05175829167 -0.05650641484 -0.0595498177 -0.05711875975 -0.05172362656)
5(-0.05578582547 -0.05949375082 -0.06213183392 -0.0589096637 -0.05347927044)
5(-0.05816198097 -0.06055574263 -0.0625475132 -0.05879329707 -0.0538281436)
5(-0.0590328662 -0.0595670672 -0.06057467593 -0.05670927002 -0.05292849895)
5(-0.0585015418 -0.05674060207 -0.05647125424 -0.05287024652 -0.05064282628)
5(-0.05650923915 -0.05171082632 -0.05001522223 -0.04722349232 -0.04741953811)
5(-0.05190035649 -0.04391645054 -0.04094530893 -0.0397341895 -0.04319195494)
5(-0.04371705068 -0.0320322403 -0.02862478952 -0.03013428799 -0.03810722911)
5(-0.02926150188 -0.01539394009 -0.01300453976 -0.01916103953 -0.03348210515)
5(-0.009858091428 0.005766667509 0.005256160724 -0.00758090253 -0.02867308203)
5(0.01655288691 0.03061848897 0.02472159696 0.001777596072 -0.02994771138)
5(0.04844434447 0.05573328751 0.04134671052 0.004977266978 -0.03807529624)
5(0.07902900162 0.07775900945 0.05000159024 -0.004323752243 -0.06204298625)
5(0.1105533037 0.08971066193 0.04169188824 -0.03611748693 -0.1117221328)
5(0.1255966483 0.07995230444 0.004305051596 -0.1023093594 -0.2012686728)