/*--------------------------------*- C++ -*----------------------------------*\
| =========                 |                                                 |
| \\      /  F ield         | OpenFOAM: The Open Source CFD Toolbox           |
|  \\    /   O peration     | Version:  2.3.1                                 |
|   \\  /    A nd           | Web:      www.OpenFOAM.org                      |
|    \\/     M anipulation  |                                                 |
\*---------------------------------------------------------------------------*/
FoamFile
{
    version     2.0;
    format      ascii;
    class       dictionary;
    location    "constant";
    object      la_r1;
}
// * * * * * * * * * * * * * * * * * * * * * * * * * * * * * * * * * * * * * //

la_r1_table
60
(

60
(
5(305456.5185 316251.1598 1222987.022 706522.8945 2852203.153)
5(216564.185 2983.223265 76127.62635 120500.1122 678679.1859)
5(-438388.5776 -14500.51233 -7462.613094 40057.23917 -105.8403608)
5(-82488.94263 -301.6758793 -4415.646365 202.2660295 -113312.0067)
5(1490180.246 7252.053383 77267.47917 -11323.31174 77498.4732)
5(327197.576 5805.091183 13869.85462 17470.88607 6518.217599)
5(-3533.952837 2033.545963 -7870.124861 4065.081527 24006.25759)
5(7722.32878 -944.1585295 -11777.241 -7663.922549 7240.523389)
5(587454.5679 -2031.397492 -4583.387757 -213.6178648 -18903.97603)
5(396500.6601 924.8891044 -10798.03617 2992.573657 -3937.208881)
5(-451127.1612 890.3407113 14304.73053 1066.277162 10596.37796)
5(-349564.124 -700.9211803 15217.33742 -1880.41709 8152.742998)
5(-13503.96674 -367.6954269 4813.108914 7008.889093 4280.919144)
5(-414.8722568 3575.327649 5731.173921 9318.787223 11692.53336)
5(6911.932976 9803.127898 8012.275917 -257.9557459 6206.285341)
5(7476.857001 14615.57725 9965.730872 10181.0527 1253.128538)
5(1525.420978 7949.887782 12605.8978 7619.244495 6614.58895)
5(100.9408973 6629.069325 12800.58585 20901.01665 32287.71191)
5(1296.459076 907.8029352 17672.16779 26283.20703 59854.967)
5(6867.699212 18357.53967 40849.81413 46334.17079 72016.50716)
5(15896.90604 43443.67842 61881.84569 144958.6512 119705.4329)
5(12970.98165 39959.27486 70314.41832 104325.566 105510.6933)
5(24386.25343 40111.92451 94313.35065 73840.39245 111309.3346)
5(39148.69134 68488.01913 107560.8907 137851.0675 181833.6195)
5(45757.06489 132225.0834 120969.9895 156766.512 226176.4096)
5(59820.62203 178832.34 210461.6732 233376.0583 297547.8878)
5(81200.81785 168022.4687 262078.1842 334723.6571 356940.3937)
5(89652.34758 154031.3388 292568.264 435482.3482 412184.3462)
5(102437.8383 185395.308 373337.8386 548916.5873 495440.9241)
5(134743.7208 225937.5681 364329.3916 506458.1783 531628.9198)
5(164814.9 309029.1331 451601.0303 620129.3972 719030.8323)
5(221205.5036 360905.13 510954.5654 697875.9135 523357.8886)
5(245362.1369 373249.9902 473008.5996 665142.8678 613444.1652)
5(265430.3313 448542.2465 582580.4469 709867.6269 691112.5193)
5(313585.388 453934.5986 541028.6557 693765.2519 -85252.37999)
5(358746.8081 577501.6749 857892.1654 848538.9204 -600334.5203)
5(389997.9514 592528.27 961981.9878 811793.2168 999195.9709)
5(378263.3343 527569.2653 661228.3311 759354.3076 36774.52458)
5(317291.9776 579847.9447 493816.3408 733884.9912 1085546.943)
5(319422.3651 610685.6729 929653.8025 880191.192 -194226.9899)
5(361072.323 579772.8872 1366850.617 -519345.6322 -834593.6251)
5(336559.3073 496186.6993 1197628.097 -14081289.53 1245.598119)
5(254282.171 607228.5011 590188.3828 3613.715052 1341.581493)
5(155366.4126 847626.2116 100473.4072 1567.633958 -1298376.355)
5(163279.5516 1311599.958 -2334561.14 1898.731336 -163028.0799)
5(310031.9185 1024511.56 2324889.129 -291.5807484 2323.975112)
5(728709.2044 -2324171.719 -33380803.34 -161977.8995 3196.165794)
5(-2923328.761 707202.0743 -3470350.417 -6730.405228 1143.006279)
5(421723.4033 2157062.215 -174261.1865 -9134.509768 -9929.786643)
5(2199884.004 -2624284.397 -9629.965804 -4933.712751 -11230.78301)
5(-17202827.69 -5122.980782 4070.83509 -7763.291402 -41300.8276)
5(-59680157.51 -1532.264744 -2060.915042 1404.777013 -17125.08434)
5(-5940534.604 -42666.50119 6141.390372 9914.141293 -11861.8411)
5(2370.472325 -19730.34462 -20065.29794 -24170.58304 -58736.95059)
5(-1823.164989 -35045.97292 -109.9889325 6602.191573 -9141.827381)
5(-1321363.443 -7037.302604 12678.46418 -26064.27673 17703.69612)
5(4932137.679 -1939.603942 10196.62026 11411.1255 46806.27407)
5(5811421.767 -5505063.472 -9691.526513 -12203.30281 -126448.5438)
5(9347718.879 16862354.2 6915682.918 3681.133309 -93597.12754)
5(13925.26991 1381.577563 11864.89343 -18399.70538 -67274.52066)
)


60
(
5(9964.570314 7136.278798 133264.035 -14584.08346 422006.7655)
5(-31643.74604 16708.82648 -139349.8551 -98027.35519 -338524.4006)
5(-25931.93683 14397.91404 -31285.0002 -15845.15428 -214712.3251)
5(20999.69319 18606.89558 16364.23653 42895.07281 14256.43003)
5(43978.16367 24986.73455 37914.88875 66073.86015 88143.63276)
5(27453.84987 27308.11654 67142.74056 73555.21434 146390.1093)
5(16547.91165 29700.77872 51821.91799 69562.4248 97314.06497)
5(18522.61814 37912.02375 44683.72822 80137.12253 98940.35982)
5(20283.75853 47356.14481 60039.29525 107634.4882 140347.1898)
5(33419.60404 60034.99432 87109.18631 147158.8962 202133.6921)
5(47649.31529 80555.10064 122410.1214 205044.8332 262976.2464)
5(56342.4637 107741.5124 168410.3273 271006.2629 359333.6535)
5(76384.27669 145507.4762 229005.9878 339796.1099 467706.0451)
5(98989.52245 200117.8247 304741.2667 453609.2487 586443.7414)
5(132111.9033 267267.9686 403328.1986 610550.8848 779682.5596)
5(184775.6675 356116.0186 538093.8383 814853.4942 1066026.374)
5(258579.3843 485635.8657 732512.5689 1097151.042 1428973.8)
5(347778.0069 662510.1582 1000048.546 1485133.572 1919510.583)
5(476947.5673 904951.117 1360516.575 2006816.796 2523058.325)
5(647261.3472 1225641.337 1827649.01 2682688.403 3346399.734)
5(881569.319 1651399.827 2446328.491 3508487.076 4391373.813)
5(1200538.456 2176365.297 3222181.192 4543937.296 5582000.213)
5(1589879.078 2838561.518 4168465.931 5824666.499 7050026.345)
5(2109426.041 3656395.486 5322111.005 7255703.436 8684902.768)
5(2738867.012 4633332.676 6635161.892 8808664.509 10411491.52)
5(3494610.771 5773251.271 8145942.474 10561889.23 12235527.57)
5(4424239.358 7015594.822 9822771.228 12420846.94 14018739.36)
5(5488060.93 8380033.501 11504741.24 14211687.54 15525619.87)
5(6637621.237 9881651.556 13262271.5 15809465.11 17039798.09)
5(7929972.976 11396946.91 14997321.76 17272860.95 18068921.26)
5(9316751.84 12838106.04 16547268.87 18438197.94 18723682.12)
5(10691283.89 14139487.55 17719570.09 19275935.52 19013909.57)
5(11981747.36 15141047.99 18557928.02 19570235.54 18479022.95)
5(13150990.93 15757744.28 18770471.24 19336704.78 17508972.09)
5(13857890.06 16009406.23 18609021.71 18381726.87 16242435.11)
5(14429794.97 15295463.06 17231281.56 16781839.76 14069688.31)
5(13708374.79 14014368.34 15719837.35 14427055.36 11612084.53)
5(12661871.06 11830432.05 13438751.79 11804083.27 9691547.295)
5(10490535.21 7883437.585 10209705.64 9437111.617 6741816.902)
5(6261872.787 4047176.117 6056459.275 6594736.432 5326401.974)
5(1088538.133 -1846833.658 781512.1253 4463014.611 2704845.553)
5(-7149942.058 -5089797.668 -1646147.371 4332882.238 1778869.818)
5(-12450078.58 -9042373.365 -3562271.135 5341605.443 621832.365)
5(-19171380.84 -16313830.48 -5369070.442 2837263.766 605313.6567)
5(-25702410.74 -17430793.59 -5643741.116 -111143.6893 906377.6407)
5(-33522094.26 -18797975.63 -3171746.653 -1616500.696 2070919.583)
5(-40186177.21 -16336307.79 450116.5282 -1718594.013 2607631.802)
5(-41338984.07 -12168433.27 -194668.6293 -866632.3361 2159023.642)
5(-31711163.79 -4989803.429 -1167039.55 -68202.54249 3286566.28)
5(-30424612.29 814727.6163 -809117.38 1905256.311 3388341.64)
5(-18340031.8 -2338311.192 329736.8212 2709578.307 2316401.173)
5(-14985475.42 -3270051.235 413669.4084 3892615.929 4178731.291)
5(-3698995.036 88163.26986 3192578.902 4169332.725 -553355.2612)
5(1117431.721 -374502.0334 5816255.704 5463085.51 4788302.965)
5(-726327.6033 6598747.887 7433950.522 6757352.327 5122112.98)
5(4746858.007 8472512.092 8339172.747 7417138.266 6419584.893)
5(5415463.237 9538055.587 10205285.19 7664176.388 4915673.178)
5(10058252.97 8714416.999 8882343.15 5624856.266 8595919.965)
5(-10042566.84 -1276704.889 7446361.473 17190685.03 3785655.837)
5(-15446960.89 -18228121.45 -16131652.64 -25137838.96 -10222541.73)
)


60
(
5(6062.552833 25036.30198 78684.57034 28007.76812 355425.4382)
5(-3348.528028 13994.01541 -40142.23322 5626.151783 -139013.2369)
5(5994.004678 19371.2181 20971.32622 51214.13117 47647.19096)
5(13758.14395 27154.08332 46309.09934 84371.73992 129741.424)
5(17380.18969 36164.52749 64962.47943 118048.6337 178030.6863)
5(21849.2619 48338.75905 86508.92587 154121.5126 243804.3672)
5(29067.59518 63685.16455 116081.8277 197594.1492 313636.194)
5(36804.28646 83733.44515 149375.8331 258099.7615 402131.1099)
5(49445.703 114461.4016 197794.6534 334298.0804 485153.6234)
5(73372.95701 156216.4354 260404.8307 433043.1318 616397.1574)
5(102679.3688 212246.5928 342182.013 566138.7574 824638.9056)
5(132917.186 281409.201 457565.5774 743277.6275 1055101.2)
5(180789.6445 374934.0478 607111.7651 968542.6144 1361879.38)
5(252467.8001 504544.7136 805244.2827 1289398.618 1769779.886)
5(352677.3265 682285.5413 1078434.816 1684499.223 2301359.531)
5(473545.457 926186.8535 1445289.191 2198607.758 3001107.133)
5(635839.5469 1246336.843 1935491.138 2923862.45 3948554.677)
5(880562.9599 1690281.339 2595474.72 3897280.118 5128377.618)
5(1202402.813 2277087.626 3478342.276 5168786.409 6635430.979)
5(1655967.916 3026560.986 4654910.847 6789662.711 8616995.61)
5(2221183.335 4037198.046 6157972.449 8850166.166 11142136.94)
5(2973131.633 5349664.845 8003305.266 11291314.04 14086353.78)
5(3978570.752 6951397.623 10251671.39 14210761.77 17402834.38)
5(5222103.508 8881182.396 12967580.79 17600530.73 21209746.24)
5(6709018.667 11180683.3 16132236.31 21345854.77 25254075.91)
5(8506412.493 13812347.93 19637810.59 25348808.21 29230480.56)
5(10675873.77 16648365.79 23244836.96 29299831.51 33144018.9)
5(12922807.12 19702378.65 26908714.93 33155948.47 36608941.77)
5(15463768.64 22814140.99 30512846.14 36534601.27 39579548.22)
5(18071499.22 25694712.18 33753695.7 39277380.92 41279762.55)
5(20611658.98 28355513.05 36312164.44 41055382.82 41830298.7)
5(22990039.8 30415224.77 37805731.25 41574826.09 41202066.75)
5(24905987.61 31344670.54 38153767.21 40635661.62 38703419.53)
5(26141182.69 31239555 37063203.49 37826564.85 34761825.52)
5(26317508.09 29601063.78 33874955.93 33243653.33 29046695.99)
5(24021613.22 26047845.38 28870465.07 26900269.84 22976548.11)
5(20899995.26 20098399.75 21758713.33 18870076.48 14529568.5)
5(15717393.16 12012519.34 12350636.38 9581087.483 6803193.889)
5(8444830.26 2008613.138 583268.5713 -589161.7081 -1726225.546)
5(-2490476.728 -11036394.94 -12292516.04 -10870599.88 -9304585.91)
5(-17797571.99 -25949914.33 -24613655.94 -20086911.07 -14984291.01)
5(-30713080.08 -40327529.99 -37572997.39 -27297559.65 -17895390.17)
5(-48573257.94 -55042889.43 -48525701.07 -32820792.97 -19469671.3)
5(-64483931.88 -68205506.96 -56670434.2 -35638444.78 -20659801.01)
5(-81012055.97 -81123180.55 -62012761.4 -35307872.18 -16847330.33)
5(-92678794.68 -85728603.98 -60863774.52 -33280280.57 -14214151.95)
5(-101402562.2 -85942400.06 -56105064.74 -27543419.56 -11670544.14)
5(-104438023.7 -81392253.27 -49837547.17 -21501099.78 -7832027.696)
5(-102807510.6 -75065925.44 -41241068.03 -16283388.74 -4680870.25)
5(-90363878.12 -58592934.31 -29261227.89 -11122883.49 -2240600.259)
5(-73725712.6 -44793546.84 -18646650.37 -6688252.86 522806.7326)
5(-53724555.94 -31977700.55 -10417463.84 -3113025.239 969232.3406)
5(-34592829.7 -18116856.67 -3855595.036 -1327910.208 3377324.928)
5(-25643572.61 -6699296.884 831014.4742 1813510.941 -2080854.27)
5(-5889025.434 -1677170.459 4190524.988 4865094.903 4615143.653)
5(-5785493.281 4832881.265 7092871.384 6320171.659 5180076.247)
5(2795101.627 8694107.685 8111922.702 8327646.255 7239251.742)
5(6998342.329 11308398.25 12563519.66 9062040.663 8872909.452)
5(11133785.46 15083398.42 19795334.89 17741660.93 10924270.58)
5(-2338026.024 -10995347.36 11091.56822 8313146.086 90177.41671)
)


60
(
5(5004.482607 58684.25336 65117.24791 67968.59525 335881.067)
5(8518.595322 19863.81448 12805.42587 75221.38562 17265.3046)
5(15551.88383 35083.05539 66591.94888 136536.202 207534.4983)
5(24258.71404 54095.27084 103534.6871 197134.7108 328215.6873)
5(33197.77312 75905.60514 142042.4983 268365.0625 445292.7165)
5(44339.9528 103247.9446 195532.0377 363172.2067 588022.8638)
5(61488.23089 141500.6227 265784.9124 476153.9228 752202.9758)
5(87378.1446 192785.5247 350291.9046 604689.4709 941727.4511)
5(121403.5236 256985.1626 453880.979 762288.9116 1158783.246)
5(162083.556 343097.3468 586316.7045 972085.713 1446386.064)
5(220960.722 455531.2091 761858.9137 1246406.343 1826795.072)
5(304817.4534 599939.8311 995522.7545 1591398.686 2306289.302)
5(401186.5429 794995.9383 1290681.816 2037742.44 2956632.801)
5(526128.4494 1046050.975 1672180.306 2631810.463 3705766.109)
5(714846.3818 1380296.404 2180513.864 3410026.834 4683404.464)
5(977979.8849 1828882.079 2871950.12 4403974.511 5990127.876)
5(1294837.262 2422302.844 3803800.138 5773802.642 7618821.34)
5(1746427.382 3221178.646 5024917.269 7468962.328 9797377.563)
5(2353430.68 4285537.159 6614322.308 9625372.552 12501324.27)
5(3135309.104 5680693.07 8655435.398 12464282.9 15912300.08)
5(4273658.285 7443409.991 11231518.74 15914080.52 20136029.99)
5(5659956.564 9679350.24 14472656.34 20127856.14 24911479.44)
5(7254794.758 12522569.53 18422444.04 25071334.08 30521208.44)
5(9437762.3 15878389.86 22963035.97 30768263.06 36837914.56)
5(12187229.81 19682567.77 28161228.14 37095187.41 43682655.82)
5(15251506.53 24081404.4 34004702.21 43754974.88 50702554.54)
5(18826103.68 28974574.58 40177631.5 50513084.91 57224365.12)
5(22830428.48 34134219.98 46389299.52 56991893.35 63317125.44)
5(27104133.72 39355231.94 52392854.6 62744731.95 67889923.17)
5(31446151.82 44296506.6 57769137.25 67356500.01 71478678.36)
5(35661111.66 48618630.88 62014809.38 70374247.28 72464990.83)
5(39493128.5 51937579.5 64420730.95 71288066.54 71379773.24)
5(42448078.08 53729211.26 64891728.39 69636598.95 67287308.09)
5(44121029.47 53647573.67 62860883.61 64804590.59 60633509.15)
5(44127336.4 51057146.12 57769251.16 57067483.27 50160810.84)
5(41768784.14 45531751.43 49014711.3 46227354.67 37768224.53)
5(36706936.47 36157205.67 36453347.72 31937375.23 23216262.13)
5(28753054.66 23330424.21 20111094.52 14682890.1 4761480.251)
5(16918233.77 6261145.753 585227.6752 -4878806.515 -11426307.92)
5(522184.7216 -14736489.86 -21056374 -25956780.97 -31124081.48)
5(-19408058.64 -37492602.77 -45617488.79 -46694539.74 -42831078.72)
5(-43357466.37 -62532266.43 -70791410.25 -65003086.32 -52622572.35)
5(-69749457.95 -88956357.07 -94055508.6 -79527207.3 -60566051.68)
5(-97911404.82 -115102930.9 -113459637.1 -89753710.08 -63449022.46)
5(-123605596.6 -136779539.4 -127185055.9 -93953343.12 -62383368.59)
5(-147033495 -152954588.8 -135197441 -92783282.67 -52878292.06)
5(-167373789.1 -163838965 -132723732.4 -85785174.6 -45945232.61)
5(-177321982.9 -162420162.9 -126771440.4 -72523883.25 -39023864.77)
5(-193609100.3 -151171289 -109234642.1 -57313842.43 -26771284.37)
5(-172441164 -134217021.7 -84496187.05 -42132358.99 -22217841.23)
5(-155650427.6 -113524639.5 -61034331.81 -30437659.19 -17755483.1)
5(-142341353 -85174529.44 -39479609.99 -16918021.41 -4694438.826)
5(-105754139.9 -56044059.62 -24219055.59 -8698274.572 -4131073.773)
5(-77663030.06 -33049944.23 -12896001.3 -2810669.63 -4628096.278)
5(-38533601.26 -18841313.32 -5478107.367 2177438.442 -890248.9524)
5(-34828816.54 -5536210.199 2088491.954 2146978.346 4812280.355)
5(-9212363.672 -496298.3899 7634810.362 9449725.404 7023282.013)
5(6195753.156 11423174.3 13647893.61 12191040.42 10468334.73)
5(5168281.829 14322232.02 21935443.72 18870050.46 23601824.89)
5(-14697003.03 34416390.4 -3410730.632 -134433110.8 -189705552.4)
)


60
(
5(14651.81235 102418.2799 72333.37324 139664.4539 382177.9521)
5(15619.46035 25120.74888 66445.33601 170273.6106 223761.4383)
5(28437.40522 62656.79709 132478.2024 274756.6132 474405.1936)
5(41066.54899 100915.9485 197806.729 394029.1058 667253.6733)
5(57747.12201 139756.5669 274033.9006 528974.1373 893208.119)
5(83740.42192 194054.7764 379878.962 702562.3547 1161801.666)
5(119858.5702 268458.1597 512318.9844 906184.5276 1453006.907)
5(164132.2415 360110.2324 662881.8924 1138589.797 1787614.783)
5(225926.9626 477163.0286 846122.8008 1425724.074 2188423.625)
5(304208.3125 623788.8379 1075305.375 1773262.792 2684340.536)
5(409795.9638 813653.0669 1369721.419 2223370.412 3336272.036)
5(544831.4292 1063019.972 1758809.493 2818509.034 4134738.137)
5(729228.8188 1374061.587 2255273.291 3556194.927 5124919.579)
5(949246.4766 1776121.053 2899853.01 4496669.91 6382649.786)
5(1218824.87 2315074.335 3733850.624 5719219.373 7942065.201)
5(1643749.205 3023925.282 4797896.71 7285935.352 9864422.21)
5(2185635.781 3966759.866 6196096.436 9300279.5 12318692.4)
5(2875296.521 5203932.304 8053452.617 11840917.08 15507019.98)
5(3834341.444 6804423.372 10469460.71 15116350.04 19503864.03)
5(5076873.74 8861500.396 13512258.8 19323548.7 24434167.56)
5(6680602.742 11496862.4 17358639.27 24275534.62 30547832.95)
5(8767415.871 14832880.45 22078554.14 30303678.11 37644624.63)
5(11409946.24 18918102.25 27722306.59 37598411.67 45952579.53)
5(14654635.96 23832309.93 34386177.22 45755734.21 55150748.38)
5(18514372.11 29537196.9 42005092.35 54770594.74 64681867.81)
5(23063444.8 35812979.01 50433199.47 64493733.25 74850321.48)
5(28344546.02 42777585.41 59276361.28 74373235.85 84779332.04)
5(34231813.25 50318279.52 68191492.7 83886834.31 93957364.04)
5(40415346.35 57879506.23 76914483.15 92614462.51 101542414.3)
5(46599957.03 65127997.18 84853585.54 99763820.4 106832859.5)
5(52899972.04 71564020.93 91176329.23 104709136.2 109704547.2)
5(58436385.35 76534115.34 95186626.33 106810028.1 108201273.8)
5(62787914.49 79664622.95 96480276.41 105202298.4 103573785)
5(65711146.16 80155502.68 94270683.76 99311258.31 94192516.23)
5(66224973.58 77357856.64 87514426.07 88815463.54 80036521.14)
5(63840680.02 70553313.21 76188837.7 73199258.48 61261951.87)
5(57965474.52 58755175.13 59961660.96 52321478.12 38630081.75)
5(47424875.68 42259500.45 38175537.42 27042710.56 12637923.42)
5(33141688.44 21295660.44 11027458.53 -2632833.841 -17462627.53)
5(13779729.01 -5365866.615 -21615317.01 -35730594.61 -46015260.81)
5(-9527447.476 -36432433.34 -57728316.93 -69757407.29 -73417040.17)
5(-38953306.89 -72457288.12 -95948409 -102928003.5 -102027886.4)
5(-73506228.79 -111575913.9 -134214440.9 -132330052.3 -116237743)
5(-111933492.1 -150026793.9 -168993628 -156820443 -126863979.4)
5(-151714499 -187455581.2 -195360371.3 -172439440.4 -128348937.2)
5(-181316759.5 -218674109 -215307408.6 -178122051.9 -126779161.8)
5(-215052909.1 -238470649.6 -225060642.7 -174758907 -115845984.9)
5(-238418253.1 -249213439.4 -221452291.7 -162020998.1 -98634169.19)
5(-252455017.8 -246948476.1 -204893181 -135812476.8 -79202803.62)
5(-256429999.2 -236882758.1 -177192805.6 -110112094.6 -56987150.73)
5(-249837621.7 -213720329.1 -141566553.8 -82703949.89 -37202047.79)
5(-232793483.8 -178314109.8 -103867189 -57790270.9 -22298056.28)
5(-196852518.9 -136934751.5 -71130609.55 -35757961.61 -27933057.39)
5(-165108351.2 -97236677.98 -41817030.43 -18741526.15 -4864170.19)
5(-120267505 -62970165.37 -22493348.5 -7685043.159 -935302.7641)
5(-83648764.21 -34771024.65 -10720112.29 536438.8278 -857542.9081)
5(-49368422.62 -17915810.91 6079881.184 6988587.179 4634718.693)
5(-21065561.86 4193027.554 15097957.94 15638677.73 9833806.233)
5(-18478405.94 200954.4635 11152406.36 25515001.59 18795928.81)
5(-43951476.28 -23142233.95 -14650992.48 -6921372.285 568827.1014)
)


60
(
5(39068.7729 163601.0137 111446.0045 232613.8872 513560.9435)
5(20724.52155 33974.62666 135227.252 296200.8232 500844.7721)
5(43871.89426 102944.567 226867.5251 480181.2564 893241.2277)
5(69906.54589 167218.6966 337670.194 690493.4808 1219597.284)
5(100032.1041 234845.014 471247.0448 919720.2505 1558214.523)
5(140084.8652 327996.7766 651728.1479 1200768.575 1989983.655)
5(201539.5211 448504.473 865467.5798 1523688.536 2458864.389)
5(278859.8025 595253.656 1103196.707 1882280.458 2975309.395)
5(377052.5123 779745.7001 1388273.765 2323402.265 3612279.874)
5(504962.5304 1007875.853 1746038.821 2879290.62 4393970.637)
5(664811.3754 1297389.781 2201361.369 3563660.331 5360629.935)
5(875505.58 1662806.292 2773886.835 4427872.857 6553845.646)
5(1138616.227 2134686.413 3521059.116 5530979.524 7976752.93)
5(1480459.534 2735037.411 4465263.273 6882916.947 9716565.142)
5(1934867.257 3504039.234 5661414.339 8586589.212 11898882.83)
5(2505187.362 4514903.953 7191624.541 10758551.91 14600042.04)
5(3282496.896 5837507.554 9161997.598 13508009.68 17970501.19)
5(4288291.642 7547262.656 11717426.83 17005672.53 22220429.89)
5(5611940.073 9746934.853 14975208.48 21411808.22 27577481.3)
5(7384316.285 12588861.77 19087329.66 26879221.46 34169860.84)
5(9565203.638 16164515.35 24209673.43 33596344.74 42216396.25)
5(12428157.66 20571707.4 30505059.88 41741261.93 51591141.29)
5(16065415.79 25973866.3 38049954.13 51281369.25 62533597.29)
5(20334154.13 32442696.74 46869597.12 61949533.66 74989308.91)
5(25577264.07 39971325.87 56927452.3 73867477.63 88106805.53)
5(31801090.13 48508981.41 68010541.62 86812155.73 101567785)
5(38789046.74 57858786.89 79801029.64 100120516.4 115328274.2)
5(46414045.43 67782811.73 91881326.73 113108714.9 127968456.9)
5(54829743.2 77877673.25 103687721.5 125108433.3 138624108.3)
5(63468343.12 87775140 114532971.1 135405020.9 146947902.1)
5(71934486.32 96693972.71 123573547.4 143017770.8 151837648.9)
5(79359331.07 103987515 129985222.1 146870398.3 151980303.9)
5(85656859.49 109023464.5 132941328 146239881.6 146992520.4)
5(90165929.36 110815045.1 131346053.4 140305768.8 137762936.3)
5(92399688.91 108738786.1 124285357.6 128327168.6 119719963.6)
5(90762767.56 101908373.5 111438300.5 109755210.1 95560219.49)
5(84428652.79 89741351.99 92432259.33 84593767.71 65684650.26)
5(74390235.58 72141608.39 66415686.37 52569292.88 30372381.87)
5(58529100.98 47606735.67 33355992.66 14435263.32 -11166625.42)
5(38412416.96 15809262.17 -6200713.638 -29015350.41 -53907142.37)
5(11725353.92 -21282029.09 -52147787.77 -76038806.44 -97884415.3)
5(-21889660.48 -64881956.71 -102662525.3 -125113079.4 -139242284.6)
5(-58836557.96 -113217488.5 -156466328.2 -172750143 -174704644)
5(-102857717.3 -161682789.5 -206014790.4 -215273659.9 -201447357)
5(-150033864.6 -211970996.9 -250070734.1 -249133573.6 -220024819)
5(-192349235.6 -257652511 -287338758.9 -270629419.1 -223927516.9)
5(-234100927.2 -293855352.9 -315120252.3 -277129073.3 -219311850.1)
5(-272248545.7 -319275872.1 -326473780.2 -270191682.8 -201622865.4)
5(-302834156.4 -333107603.6 -318608381.9 -247957705.8 -169830971.7)
5(-317924122.7 -338740012.8 -297361848.3 -212587057.2 -130837901.4)
5(-321559672.2 -323336542.9 -260301872.9 -171779319.6 -104726987.1)
5(-319159938.1 -305148234.5 -212442332.7 -129483563.2 -66860279.81)
5(-286893600 -252929359.9 -166979665.1 -86460494.39 -41553677.7)
5(-252687705.7 -203482365.2 -115673706.7 -59995289.02 -22787261.92)
5(-212830359.6 -155882603.7 -73292473.74 -30567706.26 -12445447.38)
5(-173870431.7 -103346117.5 -36972753.46 -13586715.96 -24906248.46)
5(-127604843.4 -73183740.84 -18804729.27 -707535.0757 2805984.872)
5(-109897251.7 -35285779.5 -84844.50943 8641125.395 5188720.547)
5(-70889190.5 -31577171.5 -5516876.021 17554333.13 17478792.11)
5(-99093575.12 -63962741.86 -28576923.09 -29962741.54 -16333029.17)
)


60
(
5(70832.15675 236789.9266 170236.2879 362276.6285 705662.7609)
5(24226.29048 46988.54672 219020.4194 470625.923 874399.5146)
5(67373.77157 164557.2846 361130.3528 774553.8421 1437292.953)
5(110623.0435 262924.0146 541550.1468 1105941.279 1956026.603)
5(156614.1964 365721.4855 752172.8178 1452693.289 2507509.093)
5(220667.1613 510763.6572 1020098.118 1868531.278 3102296.088)
5(317508.6262 694762.0466 1336118.619 2347511.587 3798875.27)
5(431866.5593 910294.8286 1688008.578 2874614.738 4556792.593)
5(581187.6712 1177910.057 2097773.541 3494197.531 5476928.28)
5(771270.6108 1504019.494 2606068.888 4277137.821 6593184.359)
5(1002775.514 1911424.266 3257927.377 5271912.63 7926948.953)
5(1303034.573 2424358.791 4070266.727 6461096.302 9549093.808)
5(1680088.405 3073481.707 5085790.083 7938237.555 11477563.29)
5(2165036.216 3902532.636 6375003.081 9769984.233 13787227.01)
5(2767891.939 4958627.895 7993377.644 12033168.78 16566639.52)
5(3582595.332 6303325.337 10021362.17 14834595.44 20052221.15)
5(4612413.895 8040310.875 12625119.75 18352649.12 24415257.52)
5(5989508.439 10288503.56 15919026.81 22804650.53 29755504.59)
5(7744459.102 13144132.14 20045106.78 28337121.41 36530220.06)
5(10014104.48 16750839.39 25266293.65 35215121.85 44701749.15)
5(12979710.97 21275029.42 31741842.43 43618516.76 54668855.35)
5(16532877.65 26914951.93 39623814.51 53666024.4 66644493.04)
5(21219823.95 33781837.16 49029013.32 65467636.18 80197287.75)
5(26869154.41 41899450.34 60040440.57 79043270.07 95496806.61)
5(33296630.6 51236092.44 72578967.44 94279858.42 112076233.3)
5(41324700.16 61869678.49 86481605.36 110552784.8 129865631.5)
5(50445218.25 73736669.51 101506167.7 127068646.4 147176372.8)
5(60034706.46 86362710.39 116835959 143736937.2 163598411)
5(70491791.59 99280034.48 131810480.9 159829630.7 178726315.6)
5(81315462.32 112009833.3 145960628.7 173762831.8 190666784.3)
5(92189243.2 123890951.9 158175297.4 184494320.6 199212964.6)
5(102342372.3 133992939.8 167435979.4 191224537.2 202280471.4)
5(110964313.6 141427348.9 172777856.8 192820904.5 197432277.2)
5(117505346.6 145259979.2 173103630.3 188200053.9 187119913.3)
5(121025051.1 144620482.6 167470357.1 176615332.8 169362008.6)
5(120995848 138725717.6 154727099.7 157364904.6 142299590.7)
5(116344368 127019181.4 134526942.1 129828713.5 107338488.2)
5(106490508.3 108422175.9 106277409.9 93063221.64 62798285.23)
5(91440112.12 82711164.72 69906062.45 47491545.08 13231928.63)
5(69326510.87 49881346.22 25105328.24 -5033375.463 -43906317.37)
5(42769773.55 9985077.055 -28383956.41 -63332658.99 -105396038.3)
5(9061765.089 -37334045.97 -88335343.47 -126945598 -166367847.2)
5(-31272198.56 -91745126.31 -150744215.3 -191569644.3 -225133519.9)
5(-76407633.27 -149744391.2 -215228536.9 -254386959.3 -270973951.4)
5(-128365346.6 -208960794.3 -278092562.8 -310045043.4 -313530175.7)
5(-181226256.9 -267074314.5 -334253784 -352225077.5 -329595518)
5(-231978981.4 -321123092.9 -378414011.6 -378491529.3 -342097605)
5(-276038932.8 -360991894.8 -405169486.9 -388316729.4 -322544135.7)
5(-319134451.1 -390825423.7 -418686462.7 -378098009.8 -306851226.1)
5(-350819631.4 -407415467.4 -413998692.6 -351896788.2 -259864378.2)
5(-357891155.1 -407941495.9 -392274595.8 -308850190.4 -204344972)
5(-354433303.1 -391672285.3 -354953207.4 -258230797.2 -151593170.5)
5(-346015381 -356354830.1 -313727536 -195797121 -102362198.7)
5(-327541585.7 -319587419.1 -241963507.6 -141975183.1 -76474129.03)
5(-296538121.1 -277487328.8 -192336712.6 -89359161.84 -48029700.24)
5(-256544931.3 -217806876.5 -131136900.1 -50699125.24 -16901068.55)
5(-220328864.1 -167294971.6 -77662120.83 -30378771.41 -27398288.6)
5(-178628358.2 -121686489.3 -52448536.54 -10195853.4 -1424274.094)
5(-125247654.9 -94040638.07 -43104060.84 -10729893.14 13164142.14)
5(-124785982 -136501178.9 -142851227.4 -90463484.25 -35401660.1)
)


60
(
5(120512.7982 312395.9934 244058.3221 524251.1309 863685.9621)
5(31576.65527 55832.87698 320244.9442 701855.2027 1330736.146)
5(91861.85359 250555.2987 539130.9289 1174594.926 2210376.149)
5(156542.9411 396259.1243 810862.4976 1658179.83 2940032.431)
5(237057.9685 540143.2572 1126466.659 2155255.067 3723560.774)
5(335048.9062 747520.4739 1508105.636 2737380.55 4548451.565)
5(465728.8839 1012728.287 1941962.94 3395622.084 5504231.687)
5(636970.0969 1311739.323 2432201.631 4116598.949 6556253.182)
5(842168.6744 1680310.409 2992891.831 4972382.085 7780935.631)
5(1106196.414 2129388.589 3682120.011 6008632.38 9276854.815)
5(1427681.656 2681174.637 4555820.518 7324325.656 11040571.86)
5(1834278.6 3365365.964 5648019.769 8940000.609 13153542.67)
5(2336906.877 4224115.798 6992199.333 10833179.56 15603757.9)
5(2989565.445 5309224.622 8656083.65 13157856.65 18491354.72)
5(3802857.884 6675301.978 10728732.99 16010202.04 21987420.46)
5(4866974.709 8419970.078 13334645.56 19523763.85 26195855.21)
5(6213726.962 10623256.08 16584391.14 23844214.09 31519883.94)
5(7975105.438 13421104.38 20664519.77 29208057.69 38145068.45)
5(10262099.49 16976826.23 25771985.44 35924784.23 46079212.27)
5(13044558.45 21436587.42 32124387.24 44186632.6 55991622.6)
5(16728755.93 26999052.17 39977750.02 54235868.38 67958493.89)
5(21318429.45 33850221.21 49497595.2 66323393.63 82351386.91)
5(27034215.44 42100032.91 60842218.64 80545652.95 98752717.72)
5(33825854.62 51910594.65 74087855.9 96762115.39 117024550.6)
5(42051865.65 63420698.92 89211841.46 114824648.6 137457701.9)
5(51731202.98 76531224.2 105988448.3 134398458.2 158606070.5)
5(62340531.45 90938742.12 124021429.9 155071258.9 180666364.9)
5(74663596.56 106122755.7 142712894.1 176103282.6 201797299.6)
5(87671826.99 121815453.6 161350712.5 196181434 221701456.5)
5(101069185.5 137609091.4 179166969.8 213830655.2 237904740.5)
5(114226804.5 152659625.1 195030075.2 228437836.1 250086118.7)
5(127176390.3 165812779.1 207752004.7 238953409 255449866.2)
5(138338336.9 176160312.7 216130873.3 243757312.3 254844743.8)
5(147311591.4 182659485.7 218943920.5 241646735.4 244782288.5)
5(153396360.9 184335331.9 215271095.2 231752357.1 227394767)
5(155227073.1 180516323.6 203981822.2 212915396.7 199768564.9)
5(152651104.3 170191476.4 184568086.5 184345966.5 161815185.3)