/*--------------------------------*- C++ -*----------------------------------*\
| =========                 |                                                 |
| \\      /  F ield         | OpenFOAM: The Open Source CFD Toolbox           |
|  \\    /   O peration     | Version:  2.3.1                                 |
|   \\  /    A nd           | Web:      www.OpenFOAM.org                      |
|    \\/     M anipulation  |                                                 |
\*---------------------------------------------------------------------------*/
FoamFile
{
    version     2.0;
    format      ascii;
    class       dictionary;
    location    "constant";
    object      la_r5;
}
// * * * * * * * * * * * * * * * * * * * * * * * * * * * * * * * * * * * * * //

la_r5_table
60
(

60
(
5(-0.1924890238 -0.07952297406 -0.9969626693 -0.7932407217 -5.045984623)
5(-0.03457652572 -0.009926138365 -0.1664026512 -0.1651825375 -0.4507965174)
5(-16.42724962 0.004609079326 0.03518815632 0.008110195116 0.001441557574)
5(-46.02922296 0.008753522361 0.08829376429 0.0549746679 0.217424077)
5(-33.67175526 -0.0008049256046 0.02193810126 0.01171981424 0.1159554735)
5(-15.17430079 -0.01354904538 -0.01006863413 -0.05813171196 -0.05238529507)
5(-0.01763110505 -0.01879577507 -0.06589989663 -0.06126418794 -0.2626667713)
5(-0.007526893474 -0.02223531485 -0.09578351435 -0.09326524221 -0.05426055814)
5(-8.495059687 -0.03105192875 -0.2590248296 -0.1061904786 -0.1172074077)
5(-8.277755124 -0.4606796167 -0.3585767134 -0.1658547329 -0.1981968458)
5(-5.90824624 -0.6673901689 -0.3213024201 -0.2744561724 -0.2642330294)
5(-3.478579583 -0.08698920579 -0.2282323748 -0.2340419813 -0.4255915228)
5(-0.04091229233 -0.115616771 -0.22001992 -0.3557275493 -0.488393124)
5(-0.07014868805 -0.1476054773 -0.2772076033 -0.3354632335 -0.5239121631)
5(-0.06753562993 -0.1592117728 -0.29647241 -0.4383853442 -0.5571774098)
5(-0.3960165878 -0.5811881182 -0.5281147078 -0.6421872304 -0.6939031929)
5(-0.3478268106 -0.4539719862 -0.5760365517 -0.5844048232 -0.7481865103)
5(-0.1944198395 -0.3436940699 -0.4235088909 -0.5788058748 -0.7803322371)
5(-0.1135649607 -0.2550842326 -0.4171758046 -0.5572485014 -0.6989021107)
5(-0.1254253724 -0.2258248078 -0.4193262319 -0.5696158184 -0.5766859661)
5(-0.1175928961 -0.1834863792 -0.3547024397 -0.468284154 -0.5513805756)
5(-0.1076094539 -0.1629094923 -0.2590363269 -0.3221956999 -0.3883564388)
5(-0.09354675756 -0.1315117496 -0.1789421531 -0.2476321001 -0.2970638143)
5(-0.06838940368 -0.08880993057 -0.1332307357 -0.1272974027 -0.1265964022)
5(-0.02406774431 0.09879531681 -0.04486677214 -9.649246569e-06 0.06236965779)
5(0.0003208590721 0.4014917712 0.06906803429 0.1301416017 0.1289615138)
5(0.008632195482 0.3778747592 0.1250419221 0.2190947713 0.194053391)
5(0.02942479072 0.07717466097 0.1868141557 0.2827889841 0.248832915)
5(0.05451368654 0.1099085526 0.2059013909 0.2707528295 0.311468065)
5(0.07173501031 0.1502825705 0.2424504389 0.1852026036 0.2223894505)
5(0.09685494871 0.1904573394 0.2777373617 0.3406496292 0.07518257986)
5(0.120832303 0.2056669882 0.2008820925 0.2653463612 -0.2048750167)
5(0.1273308076 0.2479454394 0.1468470425 0.166218989 -0.2845108326)
5(0.1893156863 0.2988719058 0.1198609953 0.08619467259 -0.2859165263)
5(0.2732341197 0.2916240607 0.03571557375 0.01435150454 -4.247337043)
5(0.3782826197 0.4546566032 0.3507958868 -0.01849427424 -6.262708462)
5(0.499734585 0.4626519763 0.2633644407 -0.006092937745 -0.8547218781)
5(0.5992144067 0.6452189255 0.2335815537 -0.4296683569 -2.895802843)
5(0.774613138 0.8334196312 -0.2859671638 -0.5928502342 -4.898280671)
5(1.118531488 0.9817822989 0.8414779285 -0.6306973437 -2.578415876)
5(1.380173995 0.7125129746 1.696934935 -8.477982729 -6.040946917)
5(1.635671216 0.2632776838 0.7074662481 -70.45068897 -0.001077107258)
5(1.649136447 0.6120993605 -0.5399459103 -0.0008481392801 -0.002080269827)
5(1.368870246 1.47135919 -3.505005424 -0.002660342257 -7.028281209)
5(0.8877258507 2.163926111 -12.67776763 0.0005008417525 -0.8119409489)
5(0.45748211 -0.1351571977 -3.340281577 -0.002229675184 -0.002151274883)
5(0.437427725 -10.57273216 -62.39578985 -0.6185406593 -0.001624893897)
5(-10.30698814 -2.262758952 -8.799482444 -0.005779561415 -0.002608530856)
5(-1.60864018 -2.02339359 -0.5206181861 -0.01183001563 -0.009956874632)
5(-2.30417422 -3.465840182 -0.02669808403 -0.004117309422 -0.01860629324)
5(-26.85710106 -0.003193334304 0.00293929678 -0.01590416495 -0.07650801578)
5(-70.02268419 -0.003488100723 -0.009206083391 -0.008920507577 -0.04931129441)
5(-9.921072782 -0.08267266892 0.006785141811 0.008356601818 -0.01757276631)
5(0.003629062567 -0.03819851795 -0.03942404391 -0.04677527392 -0.1135720706)
5(0.0007513951787 -0.07031701616 -0.009241307856 0.001212430463 -0.02752200463)
5(-19.90324706 -0.01960618559 0.01036615059 -0.06579956755 0.01068114949)
5(-66.77342393 -0.008680928676 0.007836735932 -0.005908076428 0.03976902107)
5(-78.92945601 -34.16648988 -0.03887129635 -0.1721680242 -0.6696443404)
5(-56.21691332 -50.1614143 -32.43820139 -0.07985572314 1.054139711)
5(0.04152143028 0.06763954674 0.1044652833 0.1669565176 0.2069409098)
)


60
(
5(-0.5147314672 -0.4987283783 -3.560622841 -5.089526846 -19.62702714)
5(-0.2214492833 -0.4308948182 -1.531330629 -2.970792258 -7.144764695)
5(-0.1851515441 -0.5612406809 -1.176451749 -2.768044408 -4.492352596)
5(-0.2388338651 -0.8288497612 -1.522388348 -3.557579617 -5.0645432)
5(-0.4100130256 -1.225054185 -2.392155027 -4.9209406 -7.48486126)
5(-0.6428597766 -1.73722948 -3.528334314 -6.684781101 -10.89157553)
5(-0.9422466632 -2.346824852 -4.68529949 -8.498852314 -13.80033052)
5(-1.275690574 -3.039650045 -5.852402626 -10.3036617 -16.11836659)
5(-1.656020517 -3.805237095 -7.068989207 -12.14511949 -18.27216051)
5(-2.071991155 -4.631163492 -8.373090903 -14.01339337 -20.74420917)
5(-2.608330618 -5.50469113 -9.793884373 -15.86031012 -23.00353817)
5(-3.134708993 -6.392209377 -11.20677816 -17.5390992 -24.88817018)
5(-3.683949793 -7.227710753 -12.47747494 -18.88159011 -26.24546999)
5(-4.226242152 -7.961852785 -13.48855088 -19.71884031 -26.58459461)
5(-4.702129977 -8.518021861 -14.1301261 -19.89764498 -25.94329344)
5(-5.053405927 -8.825103957 -14.30838691 -19.32537287 -24.27721773)
5(-5.338355462 -8.840251064 -13.94610287 -17.89743851 -21.49362786)
5(-5.392928439 -8.477374423 -12.9591072 -15.59353657 -17.45157498)
5(-5.21547072 -7.713782349 -11.26659633 -12.36456167 -12.36832516)
5(-4.772594898 -6.506714954 -8.921617057 -8.280482341 -6.154797944)
5(-4.053441328 -4.829626227 -5.864333317 -3.468392995 0.5718169293)
5(-3.041978284 -2.698832905 -2.204805001 2.041547476 7.936410903)
5(-1.673158584 -0.1831291702 1.931560602 7.944621082 15.68297064)
5(0.09232148629 2.736199766 6.593232114 13.9674961 23.14728486)
5(1.987819221 5.792242876 11.33356619 20.03223566 30.3494599)
5(4.315051103 9.110387249 16.35633087 25.9441832 36.97928419)
5(6.785473608 12.41009076 21.12530903 31.48120417 42.61452797)
5(9.331986473 15.99185243 25.62886461 36.27850521 46.59650703)
5(11.99914051 19.51249449 29.90508497 40.23111857 50.72600512)
5(14.9153341 22.68557806 33.6825788 43.56920675 52.36413718)
5(17.76881818 25.7899569 37.37137723 46.20666647 54.00539532)
5(20.64191465 28.92973886 40.00360642 48.10635165 53.81139522)
5(23.49527602 31.77272443 43.03004854 49.5281552 53.15142726)
5(26.65685131 34.56248327 45.1926285 50.822896 51.18392478)
5(29.48041559 38.2133075 48.18089511 51.59037991 50.30516774)
5(34.20328116 41.78594582 50.78979566 52.61775369 47.18411149)
5(37.25687455 45.89358432 53.87531925 52.48037931 44.42681173)
5(43.78118968 52.64804703 59.30515873 54.6538831 42.03867687)
5(51.1609073 56.25333284 64.27669536 57.06996586 40.58012668)
5(57.77223585 65.11344113 68.53711976 57.96390671 36.76113718)
5(65.37056617 67.59198333 65.87437286 59.0715725 29.66382636)
5(67.36284222 77.40622919 69.53881805 60.17091927 24.32166633)
5(77.24647396 80.68788814 68.29110811 57.02304004 15.26190513)
5(79.86726827 71.42442257 67.65369417 42.95008751 8.874187149)
5(75.942812 67.95257348 59.65053859 23.11843696 3.360145842)
5(58.69258941 55.3557289 53.37787868 6.787208719 1.775511466)
5(34.88470393 46.65356394 37.39620627 -3.209063522 -0.7425838798)
5(12.59650663 35.5003901 17.35947635 -8.021060713 -5.358535511)
5(9.250783721 34.6712476 -0.08995022042 -11.0003391 -3.664854583)
5(-16.14762292 16.45826156 -10.61423916 -10.39622232 -4.966544315)
5(-18.64051304 -7.247019451 -15.22576205 -10.53863998 -9.38389415)
5(-42.28198094 -22.70742591 -19.47792508 -8.536853481 -4.430146528)
5(-32.24354386 -23.17672506 -15.99791231 -8.194191471 -18.39454847)
5(-29.51018599 -27.42662052 -12.05255745 -6.266208058 -3.738423462)
5(-38.42869254 -15.49642794 -8.847494294 -3.544149762 -3.452108068)
5(-26.80404413 -12.31801721 -7.256659121 -2.666508987 -1.296986846)
5(-22.78299017 -10.22539907 -4.070798631 -2.465343402 -5.301806405)
5(-8.298723068 -9.594464134 -6.855036824 -6.734180469 0.1100912316)
5(-39.22966456 -16.06628964 -1.791729383 1.114211362 -11.95922359)
5(-4.490375347 -4.442229296 -88.94621648 -3.974974589 -3.327712306)
)


60
(
5(-1.112686654 -1.534815949 -8.696279206 -15.2074151 -46.831623)
5(-0.7204534889 -1.568721873 -5.348417523 -11.10594822 -24.46743858)
5(-0.741413661 -2.180945737 -4.853161024 -10.98316392 -19.41363112)
5(-1.027789535 -3.090354455 -6.107827611 -13.21964378 -21.68249479)
5(-1.555304744 -4.283213369 -8.468379186 -16.86162465 -27.41564212)
5(-2.312742093 -5.755874301 -11.46171475 -21.19131415 -34.82040311)
5(-3.20747031 -7.439477831 -14.57005554 -25.59072166 -40.99908482)
5(-4.185652186 -9.271732168 -17.55969165 -29.82439905 -46.04892358)
5(-5.225021315 -11.23963196 -20.51864678 -33.91275726 -50.51602655)
5(-6.428590591 -13.29164899 -23.54674257 -37.83988855 -54.69918528)
5(-7.7310053 -15.37109858 -26.58471824 -41.39083812 -58.23319838)
5(-9.142630515 -17.37059574 -29.4128217 -44.231665 -60.55180185)
5(-10.44777902 -19.16598221 -31.73590158 -46.02341308 -61.04991703)
5(-11.6541099 -20.61873856 -33.32148865 -46.48581575 -59.4391198)
5(-12.71785233 -21.5943996 -33.91823099 -45.41149931 -55.84910369)
5(-13.56183354 -21.92800068 -33.40312569 -42.60904576 -49.95006565)
5(-13.89818082 -21.50950822 -31.57342519 -37.99961891 -41.85376875)
5(-13.78061057 -20.18117578 -28.3862679 -31.60372975 -31.71560209)
5(-13.11750179 -17.88929395 -23.68376468 -23.43701359 -19.62373218)
5(-11.79768651 -14.56335839 -17.56892663 -13.60029666 -5.80563907)
5(-9.822001492 -10.21691991 -10.01414154 -2.335007924 9.470266005)
5(-6.960643713 -4.837319096 -1.246452664 10.07236516 25.4462189)
5(-3.396591723 1.49097023 8.627616015 23.41549891 42.02963551)
5(0.8379954016 8.606079089 19.31143164 37.14696471 58.64560986)
5(5.755437259 16.32958802 30.63422369 51.07509204 74.98656059)
5(11.48032372 24.67057034 42.35113921 65.21886454 89.90580841)
5(17.69202103 33.31348723 54.05318894 78.31565451 104.4624603)
5(23.97726607 42.34552935 65.42566637 90.92313799 116.4967325)
5(31.45166423 51.2786007 76.33777725 101.8872763 127.6330081)
5(38.58733624 60.05699056 87.20865966 112.2101506 135.9840098)
5(46.63263224 69.13976774 97.08468082 120.7996598 142.7041519)
5(54.59143112 78.03489751 105.7961177 128.3712224 147.4196733)
5(63.05756812 86.31883177 114.3817716 135.2761065 149.4214684)
5(72.18780675 95.33702914 123.0601488 140.0882652 150.405405)
5(81.27360876 104.2577291 130.7146745 144.1639945 149.6252838)
5(87.87193706 114.0142259 139.3689675 148.4362554 150.4444027)
5(100.3007009 123.5442846 148.1774796 152.6250247 147.0914148)
5(114.3470596 134.9901952 157.2316262 157.0697653 147.1109669)
5(130.0948281 149.3649053 165.2062522 161.0214181 142.6874507)
5(145.0950538 162.0642573 173.7067651 163.7113805 135.6799557)
5(156.9333634 173.3891856 183.0707977 164.9136339 125.1543484)
5(179.2280524 187.1216524 185.1868826 162.4172609 112.2737612)
5(191.0355404 193.953587 183.5498579 151.3981386 94.23304)
5(201.5441232 194.4014187 177.63568 131.5798064 70.50479085)
5(200.4386174 179.9470738 161.4210653 106.0712653 56.36338612)
5(191.8513915 165.6677543 141.1488653 76.63831956 37.50557499)
5(169.0136962 142.5920209 110.4851806 54.51353029 20.0861155)
5(136.1497986 114.7987396 74.48257817 34.92972946 10.59342028)
5(94.70833803 77.48838056 43.0025449 17.42793451 3.302487308)
5(58.64789146 49.25217602 21.52112893 4.567133338 -2.215511263)
5(23.41808782 15.39918668 5.610735508 -4.049088026 -2.144392626)
5(-5.809914567 -9.137282557 -4.556078931 -8.891747969 -6.575841922)
5(-29.33610341 -20.99018926 -12.22994685 -12.97291154 -3.41964312)
5(-61.13700951 -23.91794311 -15.17753937 -11.6786437 -22.20639292)
5(-52.30440894 -30.67802627 -16.57563628 -8.52699985 -4.460539066)
5(-73.92354511 -27.9993353 -16.16048787 -7.849454703 -4.647479696)
5(-64.28647067 -27.20446551 -18.23122278 -6.836514183 -1.474215222)
5(-60.00551253 -28.97008348 -17.7708084 -11.82556284 -1.732419743)
5(-46.23353963 -26.32904651 -8.818381366 -6.90872636 -14.03307181)
5(-28.86520939 -19.55099603 -93.91035762 -14.32751772 -12.1038553)
)


60
(
5(-2.104587828 -3.464712468 -17.16181433 -32.94375103 -88.78056029)
5(-1.59355563 -3.754477959 -12.02289627 -25.57008531 -54.16084779)
5(-1.841310078 -5.176900915 -11.74918881 -25.58545902 -46.23808495)
5(-2.513127498 -7.078503892 -14.4100688 -29.6575768 -49.78660228)
5(-3.655986432 -9.428242968 -18.81711624 -35.96381228 -58.96410539)
5(-5.205555169 -12.23920657 -24.16507428 -43.36340376 -70.31726145)
5(-6.951418874 -15.39692829 -29.64671735 -50.79244402 -79.79900171)
5(-8.81066466 -18.74156446 -34.87113799 -57.72119843 -87.21136786)
5(-10.80863543 -22.24272699 -39.92361777 -64.17604098 -93.45839846)
5(-13.05119313 -25.82388038 -44.91709817 -70.04220071 -98.78368908)
5(-15.42552699 -29.35872364 -49.68106324 -74.9326406 -102.5354005)
5(-17.82270796 -32.64472795 -53.86018705 -78.37078081 -103.8439291)
5(-20.13261135 -35.48707284 -57.03255623 -79.93423807 -102.3438074)
5(-22.12961756 -37.61963881 -58.76761093 -79.18086822 -97.56287817)
5(-23.82089662 -38.84913807 -58.81243715 -75.93785606 -89.49169029)
5(-24.96317847 -38.9957973 -56.96778082 -70.0543872 -78.24562892)
5(-25.46811762 -37.80334187 -53.00083531 -61.36183848 -63.8959943)
5(-25.00149361 -35.11237656 -46.8146623 -50.01619342 -46.52397232)
5(-23.71316583 -30.83815799 -38.35936992 -35.99224562 -26.69725183)
5(-21.08826049 -24.90794702 -27.69915387 -19.70708129 -4.371862841)
5(-17.37291298 -17.28879893 -14.90245693 -1.237209668 19.83996345)
5(-12.66756619 -8.109807409 -0.3632794684 18.89540201 45.08265514)
5(-6.565276485 2.494360753 15.94473145 40.51170207 71.31887102)
5(1.102144011 14.5080915 33.4851055 62.93267207 97.80992908)
5(9.659011157 27.74211062 52.1431152 85.84741059 124.8393623)
5(19.24271957 41.99354853 71.46932833 108.806786 149.9602634)
5(29.81002289 56.80845779 91.31955339 131.553642 173.8409075)
5(41.30058183 72.37567801 110.9789696 153.3413166 196.8165863)
5(53.64856822 88.47793032 130.5147264 173.7310968 215.3865033)
5(66.54624335 104.7146924 149.7129824 193.0344206 234.1510511)
5(80.11927028 121.0029848 168.2227944 210.3113933 247.6959275)
5(94.46380734 137.3219571 185.2892002 225.99376 260.6383783)
5(109.2794903 153.5038743 202.4782416 240.5630102 269.3046184)
5(124.5183601 170.4523539 218.6345796 252.3989021 276.3957811)
5(140.9452492 187.4611138 234.8769025 263.7103152 279.0497893)
5(157.770272 205.9161425 250.7398592 275.4311842 283.3410694)
5(176.2127548 223.5107225 266.7317213 285.9639307 286.1090923)
5(197.9224877 243.6751236 283.3337266 296.3843074 283.1507458)
5(220.6723917 264.3807717 300.9633551 306.4094752 285.7080998)
5(244.0880682 285.1851925 320.4513109 313.9554456 273.5039719)
5(269.842454 311.1437184 335.0795889 319.5138391 269.5641443)
5(294.0427248 334.2619836 345.4733532 320.5753417 254.4349879)
5(317.435743 350.4085744 350.8096177 312.4467594 226.9192882)
5(333.5362091 355.7280006 347.5198219 288.3776947 195.6417549)
5(344.0141983 351.9858535 332.317544 253.5867755 159.648647)
5(338.9735095 334.0017668 299.0665899 209.8351329 132.6974644)
5(312.8999071 298.1479227 256.3231199 164.7781724 95.23305042)
5(277.1176132 258.792816 193.6264143 125.3964922 58.62764946)
5(200.5122455 209.6358686 141.6306649 88.37667476 41.43771143)
5(164.8740142 146.988211 100.4207861 57.11258799 12.67722253)
5(100.9951577 81.62795644 59.69825096 26.88397503 -7.938241513)
5(17.19919934 33.44954577 27.91132663 13.50894765 5.864162425)
5(-28.03592478 -3.116943918 1.264135716 -0.8316153777 -8.56725578)
5(-81.18259211 -30.81538923 -19.1057739 -9.175222914 -20.75542179)
5(-90.22374976 -55.33804888 -31.9733826 -12.71570908 -17.48006766)
5(-148.1390048 -64.43149721 -36.14891379 -21.31364822 -7.363171609)
5(-132.5049243 -76.55066773 -38.56724884 -15.72982035 -7.623024822)
5(-117.2312159 -71.45842038 -43.0385489 -23.4387095 -9.655913917)
5(-102.1517194 -57.85240036 -27.17288262 -32.33397097 -11.4882163)
5(-84.56968419 -58.85261763 34.52406311 -812.0348207 -607.6678284)
)


60
(
5(-3.605103445 -6.632516299 -29.62315794 -59.7055925 -146.9002871)
5(-3.023698794 -7.280894264 -22.25876263 -47.59477435 -97.79097136)
5(-3.653788852 -9.805784492 -22.33372288 -47.32317657 -85.53684874)
5(-4.902738679 -13.01309304 -26.67346355 -53.24657574 -89.4569331)
5(-6.806580607 -16.82877338 -33.51980971 -62.41908419 -101.8064019)
5(-9.352459775 -21.29881982 -41.56280305 -72.92222647 -116.4854985)
5(-12.18593917 -26.2121522 -49.68628557 -83.34855208 -128.7883158)
5(-15.18816892 -31.35173989 -57.43932604 -93.01680056 -138.01906)
5(-18.39008775 -36.65747032 -64.79771531 -101.765012 -145.4301898)
5(-21.83338407 -41.97555343 -71.80193627 -109.2470197 -150.8319803)
5(-25.46653973 -47.10141544 -78.26932814 -115.0901692 -154.0168902)
5(-29.09963351 -51.76723996 -83.63000291 -118.6668714 -153.4519644)
5(-32.43288359 -55.65747835 -87.31261649 -119.4079046 -148.9301428)
5(-35.43307621 -58.45140121 -88.87113949 -116.8678236 -139.9312346)
5(-37.69443143 -59.86658081 -87.93201829 -110.9047266 -126.8620321)
5(-39.12674089 -59.60119001 -84.33320392 -101.3143004 -109.660035)
5(-39.63761165 -57.42340782 -77.75131451 -88.04938536 -88.58956116)
5(-38.75935788 -53.10191973 -68.17825178 -71.33302865 -63.68642)
5(-36.47669082 -46.56309877 -55.6134205 -51.11783649 -35.63668983)
5(-32.59524605 -37.76282335 -40.07086381 -27.96265296 -4.634059259)
5(-27.04333141 -26.76472133 -21.76773045 -1.996015765 28.79297573)
5(-19.63081775 -13.55050288 -1.019732462 26.23715035 63.91406909)
5(-10.65318068 1.688063259 21.82844279 56.26317424 100.5838542)
5(0.1070506153 18.96531066 46.58833694 87.57664133 138.0098057)
5(12.41697594 38.05863226 73.0416456 119.9428894 175.1450374)
5(26.37964793 58.36367828 100.7743119 152.7821016 211.775494)
5(41.78583659 79.74134655 129.1514908 185.607875 247.7749322)
5(58.32566809 102.192231 157.5778255 217.6888319 281.6321623)
5(76.53162001 125.4655476 186.1833467 249.0183485 312.6862384)
5(94.91939315 149.5824475 214.659123 278.5993589 340.8352717)
5(115.29114 174.4064616 242.5868758 306.495299 366.1341793)
5(136.7256754 198.6740983 269.3757387 332.9038572 386.7015844)
5(158.5480248 223.6104817 296.1023703 357.4611663 407.1004052)
5(181.5207352 248.6444604 322.7647808 379.348352 421.7740772)
5(204.8431053 274.8430927 347.4973753 399.6028338 433.6556288)
5(230.0897652 302.1572251 372.8015346 418.431395 443.4960783)
5(257.1056414 328.3599011 399.2576965 436.1335602 452.2008854)
5(284.5312114 357.0307934 426.4356609 455.2552461 460.3526098)
5(316.1531947 390.3052005 454.3926872 473.0542346 463.2857822)
5(349.9782877 423.0117049 479.9884685 489.2093171 465.7262486)
5(387.3059627 457.8020873 505.01843 504.6273884 459.597178)
5(423.2540779 488.429967 526.7883984 513.2684226 435.684861)
5(454.671897 513.5890856 540.6021771 511.5210272 419.4345225)
5(478.6522877 532.9753073 546.7937198 490.7267239 386.2176537)
5(490.9763045 534.0904212 541.4755389 454.2506025 345.5905763)
5(504.6654949 520.4308033 510.93868 404.6330093 288.6160357)
5(481.9014668 494.4964035 455.1611638 343.8333473 232.7167032)
5(448.5119181 445.4844425 386.2924103 279.6955962 178.6544115)
5(390.239589 380.1010113 308.9722217 224.4056899 128.7914307)
5(314.8989212 289.2861822 233.4489469 160.2187466 92.40076673)
5(227.7716535 196.9006065 163.6677281 106.3040793 63.55891337)
5(131.4170443 114.1597429 100.4593002 58.65448745 38.77294963)
5(50.95074161 40.07563313 41.03074962 27.13891498 -22.88298518)
5(-44.16552385 -27.28304848 -1.841963339 2.473627664 5.875599535)
5(-111.8816745 -81.32975326 -38.4124176 -14.74658276 -5.356243546)
5(-173.4834085 -119.4154818 -66.0458083 -25.36935407 -20.52644353)
5(-208.3949639 -150.1582215 -70.46982967 -32.92005902 -18.557184)
5(-215.2253282 -149.9684706 -85.54845512 -41.55213955 -23.929364)
5(-207.748034 -149.3337906 -87.50253847 -40.54383347 -49.13122945)
5(-205.1581338 -164.2148412 -142.8191935 -88.34497879 -70.32581476)
)


60
(
5(-5.720298804 -11.39224166 -46.62193783 -96.86242378 -222.1898551)
5(-5.13995964 -12.41574313 -36.51574466 -78.00067513 -155.6689465)
5(-6.160723968 -16.28297261 -36.96886521 -76.65365489 -137.0397528)
5(-8.208216483 -20.99772767 -43.17378524 -84.1246247 -141.7290886)
5(-11.14884498 -26.50754712 -52.66458717 -96.05773718 -156.1044785)
5(-14.87737571 -32.88840713 -63.57388504 -109.6465036 -173.0685398)
5(-19.06892044 -39.82322094 -74.50102593 -123.0068847 -187.5448137)
5(-23.36136555 -47.01898271 -84.84041079 -135.1293955 -197.5550431)
5(-27.98147785 -54.31613373 -94.56728529 -145.8275616 -205.1357206)
5(-32.80965337 -61.52417564 -103.6023418 -154.7090278 -210.1645742)
5(-37.89296649 -68.37243049 -111.6576601 -161.1410839 -211.7102447)
5(-42.69367169 -74.44893004 -118.0343547 -164.3960236 -208.6550859)
5(-47.27885111 -79.37910899 -122.058385 -163.9024272 -200.3787917)
5(-51.13654469 -82.78115029 -123.1339623 -159.1663492 -186.7809998)
5(-54.1780491 -84.21387714 -120.9123752 -150.0409878 -168.2282569)
5(-55.93540808 -83.42634476 -115.180599 -136.4114297 -144.5618185)
5(-56.23972509 -80.09841136 -105.7558829 -118.3384328 -116.5127475)
5(-54.88480356 -74.04125424 -92.60374193 -95.89831844 -83.90067662)
5(-51.51484619 -65.1246102 -75.63958733 -69.42744698 -47.58052279)
5(-46.24930629 -53.32676102 -55.11386366 -39.24193211 -7.510077548)
5(-38.67449765 -38.64164551 -31.2188292 -5.759440511 35.40557015)
5(-28.77581477 -21.24825134 -4.242038926 30.52016547 80.30461111)
5(-16.78775279 -1.216942034 25.52886345 69.22210442 127.3368607)
5(-2.690198516 21.24969083 57.75898234 109.8965397 175.6424552)
5(13.76216918 45.86143606 92.03756057 151.9664504 224.952612)
5(31.97769781 72.53858176 127.9189079 194.9344174 273.1873762)
5(52.24607755 100.8069295 164.9100859 238.3565127 320.9186191)
5(74.09512743 130.6331466 203.0282936 281.3604773 366.9664095)
5(98.17876971 161.5736314 241.5756567 323.7854318 410.9781255)
5(123.2724809 193.8022789 280.2054158 365.360099 452.161829)
5(150.191454 226.6346639 318.6991422 405.2736709 490.1610368)
5(178.2503839 260.1385076 357.1706615 443.0691089 523.6612755)
5(207.9226261 295.0421999 394.7035727 478.8481918 553.9126906)
5(239.2044064 329.5108795 431.4522087 512.4711948 583.7726161)
5(272.4030381 364.9193389 467.1116574 543.8932319 604.6949806)
5(306.4206905 401.4041087 502.931817 573.7828342 623.2136739)
5(340.1954974 439.0807492 539.8012116 603.6411079 641.433789)
5(378.9539557 480.3359624 576.7748783 632.2766816 658.3933172)
5(418.6186335 521.6715287 615.3720134 660.9307844 669.825488)
5(463.4354697 562.2339939 655.5419692 689.4169367 681.0550291)
5(509.3391298 607.7084993 691.9455081 717.2786419 681.2916287)
5(552.9365229 650.3234443 725.5592382 736.0276484 673.5451399)
5(597.7495454 687.6783562 748.6944402 742.9600871 655.0303262)
5(634.0994224 721.4449469 769.9210596 732.3550021 624.254965)
5(659.3031153 735.3843392 772.7287097 701.0905744 575.5190244)
5(677.8196438 732.2364563 749.1819153 651.173084 518.704923)
5(672.7835244 711.2093729 692.7403145 588.5659916 442.0824838)
5(642.5320722 666.4813542 611.5999915 509.2352723 362.6211753)
5(583.5236092 592.7317627 520.1578836 425.9462418 294.5914384)
5(507.6823874 482.1338299 416.834064 344.2682101 234.4854004)
5(414.274721 373.1170925 315.3184845 257.5502727 152.4755301)
5(295.2622361 233.687481 217.5089295 175.6262097 111.6974512)
5(193.5525495 146.7759272 110.3429044 110.0180063 66.25823033)
5(82.49147127 37.70652609 29.21329381 35.19244832 33.35214746)
5(-31.42133397 -67.85026417 -49.02064517 -4.376108947 3.222191986)
5(-130.7558333 -143.8068402 -100.9541534 -39.38468582 -68.70348117)
5(-209.4979288 -229.1036777 -152.9538281 -65.22905414 -25.00916133)
5(-303.9103019 -260.4406634 -184.8784052 -98.84275811 -55.0797863)
5(-300.6940031 -280.2082903 -199.3567248 -112.553795 -89.61216997)
5(-309.5837435 -281.8256321 -220.7741975 -178.9784605 -133.0818947)
)


60
(
5(-8.575518907 -17.9980324 -68.7830561 -145.3101323 -315.4218759)
5(-8.044134086 -19.42074146 -55.28180464 -117.5280598 -228.3907623)
5(-9.714030902 -24.82289825 -55.9298971 -114.2240946 -202.1450865)
5(-12.60856454 -31.25911712 -64.11958521 -122.6308322 -204.0787635)
5(-16.79981016 -38.69378308 -76.35854822 -136.7793135 -220.1280544)
5(-21.87000437 -47.2127086 -90.22077542 -153.1845197 -238.7773935)
5(-27.58462017 -56.3389505 -104.0463794 -169.3342514 -254.372425)
5(-33.4580809 -65.77898091 -117.0424381 -183.8398319 -264.9053549)
5(-39.57151679 -75.24992218 -129.1112504 -196.2357561 -272.123168)
5(-46.05376944 -84.44132837 -140.0959142 -206.0554131 -276.2980715)
5(-52.54936254 -93.01411558 -149.5849771 -212.7405808 -275.5273684)
5(-58.78492109 -100.5087899 -156.7237849 -215.3422689 -269.325085)
5(-64.59142627 -106.457198 -160.8673808 -213.162962 -256.9550971)
5(-69.48722244 -110.2883561 -161.2657923 -205.8783386 -238.348067)
5(-73.11032247 -111.6542834 -157.5687551 -193.3687033 -213.9692922)
5(-75.10684966 -110.2101341 -149.5705438 -175.5149704 -183.9731578)
5(-75.25363763 -105.660242 -137.121553 -152.4797404 -148.6274858)
5(-73.14923534 -97.73026408 -120.1854476 -124.339179 -108.3502124)
5(-68.91926597 -86.254484 -98.79497924 -91.57863868 -63.37079903)
5(-61.75671563 -71.32829768 -73.28566145 -54.44721576 -14.83094747)
5(-52.07667118 -52.95712607 -43.71012505 -13.4431077 37.47927444)
5(-39.80992479 -31.40615167 -10.51548925 30.92160613 92.56019616)
5(-24.5059146 -6.58382056 26.02298861 78.24169081 149.6949973)
5(-6.734146778 21.29626898 65.41443321 127.9444498 208.8332287)
5(13.37091165 51.7455175 107.4108802 179.9923394 268.7007094)
5(36.49877906 84.28149451 151.6857116 233.6811801 330.3595883)
5(61.703677 119.4757219 197.9282009 287.986619 390.3036408)
5(89.73994224 156.8086463 245.9649431 342.3388235 449.0275085)
5(119.8684175 195.885421 294.0907682 396.8604527 507.4709886)
5(150.3603669 236.3066117 342.8923366 451.2903442 561.3437148)
5(183.6427686 278.3910992 392.2982508 503.0963326 615.5783466)
5(220.4777257 322.0425972 441.9226208 553.4663005 665.7594316)
5(258.3867541 366.0234492 491.2477963 602.261007 706.583184)
5(297.1106164 410.6320442 540.1266957 649.2471332 746.4845301)
5(338.3800166 456.3734102 589.4259648 694.3167963 784.4083895)
5(381.8356673 502.7446931 637.0251498 738.3518182 816.4341832)
5(427.4468452 551.9672623 685.5977533 781.331877 847.0015184)
5(474.8972969 601.6957204 735.1968401 821.7470073 873.5758959)
5(526.1390897 654.1554776 786.7194208 860.4141095 899.7056909)
5(577.9249489 709.6852555 838.0766802 900.0766331 917.9995026)
5(635.3809538 767.0304346 885.984893 940.9524426 928.7218378)
5(692.3630039 823.1515681 931.7677989 972.0475531 927.8265145)
5(746.5953459 872.9285755 976.8597602 993.7466221 916.6635557)
5(795.2993585 916.5121929 1008.878487 993.3636171 899.1001854)
5(833.6699244 947.5831404 1021.044294 972.5481376 851.7443227)
5(857.7437215 957.4581873 1007.156901 932.9508508 806.0860161)
5(866.9146197 938.6268825 961.2865237 871.2018161 718.5561051)
5(853.6261242 905.3693087 887.7894079 785.8394882 643.3891591)
5(803.0221504 836.5150232 781.5087395 689.0517039 526.4847384)
5(726.5056966 730.6162607 657.7901198 574.1013663 440.173153)
5(643.5623547 606.2789867 522.8148844 457.5624765 353.0878377)
5(534.4857444 468.3695488 385.5921338 334.8652311 263.9476603)
5(395.287704 334.4496482 229.5085353 229.9355011 182.6149053)
5(253.6862072 183.0279525 122.5547415 113.6078797 78.00771803)
5(114.8043363 34.01586792 -27.44117724 21.71020386 15.60210525)
5(-9.421861637 -83.67317346 -137.563819 -57.87865779 -2.423935118)
5(-126.2624123 -204.2111538 -222.2776612 -137.3736529 -96.57380405)
5(-218.6193822 -296.6855447 -309.8941571 -196.685918 -97.80340361)
5(-280.9974523 -358.8865661 -346.2943085 -268.4295144 -132.106234)
5(-243.833072 -402.9806174 -490.8614801 -327.114672 -263.9221536)
)


60
(
5(-12.22796097 -26.77495272 -96.27541428 -205.3387485 -427.0428403)
5(-11.83100781 -28.54302209 -78.72826341 -166.3910616 -315.9039274)
5(-14.23724607 -35.65744165 -79.51124771 -160.0060464 -280.3253638)
5(-18.18305398 -43.99895718 -89.74714676 -168.8530611 -279.0562184)
5(-23.73503077 -53.50315916 -104.7615991 -184.9866365 -294.9428461)
5(-30.48858135 -64.28009613 -121.5463403 -203.7818214 -314.1780691)
5(-37.78570318 -75.83304581 -138.2354675 -222.1909882 -329.7378532)
5(-45.35324535 -87.62128866 -153.9037727 -238.6695983 -340.3733639)
5(-53.21831218 -99.35400088 -168.3326485 -252.4877853 -346.5249285)
5(-61.38246552 -110.6284473 -181.1611624 -263.1185941 -348.706347)
5(-69.57341676 -120.9788661 -191.8751165 -269.5813774 -345.1897108)
5(-77.34980212 -129.8601046 -199.700268 -271.116577 -335.4183629)
5(-84.27743586 -136.7059768 -203.5635095 -267.0629973 -318.6606003)
5(-90.00893826 -140.9536341 -203.0658314 -257.1124135 -294.7135958)
5(-94.28129621 -142.1048344 -197.6553715 -240.9301044 -264.306588)
5(-96.37142624 -139.8705893 -187.2126963 -218.6807045 -227.6044256)
5(-96.53007746 -133.8539216 -171.5259337 -190.4624314 -185.130998)
5(-93.47295587 -123.8717311 -150.7497916 -156.6324375 -137.1549515)
5(-88.16849136 -109.7370882 -124.8853105 -117.5323497 -84.32817711)
5(-79.16646514 -91.60198306 -94.23058173 -73.64814247 -26.89331761)