/*--------------------------------*- C++ -*----------------------------------*\
| =========                 |                                                 |
| \\      /  F ield         | OpenFOAM: The Open Source CFD Toolbox           |
|  \\    /   O peration     | Version:  2.3.1                                 |
|   \\  /    A nd           | Web:      www.OpenFOAM.org                      |
|    \\/     M anipulation  |                                                 |
\*---------------------------------------------------------------------------*/
FoamFile
{
    version     2.0;
    format      ascii;
    class       dictionary;
    location    "constant";
    object      la_r14;
}
// * * * * * * * * * * * * * * * * * * * * * * * * * * * * * * * * * * * * * //

la_r14_table
60
(

60
(
5(-1.44606638e-05 3.887871351e-05 0.0001237583888 -5.21501066e-05 0.0003761253379)
5(4.329033484e-05 -5.122744308e-06 -3.676566376e-05 -2.783069701e-05 0.0001837961302)
5(0.001010233438 -1.007935384e-05 -1.548072546e-05 -9.337528503e-06 -7.89929694e-08)
5(0.009539384278 -1.50539286e-05 -1.992789392e-05 -3.664619904e-06 -8.518869607e-06)
5(0.01175180487 -1.790943497e-05 -2.247427806e-05 -1.366122742e-05 -8.35624694e-06)
5(0.006560600971 -2.078804751e-05 -1.007312784e-05 -1.836022386e-05 -9.308116438e-06)
5(-3.332457394e-05 -2.489350151e-05 -1.662081127e-05 -1.483054931e-05 -2.764412582e-05)
5(-2.200367999e-05 -3.379882074e-05 -4.005934866e-05 -2.605191909e-05 -9.160053744e-06)
5(0.006167184174 -4.998844546e-05 -4.689354784e-05 -3.846498323e-05 -2.269845869e-05)
5(0.01241982415 -7.868127221e-05 -8.704494305e-05 -4.741739425e-05 -3.637891242e-05)
5(0.01256491657 -0.0001145054737 -0.0001172256529 -6.764816896e-05 -5.173255059e-05)
5(0.001468897658 -0.0001342189066 -0.0001283309492 -9.080862662e-05 -6.092231218e-05)
5(-0.000137220137 -0.0001838260152 -0.0001603406819 -0.0001381955002 -9.13333099e-05)
5(-0.0002209161688 -0.0002513252925 -0.0002226370504 -0.0001572049278 -0.0001118977091)
5(-0.0002525977254 -0.000311672804 -0.0002764218964 -0.0002290197546 -0.0001476236886)
5(-0.0004462164972 -0.0005420715491 -0.0004172660878 -0.0003260098932 -0.0002045979147)
5(-0.0005931779882 -0.0006670691199 -0.0005677724728 -0.0004209883375 -0.0002885543801)
5(-0.0006684272151 -0.0008115566252 -0.0006752509814 -0.000572809677 -0.0003939713976)
5(-0.0007721162692 -0.0009829044251 -0.0008851908669 -0.0007410232552 -0.0005478403705)
5(-0.0010638934 -0.001305525676 -0.001223304661 -0.001078937684 -0.0007026546761)
5(-0.001362815443 -0.001625059282 -0.001512601181 -0.001376890434 -0.0008785380275)
5(-0.001790643351 -0.002096059339 -0.002063667058 -0.001482932982 -0.000999961232)
5(-0.002466216527 -0.002814729101 -0.002663723842 -0.002205056252 -0.001487178967)
5(-0.003151798124 -0.003923105998 -0.003510925906 -0.002901560822 -0.001909347608)
5(-0.004293050741 -0.00530613985 -0.004766392543 -0.00404637651 -0.002635506166)
5(-0.005679243571 -0.007145488404 -0.006723091316 -0.005733639188 -0.00343048108)
5(-0.007566617446 -0.009041457077 -0.008367628355 -0.007696101835 -0.004490860387)
5(-0.009834633228 -0.01148531395 -0.01136911904 -0.01003128728 -0.005666858929)
5(-0.01357623153 -0.015270023 -0.01418039754 -0.01223606576 -0.007058471)
5(-0.01776699686 -0.02008315359 -0.01751886568 -0.01377910255 -0.007949364086)
5(-0.02336568664 -0.02534101598 -0.02205099088 -0.01656103644 -0.008698924357)
5(-0.02904035884 -0.02922811173 -0.0238070223 -0.01542288259 -0.006185753298)
5(-0.03407283054 -0.03220231241 -0.02491896335 -0.01323547057 -0.005210115344)
5(-0.03801855097 -0.03178120135 -0.02236456352 -0.006729811161 0.000496879896)
5(-0.03786748733 -0.0235739097 -0.011078171 0.004225655982 0.007713545799)
5(-0.02985801295 -0.006983561746 0.00752690524 0.02004442054 0.0168366824)
5(-0.01068718935 0.02346969701 0.03471111498 0.03465601968 0.02027413319)
5(0.02255260119 0.06505154637 0.06592086122 0.0510608283 0.01267919078)
5(0.07067436811 0.1114128193 0.1002742058 0.0532936654 0.02205616624)
5(0.1336077327 0.156245035 0.1257737783 0.04813795165 0.0009216853163)
5(0.1934216831 0.1717908471 0.1008141075 0.03538378685 0.001439147205)
5(0.2293762714 0.1605886843 0.06624581965 0.07799107076 5.327426675e-07)
5(0.233116494 0.1010200756 0.01389591145 4.985041585e-07 1.162600943e-06)
5(0.1913888266 0.03611612114 -0.01470221511 8.665081709e-07 0.005611221141)
5(0.1066398444 -0.03975676172 -0.0380728861 6.746420086e-07 0.0004105515082)
5(-0.00582782668 -0.08213642412 -0.0409379052 6.961286183e-07 8.693083354e-07)
5(-0.09364417013 -0.07201835246 0.006250365331 0.001270396183 5.631270438e-07)
5(-0.1060332213 -0.02762883651 0.0041073175 2.917264862e-07 3.199687524e-07)
5(-0.1113174551 -0.01629768803 0.0005318949052 1.243486364e-07 1.281401848e-07)
5(-0.07069910466 -2.371353967e-05 -2.12494152e-08 7.672516276e-08 4.488637564e-08)
5(-0.03319598578 -2.122497185e-08 9.917816107e-08 3.034273484e-08 5.11046524e-09)
5(-0.002283997957 1.531498776e-08 1.676705739e-08 1.538143564e-08 3.574549421e-09)
5(-5.685255129e-05 -1.147783507e-07 9.798021138e-09 5.296889439e-09 8.803822299e-10)
5(8.89113698e-09 -1.094502914e-08 -1.322503644e-09 -1.300144577e-10 5.193284937e-11)
5(-1.140009514e-09 -3.971280758e-09 1.821896677e-10 1.44165274e-10 2.353704837e-11)
5(-6.599490725e-07 -7.66727535e-11 4.829505524e-11 -4.973295453e-12 3.024404908e-12)
5(-2.193589219e-07 -1.582339812e-12 1.77920013e-12 6.831527307e-13 2.910667863e-13)
5(-1.238555749e-08 -8.367068626e-10 -8.578989296e-14 -5.176783237e-14 9.644482361e-15)
5(-6.22178078e-11 -1.295655488e-11 -7.601869007e-11 -4.667848342e-14 9.05457082e-15)
5(4.643272347e-19 1.428001693e-18 1.4556206e-09 1.770990219e-18 -1.772661228e-18)
)


60
(
5(-0.0001614235904 -0.0001091415567 -0.0005876681719 -0.000475984883 -0.001215804605)
5(-7.704630055e-05 -9.553908342e-05 -0.0002054828929 -0.0002310281814 -0.0003004634975)
5(-6.700847428e-05 -0.000108562389 -0.0001369675843 -0.00016926396 -0.000146607814)
5(-8.922511653e-05 -0.0001394301277 -0.0001399037964 -0.0001708234794 -0.0001371286062)
5(-0.0001470595564 -0.00020311834 -0.0001928410295 -0.0002153688195 -0.0001652969413)
5(-0.0002333205078 -0.0003085393653 -0.0003092508071 -0.0003035474035 -0.0002362857744)
5(-0.0003581621266 -0.0004653948081 -0.0004566832238 -0.0004426321611 -0.0003230477521)
5(-0.0005534691858 -0.0006928163386 -0.0006502638435 -0.000649376337 -0.0005188044128)
5(-0.0008140876699 -0.001018797768 -0.0009437846512 -0.0009568185967 -0.0007605315521)
5(-0.001195042183 -0.001482529762 -0.001369457606 -0.00141761292 -0.00114279789)
5(-0.001743628758 -0.002132897706 -0.002006217609 -0.002076290763 -0.001718454623)
5(-0.002487566557 -0.003039591641 -0.002918128339 -0.00299787132 -0.002555364454)
5(-0.003526456445 -0.004271107501 -0.004165453773 -0.004239744629 -0.003671002703)
5(-0.004928653185 -0.005934715311 -0.005833512853 -0.005913315562 -0.005166050516)
5(-0.006834886513 -0.008168422012 -0.008065078643 -0.008122317728 -0.00714923597)
5(-0.009360071541 -0.01111187221 -0.01101460792 -0.01104034822 -0.009759811061)
5(-0.01276394824 -0.01496963208 -0.01489975891 -0.01485639403 -0.01317748786)
5(-0.01724133417 -0.02003075345 -0.01999775067 -0.01983400553 -0.01767401294)
5(-0.02310938326 -0.02663232135 -0.02662661796 -0.02629715809 -0.0234614365)
5(-0.03075531506 -0.03511557974 -0.03514600058 -0.03455538841 -0.03086816239)
5(-0.04067220665 -0.04599845368 -0.04606075705 -0.04506511314 -0.04035207697)
5(-0.05346043928 -0.05974166928 -0.05983680239 -0.05818824077 -0.05228110622)
5(-0.06965392994 -0.07704670066 -0.07708275374 -0.07429645713 -0.06678403129)
5(-0.08978576342 -0.09852429152 -0.09838561909 -0.09413214395 -0.08463383794)
5(-0.1152354333 -0.1249433749 -0.1243709236 -0.117977798 -0.1057003645)
5(-0.1462601113 -0.1569212972 -0.1552845306 -0.1460718926 -0.1301409325)
5(-0.1840368698 -0.1948859209 -0.1917937126 -0.1782924093 -0.1575081715)
5(-0.2294564636 -0.2388195035 -0.2335022731 -0.2138826235 -0.1871665912)
5(-0.2824770631 -0.2881831588 -0.2793429472 -0.2510483926 -0.2155608574)
5(-0.3426504746 -0.3420527226 -0.3268539301 -0.2867344323 -0.2404917713)
5(-0.4088424766 -0.3974533574 -0.3719897263 -0.3154284929 -0.2561025183)
5(-0.4781750619 -0.4491101689 -0.4091408601 -0.3308989751 -0.2553521351)
5(-0.545381914 -0.48993835 -0.428416733 -0.3221680262 -0.226276743)
5(-0.6014846517 -0.5085669637 -0.4171725694 -0.2770923949 -0.1631840931)
5(-0.6353245789 -0.4902891288 -0.3602425258 -0.1834085511 -0.05239201714)
5(-0.6299603703 -0.4207037306 -0.2427775114 -0.03149545957 0.1057605347)
5(-0.570245394 -0.2832849517 -0.05442791895 0.1810331081 0.3072800612)
5(-0.4387821367 -0.06991473679 0.2046015397 0.4420968017 0.5304730146)
5(-0.2244748358 0.2145034594 0.5165711531 0.717557665 0.7348621314)
5(0.06667183763 0.5484564858 0.8396901599 0.9549349774 0.8496755283)
5(0.4128731466 0.8787279328 1.107426513 1.085234305 0.8357550031)
5(0.7525564016 1.138372364 1.242244189 1.04350302 0.6686682279)
5(1.024787602 1.243778197 1.17865519 0.8101993432 0.3885664229)
5(1.143584277 1.138524055 0.8968023625 0.443282515 0.07821412007)
5(1.043752046 0.8220184738 0.4561793924 0.03724678888 -0.1715965028)
5(0.73399706 0.3621170263 -0.02072651014 -0.2779010032 -0.2930816399)
5(0.291293736 -0.1254166642 -0.4030592927 -0.4244366602 -0.2832648692)
5(-0.1656771285 -0.4857036658 -0.5737864629 -0.4047476571 -0.1970385543)
5(-0.4807756988 -0.625626892 -0.5337722136 -0.285402077 -0.1052045308)
5(-0.6011112454 -0.5591219778 -0.3671657683 -0.1554035998 -0.04452054452)
5(-0.5111425545 -0.3725761852 -0.1949431369 -0.065577682 -0.01508682027)
5(-0.3263872417 -0.1878453105 -0.07851808979 -0.02186127292 -0.004182975631)
5(-0.1534224144 -0.07106800721 -0.02444385225 -0.005730870981 -0.0009499388401)
5(-0.05039685009 -0.01897305349 -0.005468036504 -0.001183135953 -0.0001873735185)
5(-0.01095854909 -0.003697687172 -0.0008897844147 -0.0001868768239 -2.920354768e-05)
5(-0.001359863619 -0.000395944964 -0.0001026607852 -2.135794716e-05 -3.643329257e-06)
5(-9.469491266e-05 -3.096148897e-05 -5.947369667e-06 -1.617899488e-06 -2.605852681e-07)
5(-2.874467648e-06 -9.35577467e-07 -1.950595814e-07 1.023405486e-08 -8.812793093e-09)
5(-9.441553499e-09 -1.281878088e-07 1.184159246e-07 -1.129724685e-07 -6.702259715e-11)
5(1.412435856e-11 2.785071148e-08 9.432194021e-05 -6.762366796e-08 -1.267747999e-14)
)


60
(
5(-0.0003556589922 -0.0003571940219 -0.00140876021 -0.001377266169 -0.002735941925)
5(-0.0001903293013 -0.0002867392036 -0.0006232825274 -0.0007242794562 -0.0008440171165)
5(-0.0001431763162 -0.0002400505534 -0.0004075481998 -0.0004645518216 -0.000462855581)
5(-0.0001530708602 -0.000239749236 -0.0003251405282 -0.0003210831619 -0.0002038476256)
5(-0.0002248691708 -0.0003133104259 -0.0003177912715 -0.0002401309943 4.813528065e-05)
5(-0.0003902878168 -0.0005005707984 -0.0004093236835 -0.0002630009456 0.0002590031256)
5(-0.0007022342296 -0.000854297274 -0.0006711666697 -0.0004587485565 0.0002468692684)
5(-0.001208263287 -0.00145400082 -0.001181333492 -0.0009332778778 -6.255426815e-05)
5(-0.001992923285 -0.002411085742 -0.00203943544 -0.001777633405 -0.0006628039202)
5(-0.003187437335 -0.003858143414 -0.003385598247 -0.003085580587 -0.001629809295)
5(-0.004986340489 -0.005973526359 -0.005411341853 -0.00507746521 -0.003267264305)
5(-0.007548087569 -0.008999066834 -0.008371163517 -0.00795374261 -0.00565324928)
5(-0.01116641294 -0.01319711658 -0.01254261652 -0.01196438979 -0.009048035525)
5(-0.01621988487 -0.01895777333 -0.01825108642 -0.01742744631 -0.01369608317)
5(-0.02308842147 -0.02678539978 -0.0259595972 -0.02478518865 -0.01992751488)
5(-0.03244932751 -0.03725108848 -0.03628641761 -0.03453707309 -0.02832661938)
5(-0.04481745421 -0.05116961393 -0.04992900002 -0.04730249348 -0.03935282095)
5(-0.0614115025 -0.06936456798 -0.0678422972 -0.06400189921 -0.05409602858)
5(-0.08318314961 -0.09297579086 -0.09101355149 -0.08564769693 -0.07289031833)
5(-0.1115322938 -0.1234078808 -0.1208411831 -0.1133284653 -0.09689485978)
5(-0.1486391825 -0.1621152844 -0.1587956504 -0.1482699469 -0.126976997)
5(-0.1948238642 -0.2109124426 -0.2064332597 -0.1914804394 -0.1648109103)
5(-0.2542558192 -0.2716573172 -0.265049956 -0.2440835825 -0.2108289594)
5(-0.3279547235 -0.3463785165 -0.3364476793 -0.3075182109 -0.2655944779)
5(-0.4199063424 -0.4369939934 -0.4223340191 -0.3824788586 -0.3296083004)
5(-0.5298032339 -0.5450967333 -0.523466553 -0.468472621 -0.4028727827)
5(-0.6622564721 -0.6713629894 -0.6394856288 -0.5649032245 -0.48024846)
5(-0.8202001037 -0.8137832682 -0.7682503404 -0.6678585319 -0.5634502052)
5(-0.9957148527 -0.9723636415 -0.9060572992 -0.7731871795 -0.6390021969)
5(-1.19597516 -1.141213711 -1.045347759 -0.872061751 -0.7055600437)
5(-1.409821195 -1.310976164 -1.1780943 -0.9544314405 -0.7496933542)
5(-1.632891637 -1.473379731 -1.291367276 -1.006339691 -0.754805405)
5(-1.847925542 -1.613448217 -1.364839886 -1.008357064 -0.709090833)
5(-2.038753401 -1.705732026 -1.376788338 -0.9440879984 -0.5865162051)
5(-2.182725935 -1.728138664 -1.304687008 -0.7898554635 -0.382733529)
5(-2.261999671 -1.655563018 -1.124125127 -0.5284433729 -0.07704904225)
5(-2.205498373 -1.463844251 -0.8156720248 -0.154263944 0.3117827101)
5(-2.039728943 -1.13165876 -0.3799910399 0.3194889315 0.7611778596)
5(-1.699856038 -0.6592560414 0.1624187531 0.8502860895 1.205913293)
5(-1.216750413 -0.0832169366 0.7646415115 1.363797914 1.569310164)
5(-0.6253598776 0.537274043 1.335569415 1.756280882 1.731810275)
5(0.05372288644 1.11280781 1.753454844 1.918761719 1.638493025)
5(0.6647581792 1.517981727 1.902262505 1.77092971 1.271429167)
5(1.103574861 1.642787409 1.705918823 1.303413984 0.7056307344)
5(1.273062034 1.430387097 1.176514126 0.6264463266 0.08300302253)
5(1.120538557 0.9102299267 0.4455829552 -0.07927196043 -0.4265525989)
5(0.664621912 0.222361808 -0.2972683128 -0.6314354016 -0.6917055354)
5(0.07999699756 -0.4393171972 -0.8187283301 -0.8842073211 -0.6989577836)
5(-0.4610887711 -0.8560596729 -1.010855374 -0.8242909077 -0.5293211927)
5(-0.7916109474 -0.9617089759 -0.8889850209 -0.603035128 -0.3145673593)
5(-0.8316555332 -0.795705541 -0.5978823093 -0.3427545718 -0.1467002674)
5(-0.6420015289 -0.5021001461 -0.3118991097 -0.1514890747 -0.05445939666)
5(-0.3687046173 -0.240803658 -0.1229367883 -0.05156313474 -0.01588503986)
5(-0.1495703887 -0.08221140796 -0.03462581239 -0.01277807392 -0.00352064628)
5(-0.04138909041 -0.01931632854 -0.006908044267 -0.002382112327 -0.0006274363992)
5(-0.006643826228 -0.002913606582 -0.000845745911 -0.0003021579294 -7.488537533e-05)
5(-0.0005932442269 -0.0001970330496 -6.448011181e-05 -2.138318386e-05 -5.467702537e-06)
5(-1.521769111e-05 -7.834937585e-06 -2.051563393e-06 -3.730279426e-06 -2.240901832e-07)
5(-9.685230376e-08 -0.0007492263632 2.174473679e-07 -0.0005417467801 -2.578521135e-08)
5(2.503084388e-10 3.892175101e-05 3.506744086e-05 6.139808256e-07 -8.855750454e-14)
)


60
(
5(-0.0005785606689 -0.0007828194355 -0.002456649314 -0.002658608867 -0.004202984431)
5(-0.0002488962758 -0.0004778471948 -0.001102301059 -0.00125954359 -0.001154107641)
5(-5.652002842e-05 -0.0001616635153 -0.0004893649519 -0.0004096263177 -0.0001159681727)
5(4.355103142e-05 8.317747332e-05 -7.582451464e-06 0.0003470224964 0.0009564704053)
5(7.463453273e-05 0.0001997853014 0.0004495589586 0.001081795451 0.002243993055)
5(-5.16808957e-05 0.0001046601141 0.0007528981852 0.001649963988 0.00362487623)
5(-0.000499150856 -0.0003602742499 0.0006335462052 0.001796449338 0.004454487533)
5(-0.001440355629 -0.001419597875 -0.0001249868433 0.001275731767 0.004432355837)
5(-0.003055300476 -0.003290409032 -0.001729355254 -0.0001128134228 0.003626811917)
5(-0.005598453055 -0.006312006747 -0.004529926307 -0.002671056109 0.001958688844)
5(-0.009567707048 -0.01098673177 -0.008978953425 -0.006864630124 -0.001220992894)
5(-0.01549069692 -0.01782715104 -0.01568905978 -0.01315657327 -0.006176007855)
5(-0.02397955445 -0.02757005192 -0.02530973251 -0.02215020548 -0.01359478218)
5(-0.03580103195 -0.04120782011 -0.03870705112 -0.03484271567 -0.0244402271)
5(-0.05220235107 -0.05986508652 -0.05698831945 -0.0521636657 -0.03850919005)
5(-0.07473264813 -0.08491354101 -0.08172274647 -0.07535040089 -0.05830924835)
5(-0.104937773 -0.1182466077 -0.1147928172 -0.1059536686 -0.08440808573)
5(-0.1448605504 -0.1622848075 -0.1584452983 -0.1461687187 -0.1191373458)
5(-0.1981740138 -0.2195347355 -0.215198475 -0.1987349071 -0.1645168052)
5(-0.267002465 -0.2938066241 -0.2883871806 -0.2659071006 -0.2219096766)
5(-0.356613202 -0.3885475502 -0.3811574974 -0.3508102119 -0.2953867821)
5(-0.4715978595 -0.5075493749 -0.4980602888 -0.4564612096 -0.3876872718)
5(-0.6165185497 -0.6564080242 -0.6430441154 -0.5847885284 -0.500307708)
5(-0.7946451824 -0.8401451311 -0.8200843769 -0.7393652545 -0.6347810489)
5(-1.016957794 -1.062080305 -1.030799424 -0.922268911 -0.786705021)
5(-1.286793495 -1.324659702 -1.277330714 -1.133269475 -0.9641512341)
5(-1.608525599 -1.631171046 -1.559716468 -1.368321168 -1.158317222)
5(-1.987522768 -1.978929281 -1.874231602 -1.621744039 -1.353251356)
5(-2.415540995 -2.363622988 -2.21124611 -1.88329193 -1.558875417)
5(-2.892895232 -2.776354141 -2.556324167 -2.134135587 -1.723642245)
5(-3.412305972 -3.20074488 -2.894376413 -2.358419508 -1.862537859)
5(-3.950864509 -3.615596722 -3.199336688 -2.53030203 -1.919068087)
5(-4.477687935 -3.989595393 -3.432487393 -2.615168139 -1.894353734)
5(-4.971948439 -4.281307312 -3.558023453 -2.586729302 -1.737662794)
5(-5.363231071 -4.456000985 -3.539873805 -2.403037459 -1.434445639)
5(-5.630113853 -4.459749293 -3.343923606 -2.036196927 -0.9748222328)
5(-5.707700033 -4.2646013 -2.933379712 -1.482390536 -0.3515655116)
5(-5.52516168 -3.82812213 -2.299848838 -0.7497207785 0.3890625564)
5(-5.093025372 -3.147635521 -1.454502665 0.115745645 1.185609611)
5(-4.361261223 -2.251187781 -0.461723942 1.019169084 1.906788136)
5(-3.343855294 -1.195684579 0.5561037063 1.828299883 2.416498853)
5(-2.219257297 -0.1139211572 1.447554978 2.384053228 2.595846742)
5(-1.010776302 0.8254506811 2.038680636 2.53541332 2.316979265)
5(0.03949884003 1.455032019 2.186615268 2.210175299 1.660799665)
5(0.8040721119 1.64645098 1.840990395 1.457837861 0.7535995675)
5(1.112689754 1.368757406 1.072581722 0.4773466152 -0.1944676942)
5(0.9616290269 0.7346365637 0.1006320878 -0.4636181227 -0.9164816967)
5(0.4607504058 -0.09976010139 -0.7481452861 -1.144852055 -1.244309294)
5(-0.1660237057 -0.8247318719 -1.28265421 -1.384560809 -1.171447185)
5(-0.734127608 -1.205177206 -1.409148709 -1.234053964 -0.8621161618)
5(-1.024776704 -1.1946978 -1.122252002 -0.8419664474 -0.5027628017)
5(-0.9724060002 -0.9158156377 -0.6998923184 -0.4559528186 -0.230780043)
5(-0.7033620383 -0.5245385652 -0.3321469285 -0.190953055 -0.08220338192)
5(-0.3741083568 -0.2204382056 -0.1145684047 -0.05914058021 -0.02218360921)
5(-0.1403003542 -0.06400034934 -0.02664106541 -0.01273539143 -0.004320209014)
5(-0.03140076385 -0.01113285363 -0.004050450298 -0.001770646008 -0.0006192227207)
5(-0.002853189039 -0.001168194186 -0.0002957040025 -0.0001470734711 -4.427387722e-05)
5(-0.0002171467243 -3.902012463e-05 -1.159262392e-05 1.260545384e-05 -1.670632326e-06)
5(-4.780583681e-07 0.004004080877 -4.201836209e-05 0.004389795096 2.024381701e-07)
5(1.225072177e-05 -0.01940435794 5.230358257e-06 -0.0003708141169 1.482819806e-06)
)


60
(
5(-0.0007569277884 -0.001350440758 -0.003360748559 -0.003814987613 -0.004162316027)
5(-6.269144268e-05 -0.0004201926483 -0.001173446404 -0.001038570054 0.0001680940735)
5(0.00050509807 0.000617742126 0.000370439566 0.001211113715 0.002657676225)
5(0.0009710898687 0.001582407349 0.001954842382 0.003580829754 0.005810960788)
5(0.001388606187 0.002385023655 0.00371229773 0.006144558956 0.00985088949)
5(0.001614913129 0.002870723492 0.005274780917 0.008493411298 0.01412439149)
5(0.001250501437 0.002699652219 0.006049763036 0.01000973795 0.01734452631)
5(1.576161968e-05 0.001434378173 0.005565346297 0.01025514683 0.01875189074)
5(-0.002549205854 -0.001425451724 0.003378693185 0.008751394244 0.01849286563)
5(-0.006944962974 -0.006493846339 -0.001093276486 0.004968491745 0.01622268379)
5(-0.01393444202 -0.01465542341 -0.008753403754 -0.001984924312 0.0115150134)
5(-0.02473578046 -0.02711933674 -0.02079815625 -0.01312526172 0.002733705117)
5(-0.04063435203 -0.04521290732 -0.03871156503 -0.02981065459 -0.01077989823)
5(-0.06328459723 -0.07066181918 -0.06421192342 -0.05360974828 -0.03092985375)
5(-0.0941304819 -0.1060572405 -0.09959584617 -0.08672605824 -0.05893060567)
5(-0.1370427666 -0.1540938796 -0.1476823663 -0.1315620956 -0.09750595506)
5(-0.1953015201 -0.2183952433 -0.2118683813 -0.1917171581 -0.1480919362)
5(-0.272421937 -0.3032725518 -0.2970753722 -0.2713483193 -0.217139725)
5(-0.3749864164 -0.4144397587 -0.4086814923 -0.3745114512 -0.3069726365)
5(-0.508673865 -0.5586955779 -0.5526678419 -0.5076991168 -0.423714548)
5(-0.6816831364 -0.7434334066 -0.7363268798 -0.6765957003 -0.5707925399)
5(-0.9034118258 -0.976982378 -0.9683550538 -0.888639459 -0.7589433282)
5(-1.184256009 -1.26941472 -1.256946099 -1.14892077 -0.9865741857)
5(-1.535941066 -1.629770801 -1.609083637 -1.463281051 -1.258227187)
5(-1.967055272 -2.06764168 -2.030447805 -1.835025754 -1.577405408)
5(-2.494027411 -2.589700585 -2.527032786 -2.26609645 -1.946565586)
5(-3.115866122 -3.196779318 -3.099126996 -2.751262686 -2.343493156)
5(-3.853603129 -3.891494239 -3.739838635 -3.28081221 -2.767224181)
5(-4.697516665 -4.669991002 -4.43239116 -3.833060808 -3.199466424)
5(-5.648188468 -5.508525985 -5.156424571 -4.384381277 -3.607685055)
5(-6.670311092 -6.377518726 -5.882594277 -4.90124407 -3.951989448)
5(-7.73204594 -7.247741914 -6.566180156 -5.339803844 -4.204588018)
5(-8.802223423 -8.064859913 -7.140704904 -5.646955051 -4.281261981)
5(-9.819526457 -8.770703654 -7.546610211 -5.774995082 -4.172633684)
5(-10.71198334 -9.279739563 -7.733170349 -5.665974752 -3.83324175)
5(-11.3753052 -9.515662423 -7.626826932 -5.275347873 -3.232337823)
5(-11.69373475 -9.441805522 -7.172894737 -4.578091769 -2.363187275)
5(-11.63622723 -8.967789266 -6.350489421 -3.560314019 -1.265628916)
5(-11.08846243 -8.044273655 -5.166703569 -2.279739194 -0.004238414648)
5(-10.05787114 -6.744287893 -3.690820778 -0.8442517711 1.267179048)
5(-8.577542032 -5.120147935 -2.038548352 0.5906455316 2.370835046)
5(-6.71810992 -3.326281335 -0.4100007023 1.809188824 3.071145956)
5(-4.654557601 -1.560352247 0.9528666363 2.590212312 3.209828476)
5(-2.6781634 -0.05107311989 1.824195506 2.762924454 2.741731992)
5(-0.9578012995 0.9636868653 2.054340876 2.283843636 1.735190229)
5(0.221314242 1.343809814 1.620731808 1.279033454 0.4736061145)
5(0.8029985194 1.09792005 0.6927599442 0.07797959943 -0.7249635467)
5(0.7914569113 0.3959869489 -0.4181568068 -1.051129679 -1.560415654)
5(0.3155262298 -0.4710607086 -1.331803818 -1.736772728 -1.860107903)
5(-0.3520267123 -1.155106522 -1.768065148 -1.848919384 -1.646388355)
5(-0.9178996029 -1.47233846 -1.690635041 -1.513723415 -1.147676041)
5(-1.18368427 -1.406813746 -1.249848423 -0.9774561208 -0.6428927675)
5(-1.114714152 -0.9909563593 -0.7086063449 -0.4904078977 -0.2708518381)
5(-0.7980809526 -0.5354926127 -0.2988285998 -0.1831058023 -0.09157005755)
5(-0.4366633522 -0.2080144387 -0.08917987331 -0.04722546672 -0.02125272472)
5(-0.1662820585 -0.05292928324 -0.01634970852 -0.008011793019 -0.002823764909)
5(-0.04044118315 -0.007219323546 -0.001433490742 -0.0008042936753 -0.0002827129146)
5(-0.003648493383 -0.0004531646903 -6.831397435e-05 -1.874699025e-05 -1.084812933e-05)
5(6.745626396e-05 0.002535477132 3.74687571e-06 0.001828747875 3.802912076e-08)
5(0.0002487537704 -0.0001036559584 -0.001054077179 -2.585065751e-06 8.27530047e-07)
)


60
(
5(-0.0007848981515 -0.001963853653 -0.003517941538 -0.003574607422 -0.0002946287483)
5(0.0006576684378 0.0003218447078 2.476512371e-05 0.001523628385 0.005626742144)
5(0.001953892043 0.002884620275 0.003472192832 0.006541301898 0.01093272262)
5(0.00323893377 0.005379999698 0.007396441373 0.0121973966 0.01853627893)
5(0.004606795263 0.007712705062 0.01190360539 0.01853713878 0.02823531006)
5(0.005803056872 0.009687934351 0.01622114239 0.02471301611 0.03833711497)
5(0.006073300191 0.01063946493 0.01925184133 0.02946390861 0.04626378644)
5(0.004864300894 0.009866160828 0.02007574897 0.03195000654 0.0509758279)
5(0.001491468588 0.006459724164 0.01801987237 0.03137065651 0.05230083678)
5(-0.004886378266 -0.0007140580605 0.01203104031 0.02686181661 0.05071907661)
5(-0.01566375189 -0.01310859818 0.000660664085 0.01688353517 0.04382801776)
5(-0.03289220386 -0.03278292223 -0.01832109466 -0.000394590122 0.03074426016)
5(-0.05856219052 -0.06207078596 -0.04732447848 -0.02742251961 0.00814636647)
5(-0.09577284758 -0.1041697805 -0.08952081312 -0.06680883002 -0.02488611129)
5(-0.1476058232 -0.1627590782 -0.148704332 -0.1225206903 -0.07287840298)
5(-0.2190070977 -0.2428612377 -0.2300612068 -0.1988363704 -0.1385427746)
5(-0.3161909545 -0.3505799875 -0.3396242351 -0.3018517183 -0.2282867657)
5(-0.447160328 -0.4937713253 -0.4851267281 -0.4384107321 -0.3482981583)
5(-0.6182824825 -0.6820050228 -0.6762574034 -0.6171870071 -0.5055093911)
5(-0.8443051203 -0.9264257465 -0.9240396675 -0.8493617052 -0.7136442203)
5(-1.136109992 -1.240197642 -1.241324962 -1.145644888 -0.9755075371)
5(-1.508574294 -1.638035729 -1.642645326 -1.518133838 -1.306507465)
5(-1.987647038 -2.137474257 -2.143390584 -1.977558727 -1.715233357)
5(-2.580279214 -2.755605482 -2.757438583 -2.535370918 -2.209811851)
5(-3.310345992 -3.507310953 -3.497906748 -3.201844899 -2.791957713)
5(-4.207493617 -4.405680822 -4.37546799 -3.978547541 -3.466781313)
5(-5.281996754 -5.460120562 -5.390490841 -4.860648527 -4.214303618)
5(-6.539360842 -6.675780051 -6.531578257 -5.836842346 -5.02981608)
5(-7.969113498 -8.037964665 -7.779945811 -6.875071269 -5.858149282)
5(-9.597720758 -9.518521171 -9.108768666 -7.93363553 -6.671528789)
5(-11.3618 -11.08951073 -10.46518966 -8.964503167 -7.428212666)
5(-13.24641676 -12.69159661 -11.77150313 -9.900751855 -8.030409995)
5(-15.1405431 -14.21934263 -12.95435402 -10.65792666 -8.415845845)
5(-16.94279414 -15.6039897 -13.90698841 -11.15119718 -8.525189692)
5(-18.60894369 -16.71804506 -14.53453911 -11.29535425 -8.253420288)
5(-19.8818559 -17.44463962 -14.7221675 -11.01498707 -7.60053625)
5(-20.74958163 -17.6805546 -14.37962598 -10.24737645 -6.51746554)
5(-20.93057206 -17.27601478 -13.46710487 -8.973054753 -5.031463705)
5(-20.44139408 -16.2004522 -11.93703573 -7.232895609 -3.199309121)
5(-19.12180567 -14.48663855 -9.842038128 -5.135895822 -1.172817704)
5(-17.04663412 -12.15250654 -7.372228032 -2.85744084 0.6707774463)
5(-14.27978858 -9.406038714 -4.727353728 -0.6728918815 2.342091863)
5(-11.14427077 -6.494968641 -2.236353225 1.130722835 3.238462283)
5(-7.8410937 -3.704038078 -0.1788218146 2.265626882 3.415915904)
5(-4.734860576 -1.394868503 1.146153271 2.541329724 2.711071734)
5(-2.213139223 0.1703220552 1.579359903 1.97108274 1.437915317)
5(-0.6074193982 0.8752396803 1.176271205 0.7919141162 -0.1040207064)
5(0.4771269093 0.7707441474 0.2076291088 -0.5561324991 -1.496929799)
5(0.6537037924 0.1255590174 -0.8886962963 -1.693831469 -2.315022144)
5(0.1654085918 -0.6666707143 -1.780747017 -2.31766539 -2.466111343)
5(-0.3912435864 -1.375259869 -2.124621987 -2.244973867 -2.033272038)
5(-0.9761065153 -1.59885158 -1.889369935 -1.686155341 -1.311338562)
5(-1.313300962 -1.521844292 -1.291650946 -0.9986752426 -0.6719495306)
5(-1.236907597 -1.085884553 -0.6826802767 -0.4523539395 -0.2662753114)
5(-0.9454724112 -0.5869417571 -0.2625778243 -0.1458227276 -0.07215973743)
5(-0.5847451043 -0.2285360391 -0.05950345305 -0.03022019314 -0.0130857669)
5(-0.2459776739 -0.06434172192 -0.009983910695 -0.003490811834 -0.00120147872)
5(-0.07765111922 -0.007390824612 -0.0006323224446 -0.0001873935843 -6.624694162e-05)
5(-0.01527542343 -0.0001290828387 -1.036069858e-06 -2.491151247e-06 -4.305432438e-07)
5(-0.01611179565 0.0008737399049 -0.004721681047 -4.187011792e-06 -0.0002796488349)
)


60
(
5(-0.0004833768473 -0.002441086609 -0.001907626249 -7.894887979e-05 0.01090780758)
5(0.002316487596 0.002430686391 0.003881746045 0.008818387006 0.01903446964)
5(0.00500723891 0.007718711467 0.01068277277 0.01873482138 0.02981594943)
5(0.007745653287 0.01302173521 0.01885516157 0.03030083961 0.04452753947)
5(0.01092773275 0.0182608511 0.0283760327 0.04324216096 0.0636126376)
5(0.01402055224 0.02312597503 0.03776666399 0.05616244133 0.08389776954)
5(0.01588495148 0.02653118933 0.04511403898 0.06703702152 0.1001923326)
5(0.01547027095 0.0274811011 0.04914874793 0.07415076335 0.110282012)
5(0.01178762319 0.0243477489 0.04851264207 0.07645953992 0.1160955061)
5(0.00338771595 0.0155780435 0.04190158874 0.07234887239 0.1161487803)
5(-0.01177074999 -0.00155593845 0.02660387833 0.05952691194 0.108296414)
5(-0.03699357819 -0.02979064776 -0.0005071468348 0.03513276115 0.08871239659)
5(-0.07483077797 -0.07320640347 -0.04358570949 -0.004835030255 0.05557644866)
5(-0.1308834555 -0.136319782 -0.1074665143 -0.06470590799 0.003831186933)
5(-0.2095586789 -0.225402417 -0.1982704671 -0.1501998416 -0.07000487617)
5(-0.3199739538 -0.3481516166 -0.3238014309 -0.2686356797 -0.173261445)
5(-0.4689396586 -0.5140342788 -0.4938160095 -0.4291978087 -0.3145684049)
5(-0.6697936129 -0.7352738857 -0.7206592231 -0.643215172 -0.506216074)
5(-0.9347299959 -1.025763264 -1.019114395 -0.9253330328 -0.7612859075)
5(-1.283405347 -1.404544944 -1.407365085 -1.292603702 -1.090638394)
5(-1.735876114 -1.891914781 -1.906157011 -1.763424635 -1.516143144)
5(-2.313078192 -2.511944247 -2.53875491 -2.358338727 -2.061854802)
5(-3.047118794 -3.291346884 -3.330798481 -3.096180454 -2.723202191)
5(-3.973698447 -4.254973843 -4.305404826 -3.996975458 -3.543581929)
5(-5.115611504 -5.431487522 -5.484824855 -5.075052139 -4.515951759)
5(-6.496417622 -6.847266321 -6.886260639 -6.337649817 -5.630458985)
5(-8.172462735 -8.51436776 -8.515237885 -7.790144045 -6.9040712)
5(-10.1292192 -10.4419533 -10.3651351 -9.418041968 -8.30421466)