/*--------------------------------*- C++ -*----------------------------------*\
| =========                 |                                                 |
| \\      /  F ield         | OpenFOAM: The Open Source CFD Toolbox           |
|  \\    /   O peration     | Version:  2.3.1                                 |
|   \\  /    A nd           | Web:      www.OpenFOAM.org                      |
|    \\/     M anipulation  |                                                 |
\*---------------------------------------------------------------------------*/
FoamFile
{
    version     2.0;
    format      ascii;
    class       dictionary;
    location    "constant";
    object      la_r11;
}
// * * * * * * * * * * * * * * * * * * * * * * * * * * * * * * * * * * * * * //

la_r11_table
60
(

60
(
5(-0.8725844126 -0.431719665 -2.587949324 -2.085315606 -4.181691754)
5(-0.2705834002 -0.04294805486 -0.7055117383 -0.6386188435 -1.34823649)
5(16.92504037 -0.08943400091 -0.2322228297 -0.1926244621 0.0006246652051)
5(48.42887783 -0.09627358515 -0.2444386395 -0.06291351503 -0.517524878)
5(37.1901721 -0.06824612464 -0.1924947475 -0.145269551 -0.2810801365)
5(17.52272271 -0.04281722608 -0.03813682058 -0.0975727205 -0.08262298252)
5(-0.0380992766 -0.03029942045 -0.009621413647 -0.03433961528 -0.1315220385)
5(-0.01375683096 -0.02870354015 -0.04753798211 -0.04149026835 -0.02419697326)
5(12.09229164 -0.02863830123 0.1230291561 -0.04923707268 -0.06357479594)
5(15.03677674 0.390977065 0.149964849 0.01107151928 -0.04090962653)
5(13.72928115 0.6039459724 0.107160957 0.0851922014 -0.0168519712)
5(5.389751892 0.001607363813 0.05106814256 0.02799564185 0.1378606239)
5(-7.619373056e-05 0.02041560523 0.04192597364 0.08424468503 0.1216199963)
5(0.01453707267 0.04206419084 0.07291618873 0.0910925249 0.1522405916)
5(0.02141976848 0.05822892096 0.09450146444 0.1360976283 0.1535398788)
5(0.4403157401 0.6034908742 0.3416393595 0.3381834121 0.24241585)
5(0.4145833637 0.4764805734 0.4299960145 0.2510945091 0.2081027354)
5(0.1925178933 0.3450776099 0.1813006508 0.1906797915 0.2035694676)
5(0.07223215212 0.2047193583 0.1698389652 0.1796463539 0.2446852395)
5(0.08439768381 0.1218494948 0.1664616231 0.1675890271 0.1913611768)
5(0.08322421627 0.1067907822 0.1412829761 0.1255295974 0.1062358225)
5(0.07881838407 0.08849800616 0.1164686713 0.08502070977 0.06150540472)
5(0.06790507919 0.06808570747 0.07480639943 0.04855283719 0.03043020466)
5(0.05008588483 0.04035891729 0.03567299952 0.003834941577 -0.01671306642)
5(0.03491272372 0.005982399119 -0.004537420158 -0.03607760503 -0.06359694484)
5(0.01592526309 -0.01202348661 -0.04520809408 -0.07055682734 -0.07052062366)
5(-0.01276796062 -0.04032422762 -0.06800621717 -0.09043480748 -0.08128935379)
5(-0.03131894413 -0.06022470703 -0.0892136771 -0.1050843433 -0.09098511177)
5(-0.04806181414 -0.07651240345 -0.09867470464 -0.1058264698 -0.1000190511)
5(-0.06402376975 -0.09128251186 -0.1086002585 -0.0959427094 -0.08861487641)
5(-0.07647572841 -0.09947928805 -0.1124857293 -0.1136719172 -0.0727232569)
5(-0.08563885071 -0.1008115248 -0.1007457068 -0.09971073109 -0.04392273913)
5(-0.08339053869 -0.09786763313 -0.09067164095 -0.0828437274 -0.04077435081)
5(-0.08602476418 -0.09316183769 -0.08158604581 -0.06768992003 -0.04728566456)
5(-0.08452369056 -0.08136742581 -0.06351171996 -0.05531997036 -0.09219605201)
5(-0.07803665264 -0.0769098058 -0.07100782218 -0.04362772389 -0.05398745234)
5(-0.06728076915 -0.05852714714 -0.05019916503 -0.03642551493 -0.001966519968)
5(-0.05155194552 -0.04702509299 -0.03723766359 -0.01892875685 0.06157970256)
5(-0.04129617326 -0.04019932277 -0.01062852076 -0.01054763929 0.09011660162)
5(-0.02893909264 -0.03404322239 -0.04667969636 -0.01395946522 0.03787044452)
5(-0.02307380431 -0.02496053557 -0.07061260432 0.03190466907 0.07400352843)
5(-0.03000174017 -0.02018149774 -0.07161880209 0.6834970702 -1.323751607e-05)
5(-0.03699004473 -0.03939144293 -0.01951866393 -8.384019748e-06 -8.92838218e-06)
5(-0.04514722903 -0.06615131762 0.01841130867 1.487175149e-05 -0.1241162946)
5(-0.05380389852 -0.08066684914 0.1421423475 -2.744388653e-05 -0.02802762715)
5(-0.06233639485 -0.04127079521 0.01893616195 3.767797833e-05 -1.189759601e-05)
5(-0.06609075679 0.09561303274 0.2700849753 -0.01837059469 -3.403182652e-05)
5(-0.3356964304 0.0068162154 0.01219283978 0.0001783680354 6.109974361e-06)
5(-0.05620011709 0.003009972504 -0.002260431489 0.0002335679503 0.00020407411)
5(-0.01525022069 0.01211151329 -8.191875083e-05 6.519696671e-05 0.0001128986491)
5(-0.007525817774 8.286103328e-05 -0.0001447980976 -1.247227058e-05 0.0003341357262)
5(0.1856994719 -6.182495975e-05 -0.0002000671571 -0.0001681235816 -8.518688688e-06)
5(0.03467889441 0.0001409317071 -0.0002852425964 -0.0003102813492 -2.948019447e-05)
5(-0.0002340935602 -0.0001586854788 -0.0001690684645 7.883252628e-05 -1.216261864e-05)
5(-0.000166724229 -0.0004412615511 -0.0004305880436 -0.0005278622028 -0.0003208380813)
5(0.05987756898 -0.0005978169513 -0.0006633368261 -0.0002958668493 -0.0006957938633)
5(0.1138064835 -0.0007106870138 -0.0007888074304 -0.0006116131967 -0.0007575586879)
5(0.01332318361 0.05445388098 -0.001222017242 0.0002699445931 0.005130106044)
5(-0.08848695942 0.03081803656 0.04163290829 -0.0002806545911 -0.002133330827)
5(-0.001473700469 -0.001836921738 -0.002189918443 -0.002484060619 -0.002526956685)
)


60
(
5(-1.921591473 -1.860097154 -5.107310754 -5.086760813 -5.210598894)
5(-1.178912591 -1.451743978 -2.881448654 -3.191293654 -3.897155999)
5(-0.8047955897 -1.119387553 -1.809884395 -1.999359186 -2.330988564)
5(-0.625824208 -0.822462518 -1.208859512 -1.058290433 -1.169096376)
5(-0.4918800881 -0.534446242 -0.6871347476 -0.2466902366 -0.03818389038)
5(-0.3753787381 -0.2327609472 -0.1368979351 0.5646464089 1.102118785)
5(-0.2083803231 0.09331427503 0.4227487296 1.251170338 1.883069292)
5(-0.01284059824 0.4311788942 0.9332079803 1.793592439 2.330620271)
5(0.1985268116 0.7641693441 1.392388638 2.215442395 2.551425354)
5(0.3870780597 1.058645575 1.739156727 2.423350412 2.677952653)
5(0.6334740242 1.309010188 2.006151433 2.47171095 2.446243438)
5(0.8156111601 1.511060263 2.135675555 2.37619013 2.019536593)
5(0.9844200025 1.62899061 2.148006087 2.164925934 1.638479543)
5(1.124610824 1.668483279 2.04836256 1.793373608 1.111474716)
5(1.202562995 1.621190519 1.837175264 1.383280533 0.5914835815)
5(1.188159498 1.462442458 1.500623988 0.9230706651 0.1283308477)
5(1.165541047 1.237300548 1.095057106 0.4356727102 -0.2681731795)
5(1.037085554 0.9438662876 0.6736760025 0.01375255309 -0.6343998707)
5(0.8471070904 0.6383595713 0.2548440961 -0.3721988618 -0.8874414354)
5(0.6129109711 0.3047445729 -0.1206387345 -0.692104391 -1.128267024)
5(0.3658631619 -0.01667274249 -0.4607164363 -0.9035221618 -1.189646315)
5(0.1221141663 -0.3230485912 -0.714713274 -1.10564244 -1.24696178)
5(-0.1508818793 -0.5690181713 -0.9145909367 -1.216803054 -1.282126575)
5(-0.4343855423 -0.774784725 -1.085248345 -1.223209265 -1.241087258)
5(-0.5975820591 -0.9053138303 -1.149219001 -1.242020433 -1.187953098)
5(-0.8086284111 -1.010102959 -1.252209297 -1.24063381 -1.124543211)
5(-0.9352667954 -1.035355707 -1.250385692 -1.211688423 -1.037273748)
5(-1.012878032 -1.093573275 -1.211890363 -1.148871139 -0.9055956888)
5(-1.038049139 -1.118769923 -1.182787221 -1.05546216 -0.884456288)
5(-1.088315904 -1.08410652 -1.122700631 -0.9943409615 -0.7540265328)
5(-1.063677895 -1.028188494 -1.0607141 -0.907956262 -0.707194322)
5(-1.021862394 -0.96840797 -0.9362006359 -0.8255189601 -0.6234872823)
5(-0.9594116609 -0.8987381678 -0.8810346353 -0.7316956041 -0.5235065986)
5(-0.9080741513 -0.8140784656 -0.7751684631 -0.6428403003 -0.4415144349)
5(-0.773800308 -0.7291849805 -0.6859175447 -0.543613224 -0.3888553326)
5(-0.7360141088 -0.6207057046 -0.5639502539 -0.46487797 -0.2806661016)
5(-0.5135792805 -0.4905883578 -0.4575120766 -0.3254435113 -0.1990295256)
5(-0.4591756413 -0.4132354164 -0.380608776 -0.2522360443 -0.1432671265)
5(-0.3465367216 -0.2270247904 -0.2972105386 -0.2342480758 -0.1090320737)
5(-0.1627748198 -0.1739680849 -0.2230955118 -0.187577529 -0.1089895648)
5(-0.006891289284 0.01027166111 -0.06729859127 -0.1914774156 -0.07322877636)
5(0.2026316636 -0.08200485605 -0.112352051 -0.2210895523 -0.09480593241)
5(0.1398018528 -0.09950289701 -0.1371632222 -0.2454851377 -0.08423673415)
5(0.1521640295 -0.00584538838 -0.2159569826 -0.2281528041 -0.08847292192)
5(0.1101957443 -0.1381342049 -0.2519869412 -0.1739524383 -0.08838668052)
5(0.1661169483 -0.2123412653 -0.3365242711 -0.1295362724 -0.09367684036)
5(0.1588598877 -0.2943467215 -0.3167250115 -0.1068976303 -0.07583464921)
5(0.1198556902 -0.2925807661 -0.2435706514 -0.0874019741 -0.03963489248)
5(-0.1438442045 -0.3399475521 -0.1542932668 -0.06088725156 -0.04258798068)
5(-0.009856363737 -0.2655987012 -0.0971515145 -0.04696861507 -0.03212974506)
5(-0.08758407713 -0.1404780909 -0.06037216093 -0.03448529952 -0.01942500117)
5(0.06930686188 -0.0457730959 -0.02408645983 -0.03390297415 -0.02813050715)
5(-0.06211195062 -0.04397062571 -0.04935194709 -0.03710220593 0.0269371237)
5(-0.04437400787 -0.0008113031434 -0.03436499192 -0.02168620805 -0.01480460361)
5(0.04389831798 -0.03677078549 -0.03762374098 -0.02473559846 -0.009460882462)
5(0.02384526808 -0.02677814448 -0.02814708929 -0.01948968271 -0.01897087424)
5(0.02120395922 -0.01332296532 -0.01843765801 -0.01844836053 -0.007330608165)
5(-0.01023818339 -0.0114306501 -0.00947041858 -0.009870419697 -0.006802070387)
5(0.05143043245 -0.02892587766 -0.01103766203 -0.007416928365 -0.01509567668)
5(-0.009069674657 -0.00697407961 0.7403418824 -0.008018126392 -0.00903222179)
)


60
(
5(-3.171072523 -3.582112028 -7.379843261 -7.002622233 -2.95749371)
5(-2.263247847 -2.955835807 -4.681590642 -4.621519851 -3.861681419)
5(-1.675575636 -2.13521215 -3.087399551 -2.596405199 -2.009239984)
5(-1.240840753 -1.32289832 -1.702920321 -0.6466753865 0.3675084549)
5(-0.8558417263 -0.5419634871 -0.3786384413 1.096451354 2.264010254)
5(-0.4315686756 0.2292435776 0.9241152971 2.538180444 3.774047358)
5(0.04376105268 0.9868750973 2.087814358 3.567578604 4.377727864)
5(0.5293493509 1.660416774 2.948578023 4.150796834 4.435306966)
5(0.9625107787 2.229268734 3.505944931 4.320136078 4.109557782)
5(1.391565467 2.652765885 3.78252226 4.136614489 3.356053556)
5(1.761242674 2.915916981 3.777743734 3.652106298 2.449370497)
5(2.082886538 3.010696446 3.548085525 2.976679759 1.473066782)
5(2.228742522 2.912280458 3.102191254 2.157223568 0.4960457273)
5(2.263701861 2.652730359 2.515677292 1.286871126 -0.4116604262)
5(2.196678477 2.256868305 1.796741083 0.435025635 -1.115395923)
5(2.052212707 1.751187199 1.051548767 -0.3579767235 -1.710421317)
5(1.690471721 1.183751024 0.2775851235 -1.061187744 -2.158965717)
5(1.26208502 0.5765052521 -0.410201602 -1.619628223 -2.411175705)
5(0.7973402907 -0.02385947507 -1.04419048 -2.024235931 -2.5551154)
5(0.3034993825 -0.5716065386 -1.521830795 -2.311667808 -2.60862195)
5(-0.1474052243 -1.063930964 -1.905393346 -2.471767151 -2.615002044)
5(-0.6329220082 -1.468885409 -2.14439204 -2.507657754 -2.48937145)
5(-1.046290846 -1.774498282 -2.323098484 -2.510411538 -2.370906903)
5(-1.338683355 -1.973777879 -2.397273953 -2.432971337 -2.22599221)
5(-1.568565249 -2.074072645 -2.401616558 -2.32416201 -2.090693027)
5(-1.769205297 -2.119569023 -2.349790719 -2.218782711 -1.878575377)
5(-1.871342442 -2.078647763 -2.231938523 -2.055707263 -1.76287724)
5(-1.82398365 -2.056505881 -2.129891481 -1.931072832 -1.591172253)
5(-1.908444891 -1.954619693 -1.983166421 -1.746353015 -1.467653844)
5(-1.807313068 -1.837192332 -1.857091985 -1.619517665 -1.288067846)
5(-1.806567861 -1.752477602 -1.714796894 -1.461612649 -1.181732345)
5(-1.724369227 -1.613169317 -1.528228055 -1.302547096 -1.04304051)
5(-1.6226579 -1.435255017 -1.395122865 -1.167872704 -0.9067318925)
5(-1.529802881 -1.333900445 -1.237986728 -1.014437295 -0.7507945626)
5(-1.372239786 -1.160097049 -1.029177907 -0.8561878698 -0.6289457958)
5(-0.9843118342 -0.9931337692 -0.8858619991 -0.6890607638 -0.5535321378)
5(-0.7824143509 -0.783140157 -0.7075372399 -0.5206742849 -0.3634704885)
5(-0.770345731 -0.5813323743 -0.525305554 -0.3791245547 -0.2966215979)
5(-0.5478308336 -0.3851968825 -0.3353975584 -0.2575915988 -0.2062104356)
5(-0.3048816065 -0.1425510832 -0.14519557 -0.1495190385 -0.1065068176)
5(0.01291291293 0.02870111784 -0.05390336447 -0.083933628 -0.08381377073)
5(0.1009270946 0.1097866295 0.0298172032 -0.07984307381 -0.06608659273)
5(0.2504130592 0.1771013344 0.04390123333 -0.08589053891 -0.08287648876)
5(0.2946839909 0.1619470345 0.004788041967 -0.09911879329 -0.06428212315)
5(0.3043069148 0.1687911192 -0.04637056311 -0.1515716145 -0.1408156995)
5(0.2342572477 0.03175491235 -0.1860271012 -0.178629392 -0.1253002732)
5(0.1075638217 -0.1206743969 -0.2573737027 -0.2025188057 -0.1142215014)
5(-0.001665318098 -0.232536377 -0.2624074039 -0.1997134954 -0.09515578532)
5(-0.07533644918 -0.2235195597 -0.2152711462 -0.1594647542 -0.07663928821)
5(-0.157140791 -0.2416051167 -0.181073936 -0.1080961574 -0.06197126179)
5(-0.1651954872 -0.1601907133 -0.1199952725 -0.08277910136 -0.04621894799)
5(-0.09366754229 -0.08336623609 -0.07792730616 -0.06114200224 -0.04358228165)
5(-0.01760916256 -0.03142019121 -0.05708984645 -0.05574251735 -0.04291009852)
5(0.09643661649 -0.04088964645 -0.04477798338 -0.03520261302 0.01642540297)
5(0.01067775977 -0.02413488448 -0.03679743469 -0.03747194279 -0.02609447491)
5(0.04606083663 -0.02793657541 -0.0311200869 -0.02734630745 -0.02044130532)
5(0.03592055984 -0.02544512983 -0.04142362451 -0.02262567139 -0.01535491874)
5(0.03875870489 -0.01561080877 -0.01543967223 -0.01597698081 -0.007080748759)
5(0.0009481562239 -0.04519545292 -0.02147964227 -0.01913310963 -0.01139761587)
5(-0.006178324578 0.002156729429 1.003447571 -0.001398166095 -0.02034122877)
)


60
(
5(-4.570566844 -5.512324957 -9.05834347 -7.14583614 3.013058174)
5(-3.525141884 -4.57234354 -6.164337527 -4.965418439 -1.345466866)
5(-2.596961066 -3.041955314 -3.777210431 -2.129447615 0.2965328159)
5(-1.80350774 -1.513266921 -1.430724301 0.7454540743 2.927701597)
5(-1.011442938 -0.1094672921 0.7632253201 3.132302837 4.946559959)
5(-0.1670605316 1.190324056 2.718659394 4.88745679 6.103985287)
5(0.6727715258 2.368403808 4.247440668 5.923466862 6.109458291)
5(1.444650933 3.301065329 5.182125195 6.170265986 5.334710205)
5(2.116849986 3.976266689 5.575354053 5.799272578 4.200057725)
5(2.712236284 4.354211089 5.501675243 4.958240998 2.746559088)
5(3.149990493 4.452968936 5.031248617 3.816385784 1.227524427)
5(3.403338645 4.25649514 4.266030892 2.516627552 -0.2944672684)
5(3.464011465 3.818942138 3.29801602 1.168149275 -1.559110585)
5(3.268411718 3.159781577 2.186972976 -0.1352607418 -2.571613473)
5(2.929869235 2.357349893 1.027679876 -1.274439061 -3.395924792)
5(2.425721932 1.458056964 -0.1040166662 -2.221501503 -3.937195413)
5(1.839176035 0.5411053541 -1.122838482 -2.992283721 -4.247530859)
5(1.080769948 -0.3276657571 -1.963385711 -3.507591702 -4.407085192)
5(0.4193790754 -1.138740284 -2.664297897 -3.858365014 -4.342510176)
5(-0.3753544291 -1.826191987 -3.154896403 -4.01004199 -4.235914794)
5(-1.037561122 -2.363771316 -3.517448174 -4.067612868 -4.058547474)
5(-1.468639868 -2.799472646 -3.697413868 -3.982697872 -3.75296015)
5(-1.902515417 -3.059376747 -3.767520326 -3.865388229 -3.491540594)
5(-2.411698257 -3.200799114 -3.689800408 -3.68623002 -3.20914791)
5(-2.624739724 -3.242343072 -3.613628564 -3.473151659 -3.035931699)
5(-2.765031571 -3.25134754 -3.470914127 -3.241596768 -2.739966729)
5(-2.812066449 -3.175500222 -3.302255104 -3.016586337 -2.478825761)
5(-2.831477764 -3.074116226 -3.100761094 -2.786741164 -2.304169125)
5(-2.767372981 -2.946289711 -2.894562419 -2.548294639 -2.019907369)
5(-2.66280001 -2.787443233 -2.68992442 -2.346590748 -1.889770909)
5(-2.556759988 -2.60076415 -2.477046261 -2.127057008 -1.635300805)
5(-2.433822026 -2.411692509 -2.207765421 -1.911580615 -1.485805426)
5(-2.269345722 -2.207536356 -2.045370805 -1.700047991 -1.289100386)
5(-2.112895705 -2.008937977 -1.819777644 -1.49161814 -1.131120937)
5(-1.912886338 -1.791020143 -1.586557123 -1.284333374 -0.8731555392)
5(-1.6946353 -1.566670936 -1.341647735 -1.077541326 -0.7620296804)
5(-1.471613274 -1.292170612 -1.067116236 -0.8566413199 -0.5935478432)
5(-1.227649335 -1.024363112 -0.8280580011 -0.6315615661 -0.3461659404)
5(-0.9828646192 -0.7315394358 -0.5713681073 -0.4200501186 -0.275775976)
5(-0.6640083395 -0.43508156 -0.3436305498 -0.2312082854 -0.07141741402)
5(-0.2925050003 -0.1932752755 -0.1275235363 -0.09497407205 -0.0813046587)
5(-0.03653421447 0.02500372656 0.04627848561 -0.006583767928 -0.03861452098)
5(0.2429895689 0.1885791672 0.1504006253 0.01683429922 -0.03174861325)
5(0.4164760953 0.2813868146 0.1539611731 0.001942867239 -0.05214397353)
5(0.4967286342 0.2691254906 0.0626225539 -0.06076805968 -0.06572065285)
5(0.4470846027 0.1822991328 -0.02599230509 -0.1294854419 -0.1394359029)
5(0.3959344732 0.05329729012 -0.1636700728 -0.1973961456 -0.158862661)
5(0.1792997554 -0.106430112 -0.2168006317 -0.2336364345 -0.09446363121)
5(0.3347338564 -0.2214806674 -0.2474245753 -0.2201959592 -0.1264473713)
5(-0.08446569924 -0.2487434932 -0.2353424025 -0.1745548728 -0.05254299536)
5(-0.1493012209 -0.1926725847 -0.1640102306 -0.1108292676 -0.01940006376)
5(0.0404340885 -0.1171753794 -0.1006138774 -0.08501327696 -0.06077082174)
5(0.04377087367 -0.06344257336 -0.05822941573 -0.06058478513 -0.03350532791)
5(0.08782924284 -0.03307244417 -0.03763317278 -0.05390144693 0.01687112236)
5(0.02725282756 -0.01289980559 -0.02181652495 -0.03330547834 0.000349003312)
5(0.1509674609 -0.0148028146 -0.01776811526 -0.01877430548 -0.03628000129)
5(0.08769723344 -0.02523034663 -0.02981582538 -0.0230675641 -0.02154699309)
5(0.0146012864 -0.02725887315 -0.02479340435 -0.01578182004 -0.01732354502)
5(0.01179302214 -0.005023565504 -0.01152784114 -0.02876564963 -0.02608591161)
5(0.00789107163 0.3166713767 -1.475747585 -1.107986139 -0.9971050716)
)


60
(
5(-6.058838718 -7.472879061 -9.848828673 -5.053391562 13.05727072)
5(-4.860666134 -6.197317082 -7.037498622 -3.914097219 3.760124663)
5(-3.485746935 -3.782626607 -3.832464188 -0.6716879337 4.0536895)
5(-2.202887977 -1.37926701 -0.544146471 2.823544575 6.014910699)
5(-0.9555992894 0.7187380734 2.440145343 5.571604058 7.571321958)
5(0.3451326552 2.538127884 4.870065306 7.252428606 7.844272989)
5(1.576397083 4.063664297 6.526156291 7.914011793 6.986170401)
5(2.645007422 5.148419727 7.34266557 7.598892646 5.269115712)
5(3.509306242 5.797469323 7.384898941 6.576325349 3.331099823)
5(4.156443837 6.011810662 6.789460243 4.992169684 1.107691768)
5(4.569263839 5.792514214 5.738365426 3.171086336 -0.8632944034)
5(4.711281799 5.22376622 4.376144788 1.274492623 -2.727345131)
5(4.506330961 4.36109052 2.816410586 -0.5018209459 -4.171770647)
5(4.116084862 3.261882123 1.244282414 -2.109490897 -5.307403517)
5(3.395577625 2.052076694 -0.305340643 -3.425485406 -6.016521731)
5(2.516292661 0.7797452614 -1.671033615 -4.454016415 -6.41652771)
5(1.619174098 -0.4285421256 -2.87871985 -5.188006344 -6.534546832)
5(0.6002745822 -1.540241341 -3.836815739 -5.6182251 -6.488495083)
5(-0.3705282787 -2.505065751 -4.52485055 -5.886133705 -6.262046872)
5(-1.269917606 -3.260350835 -4.986981665 -5.921211457 -5.952522668)
5(-2.049514724 -3.824124746 -5.25661755 -5.813821673 -5.582569201)
5(-2.739678131 -4.221757347 -5.326159472 -5.604728572 -5.157177378)
5(-3.217524161 -4.436794889 -5.255672963 -5.320150272 -4.791167935)
5(-3.555145029 -4.524828422 -5.102720106 -4.982093802 -4.391253059)
5(-3.725803141 -4.517833021 -4.902578397 -4.650352855 -4.022525205)
5(-3.869081138 -4.376635548 -4.653621746 -4.319539998 -3.666488757)
5(-3.870751572 -4.247543148 -4.380856911 -3.995659601 -3.36890201)
5(-3.757253416 -4.054970094 -4.080467869 -3.677010831 -3.092979137)
5(-3.646482527 -3.836478152 -3.796857256 -3.392396511 -2.779998246)
5(-3.466563035 -3.616892519 -3.525243227 -3.115187893 -2.509561966)
5(-3.321594173 -3.409279482 -3.24734941 -2.826562973 -2.264917786)
5(-3.163359996 -3.154494371 -2.952379709 -2.561845677 -1.925390173)
5(-2.982611616 -2.919186242 -2.68525743 -2.30056604 -1.805051858)
5(-2.807953309 -2.666243142 -2.42828399 -2.039154243 -1.545289696)
5(-2.554619264 -2.397770944 -2.138602214 -1.776085339 -1.305917012)
5(-2.295017164 -2.117938463 -1.851676874 -1.502725536 -1.085688921)
5(-2.00354884 -1.800425969 -1.549142819 -1.205365225 -0.8584962222)
5(-1.683229789 -1.474796785 -1.22896755 -0.9181161278 -0.6565297845)
5(-1.366666062 -1.156625154 -0.9031424333 -0.6398905464 -0.4044180981)
5(-1.032857465 -0.8073100605 -0.5678163297 -0.3808783733 -0.2647427843)
5(-0.7310976042 -0.4714364983 -0.2668901642 -0.1595347019 -0.07339596525)
5(-0.3602280701 -0.1398307674 -0.005734427163 0.01283149235 0.1049403043)
5(0.06868658866 0.1479211789 0.1934081922 0.1012360459 0.06360503034)
5(0.3833153084 0.3391470983 0.2818873674 0.1418165449 0.04643289667)
5(0.6720176778 0.4450564828 0.2582457399 0.09667169412 -0.05661026894)
5(0.5786033685 0.4279404148 0.1629953539 0.005323879587 -0.09665392443)
5(0.62090814 0.2932235941 0.03456267487 -0.109607316 -0.1426277314)
5(0.4692160491 0.1210423223 -0.09333814449 -0.1749726399 -0.1670038767)
5(0.3017842857 -0.05691925012 -0.1811086645 -0.235747013 -0.1552966512)
5(0.1196114259 -0.1465984742 -0.2184731973 -0.2123615252 -0.1025413187)
5(0.008931263513 -0.1770145848 -0.1915227646 -0.1628952887 -0.07998642733)
5(-0.02738709476 -0.1400327937 -0.1273412564 -0.1072099559 -0.08121726536)
5(-0.1019123439 -0.07661899322 -0.06547572192 -0.05127511756 0.07664162402)
5(0.02106718831 -0.02231865531 -0.02829477053 -0.03308507923 -0.05616545988)
5(0.08702019007 0.0012164302 -0.01814746424 -0.02846682968 -0.03582324642)
5(0.09197953451 0.005462738135 -0.01621148484 -0.02071768452 -0.003396912157)
5(0.07698083837 -0.01266646063 -0.0191904443 -0.02806280885 -0.004913699563)
5(0.05172993904 -0.005080799944 -0.01283970582 -0.01264957794 -0.004518028459)
5(0.03669019608 0.00580103343 -0.009470326623 -0.009028542827 -0.02500852306)
5(0.03765004762 0.00706300723 0.5566290847 -0.01041833551 -0.01719343035)
)


60
(
5(-7.571931828 -9.273071024 -9.523350614 -0.1396614877 27.40209036)
5(-6.203197065 -7.709202336 -7.180239358 -1.32010304 11.20937992)
5(-4.388039538 -4.284765555 -3.270624361 1.714838599 8.699070181)
5(-2.489160048 -0.9827743761 0.8494450072 5.384393975 9.975949524)
5(-0.6594510503 1.805928096 4.468339031 8.12747316 10.31485963)
5(1.115586892 4.110663423 7.156441054 9.48139574 9.182509095)
5(2.769992182 5.913663925 8.744544054 9.555961391 7.302532803)
5(4.059355986 7.058906829 9.204313589 8.479099844 4.415430809)
5(5.067438948 7.578827159 8.766471156 6.655268161 1.602664332)
5(5.690602287 7.493392798 7.563562549 4.349185681 -1.177921145)
5(6.019073467 6.912829447 5.902119544 1.883114063 -3.631936332)
5(5.845108511 5.879998547 3.926078448 -0.5257883084 -5.746269814)
5(5.410378245 4.548006519 1.868129102 -2.669033522 -7.256492234)
5(4.600765205 3.008697827 -0.1607625568 -4.491877932 -8.352542307)
5(3.621749244 1.380561576 -2.019839191 -5.921503992 -8.88594058)
5(2.415464767 -0.2075077974 -3.633245498 -6.977373586 -9.181727194)
5(1.128058766 -1.69077615 -4.94486883 -7.629543931 -9.028572629)
5(-0.1242154288 -2.963780447 -5.901729626 -7.983814101 -8.780358133)
5(-1.358765131 -4.030487056 -6.570796724 -8.061624317 -8.331520118)
5(-2.349079801 -4.851337446 -6.944261545 -7.934759189 -7.86846277)
5(-3.232524979 -5.423004702 -7.08136148 -7.660287339 -7.324572469)
5(-3.987434305 -5.773913802 -7.040591074 -7.279405475 -6.683018231)
5(-4.45619715 -5.935394963 -6.855595526 -6.839934426 -6.139211846)
5(-4.731903423 -5.944457639 -6.585182305 -6.386194519 -5.636009299)
5(-4.945578208 -5.838829406 -6.268062964 -5.934563536 -5.193889373)
5(-4.958733761 -5.678839895 -5.907207432 -5.488826998 -4.727336263)
5(-4.891014328 -5.406715501 -5.510694561 -5.068644511 -4.31322149)
5(-4.726142427 -5.125520041 -5.152576906 -4.660661185 -3.935723853)
5(-4.600513782 -4.82510466 -4.786206555 -4.285965158 -3.569782733)
5(-4.369121839 -4.541008072 -4.423246363 -3.942900747 -3.264599997)
5(-4.106180071 -4.22369077 -4.081128808 -3.617787757 -2.942672691)
5(-3.862090946 -3.920916393 -3.766513846 -3.273587539 -2.609437915)
5(-3.654297609 -3.654110554 -3.47254425 -2.949415925 -2.320902469)
5(-3.461693872 -3.366001008 -3.128586271 -2.637173633 -2.193126923)
5(-3.284182911 -3.059732252 -2.771738952 -2.322650188 -1.78745277)
5(-2.95175514 -2.73249752 -2.425663796 -1.986645234 -1.474914022)
5(-2.621080197 -2.400111367 -2.093873189 -1.657747292 -1.220982598)
5(-2.298839487 -2.065847747 -1.73707787 -1.319460145 -0.9590860737)
5(-1.963902145 -1.672689659 -1.333993817 -0.9890041175 -0.6239302531)
5(-1.626152202 -1.238001137 -0.9309794184 -0.6474654959 -0.3735530352)
5(-1.233844039 -0.8260931094 -0.5330816955 -0.3378636252 -0.2459745177)
5(-0.7019319267 -0.4076860296 -0.176703128 -0.0817764861 0.03093557999)
5(-0.2732352396 -0.02411366825 0.1334289181 0.1125597517 0.07808980013)
5(0.1581286459 0.2627850139 0.3137894182 0.2317775252 0.1567782331)
5(0.5082316297 0.4771173063 0.3855308918 0.2448956868 0.1018443833)
5(0.6385016886 0.560295186 0.3593397786 0.1797802956 0.01432726743)
5(0.5084862985 0.5092189093 0.2582309015 0.04357103116 -0.01714689386)
5(0.6894537339 0.3616988203 0.1346524206 -0.08843289416 -0.1190318295)
5(0.6485071976 0.1737731586 -0.04245115762 -0.182908122 -0.1779599597)
5(0.3082810985 0.03924867031 -0.1472207943 -0.2261249918 -0.1973657792)
5(0.2282837737 -0.08827924307 -0.1827201539 -0.192852502 -0.03645462889)
5(0.1445622114 -0.07611942677 -0.1545157334 -0.1302622832 -0.06780198572)
5(-0.05282508169 -0.09983703505 -0.07409008962 -0.07512439365 -0.02372498947)
5(-0.08207324422 -0.03070194538 -0.02149989475 -0.02879754106 -0.01135600767)
5(0.01826438083 0.03051070177 0.008153419082 -0.0128964633 0.01396583204)
5(0.02439182196 0.04560816842 0.005936834234 -0.01514027316 0.08804526979)
5(0.1091615085 0.04714652064 0.005308280173 -0.01409432266 -0.00219643796)
5(0.2108270902 0.03429066367 -0.003470580999 -0.01663606614 -0.02868054448)
5(0.09820559629 0.0277967165 0.005725024243 -0.005010943968 -0.005293264186)
5(0.1618869036 0.04583452245 0.6394135089 -0.004724221656 0.008562577994)
)


60
(
5(-9.033363474 -10.76593357 -7.777357108 7.904471345 46.40396193)
5(-7.502306141 -8.96861011 -6.368964111 2.945124195 21.10021551)
5(-5.089934947 -4.518785717 -2.060924991 5.096297277 14.83309303)
5(-2.580652069 -0.2742489635 2.727727962 8.387533648 13.34157814)
5(-0.1047073904 3.198386679 6.765292915 10.66719324 12.41821177)
5(2.123173689 5.924343077 9.509598828 11.4024274 9.837250703)
5(4.156356739 7.883387374 10.85130717 10.76287365 6.587955202)
5(5.68589867 8.992630108 10.83510014 8.886034577 2.789333706)
5(6.695530759 9.288966178 9.795593934 6.249186178 -0.8262596876)
5(7.296235353 8.826662232 7.924331544 3.180741919 -4.021262885)
5(7.346901268 7.768236165 5.60807137 0.1116486403 -6.879890297)
5(6.916429433 6.22976195 3.016685348 -2.753858005 -9.136420079)
5(6.119312456 4.410948154 0.4764175183 -5.226767689 -10.78456861)
5(4.991174142 2.397127699 -1.94772943 -7.237831162 -11.68058173)
5(3.595409944 0.4043423669 -4.069665392 -8.722503723 -12.16043877)
5(2.03169406 -1.50490187 -5.848319545 -9.736409622 -12.10525918)
5(0.4538530794 -3.188973224 -7.207596591 -10.31326688 -11.78719532)
5(-1.120574182 -4.624337903 -8.170260666 -10.53474555 -11.25833622)
5(-2.393815184 -5.771310327 -8.764693434 -10.42897527 -10.67523949)
5(-3.66350519 -6.614978369 -9.030080074 -10.12541621 -9.878548557)
5(-4.616317815 -7.194903427 -9.063116674 -9.676923499 -9.16491908)
5(-5.270976439 -7.449836061 -8.879306897 -9.127055914 -8.419982072)
5(-5.855512029 -7.528152917 -8.567080651 -8.545018639 -7.658168195)
5(-6.083158027 -7.474643256 -8.149446014 -7.92315722 -6.999358186)
5(-6.14765198 -7.255415594 -7.677458689 -7.345991814 -6.360338059)
5(-6.197562583 -6.924643677 -7.200918157 -6.80312435 -5.901144031)
5(-5.993055614 -6.582045671 -6.725217356 -6.272684575 -5.319889426)
5(-5.816809328 -6.215679583 -6.290827175 -5.762385291 -4.838805376)
5(-5.737915525 -5.85741015 -5.823741043 -5.304026387 -4.467848288)
5(-5.226403427 -5.489929083 -5.380205929 -4.897496302 -4.033651407)
5(-4.93461149 -5.125723209 -4.962587733 -4.474839081 -3.698214776)
5(-4.690572472 -4.806105813 -4.585434118 -4.077437254 -3.491232407)
5(-4.523625511 -4.493780711 -4.225954554 -3.690304758 -2.968911784)
5(-4.188269437 -4.143733526 -3.831612088 -3.32409213 -2.671794854)
5(-3.853909041 -3.772474063 -3.476345512 -2.970873745 -2.347404898)
5(-3.563494464 -3.409970291 -3.105944556 -2.596332736 -2.007077473)
5(-3.271568118 -3.065481475 -2.719356626 -2.217873821 -1.635320271)
5(-2.913969143 -2.672167615 -2.290185764 -1.826207165 -1.283690777)
5(-2.550181786 -2.251662169 -1.846469991 -1.424372214 -1.013431929)
5(-2.138692863 -1.800796994 -1.39018629 -1.00600393 -0.6041558213)
5(-1.695126642 -1.334141757 -0.9178324927 -0.6190943327 -0.2899662601)
5(-1.24712599 -0.8515545046 -0.4648818002 -0.2630632877 -0.09124129694)
5(-0.8132911325 -0.368219786 -0.08373589897 0.02621117549 0.1763442502)
5(-0.2457800575 0.04781441174 0.2268367765 0.2433843153 0.188878726)
5(0.2517037464 0.3660236515 0.4281793642 0.358465721 0.3008616184)
5(0.6092920452 0.5728042578 0.5023660132 0.3498860569 0.1376172207)
5(0.7802724013 0.6678331558 0.4646236554 0.2448309678 0.1187225535)
5(0.7466674603 0.6055454832 0.3199363854 0.1006140189 -0.1107053476)
5(0.8409836807 0.4508640398 0.1491039234 -0.0621800002 -0.108274943)
5(0.6478767813 0.2899262626 -0.009148160088 -0.1509233243 -0.1529131864)
5(0.3174746946 0.1001580021 -0.1089690059 -0.1793937983 -0.1585279265)
5(0.03101479154 -0.02800257622 -0.1356818338 -0.142097867 -0.07416229736)
5(-0.01373915401 -0.09701791621 -0.06563506396 -0.07673677639 -0.02875772797)
5(-0.03421291653 -0.06545153442 -0.03128304059 -0.01810052529 0.06108217505)