/*--------------------------------*- C++ -*----------------------------------*\
| =========                 |                                                 |
| \\      /  F ield         | OpenFOAM: The Open Source CFD Toolbox           |
|  \\    /   O peration     | Version:  2.3.1                                 |
|   \\  /    A nd           | Web:      www.OpenFOAM.org                      |
|    \\/     M anipulation  |                                                 |
\*---------------------------------------------------------------------------*/
FoamFile
{
    version     2.0;
    format      ascii;
    class       dictionary;
    location    "constant";
    object      la_r4;
}
// * * * * * * * * * * * * * * * * * * * * * * * * * * * * * * * * * * * * * //

la_r4_table
60
(

60
(
5(-0.01463300953 0.007666645265 -0.0576939332 -0.08024073009 -0.2005768501)
5(0.001667473503 -0.001991926085 -0.02695595474 -0.03071115713 0.04639533726)
5(-0.03296000696 -0.003553903908 -0.009441523901 -0.009899530524 -0.0001072029221)
5(0.1764925688 -0.004854100024 -0.01092495862 -0.003044417848 -0.01698863012)
5(0.1843640712 -0.005706176247 -0.01256214672 -0.01255894143 -0.01524949499)
5(0.04016263138 -0.006854361224 -0.005509449718 -0.01800522194 -0.01471275919)
5(-0.006658669032 -0.008701142213 -0.009982404177 -0.01607710001 -0.05003483662)
5(-0.004287951934 -0.0127154056 -0.02654823052 -0.03101308205 -0.01878067392)
5(-0.1222017741 -0.02026151808 -0.03500272888 -0.04999099096 -0.05357808208)
5(-0.2573581147 -0.03789037774 -0.06978393755 -0.06755992109 -0.09320966702)
5(-0.3857857495 -0.05934533202 -0.09704720927 -0.1033506349 -0.1398858996)
5(-0.1856412832 -0.06407787933 -0.1095516487 -0.14281334 -0.1797300933)
5(-0.03665601202 -0.09095651186 -0.1417361648 -0.2246691476 -0.274210811)
5(-0.06214680689 -0.1278842416 -0.2027223773 -0.2657563289 -0.3514956362)
5(-0.07171340996 -0.1610698566 -0.25748891 -0.3934496285 -0.4773787416)
5(-0.1408533509 -0.2892669744 -0.3977202627 -0.5700706649 -0.6748535124)
5(-0.1831985171 -0.3507274492 -0.5410519281 -0.7282171839 -0.9388988376)
5(-0.1982232839 -0.4182531194 -0.6289606691 -0.9642572179 -1.256267916)
5(-0.2228881847 -0.4930497923 -0.8023078602 -1.207157911 -1.70257609)
5(-0.300588518 -0.6299125695 -1.059024803 -1.647098838 -2.079731048)
5(-0.3690552384 -0.739910644 -1.236671195 -1.960736065 -2.411989336)
5(-0.4578989746 -0.8840619681 -1.556729095 -1.974676364 -2.563606993)
5(-0.5866996957 -1.077495648 -1.816310498 -2.568849743 -3.295514809)
5(-0.6810732079 -1.33442489 -2.107437889 -2.935847721 -3.673653179)
5(-0.829886576 -1.596616625 -2.462201284 -3.442998374 -4.235092176)
5(-0.9595732517 -1.886835109 -2.918364305 -4.000129724 -4.520906469)
5(-1.096086132 -1.997597756 -3.028210692 -4.357851754 -4.769869644)
5(-1.201096273 -2.021254856 -3.343925177 -4.583690473 -4.859096328)
5(-1.384856959 -2.206209052 -3.400687146 -4.545291643 -4.918467858)
5(-1.497872391 -2.379341679 -3.442869325 -4.2609609 -4.639151916)
5(-1.626510899 -2.484271043 -3.559590178 -4.359336626 -4.415488261)
5(-1.678347385 -2.430087605 -3.313388822 -3.866638128 -3.463543255)
5(-1.653180807 -2.356659301 -3.133495324 -3.52043323 -3.493395224)
5(-1.601453738 -2.191872717 -2.881036335 -3.082895909 -2.770666482)
5(-1.457413694 -1.832550794 -2.361200854 -2.618452485 -0.1750787313)
5(-1.18146875 -1.419082129 -1.968778141 -2.183021814 1.35464296)
5(-0.771632253 -0.8597410625 -1.382658046 -1.748242528 -1.603144583)
5(-0.1834753843 -0.1496020414 -0.7651409276 -1.198968728 0.05707160958)
5(0.5658329992 0.5101387406 0.1538533249 -0.8844926524 1.006339095)
5(1.535564209 1.250941813 0.328814859 -0.8813559173 1.508010637)
5(2.387935067 1.679103744 -0.2964573748 3.196267031 3.473058535)
5(2.971508797 2.115486752 -0.06121942225 34.98675959 -0.01027909058)
5(3.51280734 1.571582329 -0.0442229366 -0.007265434509 -0.01074681471)
5(3.9256141 1.24696854 2.025386528 -0.009537710963 3.638275739)
5(3.913046818 0.2519449177 5.089427801 -0.00867680823 0.3966126085)
5(3.013465807 0.6997170658 0.257291392 -0.009858754672 -0.01563512436)
5(1.908695348 3.515696377 24.34957477 0.2694626065 -0.01641716943)
5(4.278007106 -0.1439604722 3.685295932 -0.008931407303 -0.01746498398)
5(0.7151506609 -0.2145163857 0.2093766877 -0.007111273903 -0.0140549411)
5(-0.3462741622 1.086795233 0.003885883739 -0.008223043502 -0.007452607028)
5(4.364269442 -0.001767219901 -0.008356250162 -0.004152951363 0.02544904187)
5(14.93681562 -0.0019765242 -0.001372773303 -0.007130204543 0.01043541196)
5(2.658201297 0.02714832352 -0.006893144216 -0.01328271473 -6.815105432e-05)
5(-0.001656045305 0.01244145021 0.01414194453 0.01580881381 0.0590492239)
5(0.0009150048795 0.02785486844 0.002600984635 -0.002653472165 0.01345400589)
5(5.914902666 0.00982005138 -0.003256398076 0.02969446293 -0.0004642460091)
5(17.74670093 0.007217403927 0.00190598658 0.003790149865 -0.02233067189)
5(16.17884534 12.15679844 0.02914107715 0.03624673901 0.1562786253)
5(6.11749846 13.10401554 11.98124654 0.2561057321 2.317915604)
5(0.003437915708 0.004622431371 -0.0008308637948 0.004418174825 -0.02998900592)
)


60
(
5(-0.03581299678 -0.04850892585 -0.2092875739 -0.3130655675 -0.772555737)
5(-0.02128985717 -0.03844201804 -0.1090691412 -0.1850273573 -0.3481921789)
5(-0.01707696494 -0.03987909135 -0.07898197374 -0.1472922922 -0.2158343395)
5(-0.01850058378 -0.04907281979 -0.0820169054 -0.158077004 -0.2045505832)
5(-0.02934814443 -0.07083447647 -0.1130803856 -0.2094967696 -0.2743373534)
5(-0.04725395936 -0.1094074425 -0.1775474017 -0.3098614687 -0.4180769937)
5(-0.07447535107 -0.1700673734 -0.2705404794 -0.4711690656 -0.6215783534)
5(-0.1163324208 -0.260033835 -0.4058870901 -0.7100883082 -0.9684069408)
5(-0.1759005128 -0.390091112 -0.6064356964 -1.062375321 -1.456762607)
5(-0.2644605512 -0.5774167257 -0.8988014941 -1.5847193 -2.208233268)
5(-0.3889267979 -0.8412279353 -1.325842064 -2.330202326 -3.324896705)
5(-0.5640444862 -1.203152413 -1.930548107 -3.360780485 -4.902042463)
5(-0.8022241206 -1.69232432 -2.748746758 -4.740189203 -6.971146906)
5(-1.120306765 -2.33793268 -3.827401422 -6.55468996 -9.644689564)
5(-1.54143364 -3.179183261 -5.22622988 -8.848547615 -12.98999204)
5(-2.091676067 -4.256826912 -7.014347536 -11.70634253 -17.08288449)
5(-2.796316371 -5.60873486 -9.252839076 -15.1966238 -21.96697504)
5(-3.686130987 -7.279160955 -11.98089061 -19.32146324 -27.61287645)
5(-4.793704426 -9.285413081 -15.22779065 -24.0956753 -33.95422441)
5(-6.135679335 -11.65436527 -18.97566929 -29.43644162 -40.91670137)
5(-7.740335723 -14.39589885 -23.22530926 -35.23130426 -48.11116074)
5(-9.603129876 -17.46940962 -27.85532142 -41.35976038 -55.41329771)
5(-11.71244831 -20.81374969 -32.76310516 -47.44915037 -62.4656055)
5(-14.09264732 -24.36668198 -37.82086107 -53.29209663 -68.7625622)
5(-16.63104931 -27.97056624 -42.71728892 -58.64242773 -74.03327329)
5(-19.32022593 -31.51368434 -47.34100954 -63.18874311 -77.8911852)
5(-22.02245808 -34.75902474 -51.30930089 -66.55273628 -79.81224271)
5(-24.59471176 -37.62117565 -54.24597104 -68.28238047 -79.23528567)
5(-26.89863347 -39.78306792 -56.02760958 -68.11424714 -76.93051337)
5(-28.81861898 -40.89016996 -56.21719063 -65.96627819 -71.43475671)
5(-30.03618861 -40.77121388 -54.55289749 -61.35152224 -63.91173384)
5(-30.34848545 -39.23688426 -50.71163446 -54.5654289 -53.95853475)
5(-29.45051853 -35.80472047 -44.65274309 -45.19809425 -41.00486856)
5(-27.08946841 -30.26161215 -35.8389813 -33.6075518 -26.86098419)
5(-22.66590903 -22.66368624 -24.88521135 -19.702986 -11.59011856)
5(-16.62780094 -12.26058272 -10.73769977 -3.936933709 5.561820458)
5(-7.201868188 0.2484267972 4.476434234 13.01601015 22.50389137)
5(3.851865264 15.11260714 21.36949513 30.00340919 36.65178586)
5(17.8081067 32.74152618 39.64807867 45.6605103 50.71563084)
5(35.09126847 50.59585263 58.33419863 60.0480355 55.77003861)
5(53.77292786 69.48435287 76.15962205 70.24166121 61.65907656)
5(74.96414788 84.72372762 88.29172534 73.006349 60.1323368)
5(91.54254393 97.20283708 95.73154371 68.78386022 56.21629487)
5(106.7125957 107.7517429 98.35520165 66.51266853 48.32101542)
5(117.1421573 109.0125394 93.73397325 61.4995695 39.0379979)
5(123.1804447 105.1371942 81.4800112 53.05230174 28.45898308)
5(121.7897327 93.18393743 63.21701716 42.46310005 20.42769264)
5(111.1798305 75.46592565 49.68209167 31.82076302 15.90768871)
5(88.58790552 55.46107702 38.39925297 23.07586532 9.864624186)
5(71.70965106 33.84998732 27.90208839 15.44642836 7.065007547)
5(47.15962126 24.76579682 18.76530738 10.29423857 7.084671579)
5(28.94730147 16.8568124 12.45053708 6.062493734 2.992434413)
5(8.155174964 8.088566987 5.90931841 3.626471771 9.886526939)
5(-2.703913934 3.217138618 1.462941119 1.8684845 1.709879204)
5(-4.435148083 -3.310832252 -1.224802633 0.2847824974 1.863206137)
5(-8.397827469 -5.413613802 -2.059355245 0.004584307693 1.028844363)
5(-6.874389833 -5.233547744 -2.579974669 0.3947789401 3.825824006)
5(-6.724051282 -3.768856023 -0.9203332252 2.343238887 1.680631513)
5(0.8894686905 -1.532876929 0.248528711 -0.3425712984 7.499767573)
5(-5.418459028 -5.603312032 12.37298404 -5.452069421 -2.737885343)
)


60
(
5(-0.05847553033 -0.0980600498 -0.3587397286 -0.6327353094 -1.357487069)
5(-0.03967584006 -0.07983691286 -0.2168469787 -0.4015527364 -0.7269928879)
5(-0.03438532071 -0.07655985673 -0.1682647751 -0.3200551037 -0.5055177269)
5(-0.03877580507 -0.08940514966 -0.1720802972 -0.3207543402 -0.4400726025)
5(-0.05456160932 -0.1246525038 -0.2178462645 -0.3923259432 -0.4805783144)
5(-0.08584554296 -0.1916261377 -0.3151690521 -0.5566262461 -0.6560326991)
5(-0.1380892109 -0.3015214613 -0.4829784833 -0.8466676457 -1.051155539)
5(-0.2184382011 -0.4720700362 -0.7497008828 -1.321743202 -1.754626878)
5(-0.3391606218 -0.7283166491 -1.160037103 -2.06319121 -2.878547559)
5(-0.5164168812 -1.102456818 -1.775019405 -3.174516685 -4.610615969)
5(-0.7720396108 -1.636617613 -2.677060796 -4.77869445 -7.113289381)
5(-1.131807817 -2.379386889 -3.947669785 -6.998410462 -10.55082168)
5(-1.629284 -3.390855751 -5.6812743 -9.95703091 -15.05373051)
5(-2.298488932 -4.737872093 -7.97302225 -13.77734519 -20.72479515)
5(-3.188153989 -6.492965734 -10.93942765 -18.57584725 -27.6735552)
5(-4.345967277 -8.737415486 -14.67759828 -24.46603847 -35.97448253)
5(-5.841178867 -11.53995561 -19.30003872 -31.52112193 -45.67186876)
5(-7.718623557 -14.98157549 -24.84807777 -39.73683697 -56.59886533)
5(-10.03941932 -19.10375255 -31.3843732 -49.0711903 -68.69304663)
5(-12.84805852 -23.9278419 -38.84210531 -59.40323153 -81.64629463)
5(-16.15176959 -29.44448689 -47.16702712 -70.49161561 -95.17393389)
5(-20.0288161 -35.60499639 -56.1743709 -81.99351256 -108.6275911)
5(-24.36273252 -42.28929307 -65.67239128 -93.58657432 -121.5361178)
5(-29.1549684 -49.3068154 -75.31274774 -104.7018922 -133.2502513)
5(-34.25064723 -56.41876674 -84.71858755 -114.8400374 -143.1499687)
5(-39.58682355 -63.36501112 -93.39380298 -123.5422794 -150.1560156)
5(-44.87980631 -69.7585796 -100.8050877 -129.855278 -154.3601993)
5(-49.76511985 -75.25796209 -106.3781626 -133.3934527 -154.1501005)
5(-54.30023703 -79.30154687 -109.5402721 -133.2911319 -150.0191951)
5(-57.65605335 -81.44348734 -109.8871261 -129.3704982 -140.6613291)
5(-59.85642628 -81.31787188 -106.6074823 -120.9192957 -126.5459889)
5(-60.107494 -78.24074297 -99.15722847 -107.8077962 -107.3096971)
5(-58.09549635 -71.61310204 -87.38218178 -89.95818059 -82.78511078)
5(-53.32573593 -61.27350658 -70.94821312 -66.79939804 -53.96402374)
5(-44.93883955 -46.52864137 -49.30140396 -38.80902471 -21.17225312)
5(-31.38672425 -27.10970991 -22.86809026 -6.704097498 12.96396571)
5(-15.08095344 -2.597631194 8.372020186 28.76947127 51.20307435)
5(5.628698701 26.52779904 43.9963299 66.42888293 86.92267784)
5(31.33911488 59.48580435 83.16819974 104.7432695 122.0049707)
5(62.33678018 96.4356768 123.3663222 141.4595804 151.8666849)
5(98.45480382 135.2066373 161.7551672 173.5714275 172.7004837)
5(132.8502034 172.3563438 197.4254056 198.0873468 182.9092987)
5(169.831054 206.2599659 226.0518755 212.8275474 183.8840525)
5(201.8856682 233.2594691 244.341635 215.8922022 178.2233386)
5(228.3057452 251.5884924 250.4819146 207.311894 159.0477297)
5(243.2128725 255.5839869 241.7267402 189.6032809 138.890076)
5(246.2917357 246.8654064 221.0189818 163.7404416 117.1895409)
5(235.7387456 225.5381498 192.8202472 135.7715357 93.69505614)
5(213.6931412 195.9830185 159.7309176 109.3443641 73.3591555)
5(179.4796511 158.9348467 125.4104337 85.30369383 56.72236621)
5(140.4669522 122.6337525 93.84627578 64.61132404 41.64771817)
5(99.84285844 88.51609459 66.6124956 47.18783045 32.20697747)
5(62.37964769 57.86032172 44.75462428 33.70178572 21.84167767)
5(35.12507016 31.92613995 27.06403079 22.52532305 25.5079366)
5(6.014380519 13.97289185 14.29809118 13.53112877 11.97474833)
5(-4.766721138 0.6504439883 5.328513747 8.046613898 9.250001146)
5(-14.88949797 -7.218757415 0.02913219582 4.045986276 5.820298068)
5(-17.60276077 -10.41636504 -3.159180707 2.657478912 4.552378356)
5(-19.60385486 -13.56234674 -6.872579771 -0.8329777593 7.192269802)
5(-19.29758866 -15.78093622 -2.74779018 -11.30319476 -10.97058897)
)


60
(
5(-0.08593057659 -0.1599065635 -0.5503399023 -1.075680039 -2.152107581)
5(-0.06022227948 -0.1268639032 -0.3461868457 -0.682937933 -1.192657201)
5(-0.05186506908 -0.1147583635 -0.2662826442 -0.5179709677 -0.7877410054)
5(-0.05699052072 -0.1242114105 -0.2557902631 -0.4714390617 -0.5915235306)
5(-0.07759911416 -0.1650861986 -0.2979217446 -0.5246187792 -0.5398564496)
5(-0.1203158434 -0.251647582 -0.4143550907 -0.7192418519 -0.7216323517)
5(-0.1944921222 -0.4029571385 -0.6426322001 -1.124990531 -1.306583699)
5(-0.3128548152 -0.6474423235 -1.036500277 -1.84797366 -2.462536332)
5(-0.493606995 -1.025891478 -1.670039499 -3.023569639 -4.36760166)
5(-0.7636956565 -1.593831177 -2.644998419 -4.820813524 -7.277658744)
5(-1.158855361 -2.417613717 -4.084531904 -7.419675879 -11.43933583)
5(-1.720383835 -3.579157802 -6.126521612 -11.00334657 -17.08091881)
5(-2.499492261 -5.168451006 -8.911384501 -15.75060702 -24.34005931)
5(-3.559722412 -7.292437963 -12.58517361 -21.82835414 -33.31633016)
5(-4.974026659 -10.05951424 -17.30079261 -29.37122438 -44.19353061)
5(-6.822492875 -13.5854408 -23.20671379 -38.51036248 -56.96744718)
5(-9.185696245 -17.98568037 -30.42228065 -49.34289785 -71.66718667)
5(-12.16627531 -23.35071686 -39.02191795 -61.82413848 -88.17881268)
5(-15.82458268 -29.74727527 -49.03942388 -75.9439681 -106.1702459)
5(-20.23660808 -37.19944029 -60.41532498 -91.43117075 -125.4600332)
5(-25.45161534 -45.69660789 -73.06150092 -108.0686771 -145.4806639)
5(-31.44780475 -55.15756842 -86.69088404 -125.3596763 -165.5196714)
5(-38.20156783 -65.38217391 -101.029528 -142.8550724 -184.9193193)
5(-45.66102819 -76.16864756 -115.6032431 -159.8571481 -202.8394616)
5(-53.65079076 -87.21215776 -129.9769172 -175.6455694 -218.8528346)
5(-61.89876646 -98.11618915 -143.4541061 -189.4157297 -230.8739382)
5(-70.17016777 -108.3160077 -155.3453525 -200.3549269 -238.6003502)
5(-78.09335936 -117.3189277 -164.7560451 -207.392356 -241.636226)
5(-85.25103411 -124.5307813 -171.0099309 -209.7048 -237.2873709)
5(-91.10457415 -129.1869231 -173.2551417 -206.5824612 -227.8825813)
5(-95.07046688 -130.5596564 -170.5969771 -197.1557537 -209.5230376)
5(-96.61625349 -127.9812429 -162.2103107 -180.9123673 -184.9307278)
5(-94.97788348 -120.6722649 -147.7277145 -157.5617123 -151.6755791)
5(-89.41394208 -108.0381333 -126.3040972 -126.2793611 -111.6245938)
5(-79.34199509 -89.34661988 -97.60785582 -87.6905051 -62.74369354)
5(-63.8091424 -64.12508106 -61.09572038 -42.19882221 -10.46357739)
5(-42.49199418 -31.45769469 -17.02142022 10.12677833 47.15576051)
5(-15.04445867 8.166988881 34.26701863 67.86539572 110.7345725)
5(19.09635636 54.82542727 91.27384177 129.1934049 169.0818515)
5(60.23750939 107.5796659 151.8991722 191.7685294 230.2384794)
5(106.9840497 163.3975474 215.017068 251.3821208 273.7436656)
5(157.6599643 220.9344534 276.1746717 303.0563773 307.890471)
5(209.677789 276.9327199 330.4692282 342.4162734 330.4662572)
5(259.2445094 326.9332828 373.1814189 366.5358453 336.183643)
5(301.0145431 364.7744973 399.409901 372.4421519 326.8634533)
5(331.3336255 386.9511788 406.3641985 360.7229499 297.4992401)
5(348.0769851 391.5795506 391.8339996 333.3956381 264.9131788)
5(344.0517748 374.1517381 362.2167985 293.4062075 230.1485494)
5(333.0024937 338.3334968 316.3648187 248.3266594 186.3828934)
5(287.6838366 291.5217364 261.3566593 202.6728455 155.8581821)
5(240.0535965 238.2328872 207.4917048 161.4415424 127.2242365)
5(193.586597 180.5038257 156.473604 121.1309033 87.44364319)
5(133.7264029 125.4659519 111.565869 88.24755099 69.14651768)
5(82.40602201 76.47459683 73.46284666 60.55732089 55.64358584)
5(28.47107199 37.18121995 42.58091306 38.69317264 38.26654713)
5(2.646786654 5.863055758 18.42181903 23.93952033 21.37751386)
5(-28.98862151 -13.99225337 0.6726106483 8.914586346 12.93426241)
5(-44.39700402 -28.33737552 -10.13513236 1.414920282 6.735512729)
5(-48.80990123 -36.05475407 -20.8523924 -5.332934736 -0.03340070498)
5(-42.766335 34.651126 -30.24871036 280.1906322 207.5274297)
)


60
(
5(-0.1193477183 -0.2375183211 -0.7959918657 -1.675208061 -3.203050489)
5(-0.08382897883 -0.1832411919 -0.5084455102 -1.047617993 -1.764858751)
5(-0.07070747596 -0.1552891898 -0.3744635961 -0.7433047343 -1.064677226)
5(-0.07387068263 -0.1512356255 -0.3265813632 -0.5982361553 -0.6396772588)
5(-0.09600618283 -0.1853349288 -0.340593442 -0.5823723529 -0.4225485273)
5(-0.1454070706 -0.277684587 -0.4499452158 -0.7654302202 -0.5731986451)
5(-0.23565303 -0.4547381826 -0.7159179543 -1.261002029 -1.351580378)
5(-0.385008817 -0.758519207 -1.221925484 -2.227761832 -3.01156513)
5(-0.6208851215 -1.248805329 -2.077718398 -3.858531354 -5.788385436)
5(-0.9804594048 -2.002378281 -3.427993466 -6.387872879 -10.01815175)
5(-1.513422159 -3.119650611 -5.445996017 -10.05486426 -15.99274337)
5(-2.280306543 -4.708838298 -8.316308093 -15.09661279 -23.97983744)
5(-3.357249992 -6.898797787 -12.22749551 -21.71941647 -34.11935069)
5(-4.82174798 -9.831857142 -17.35650633 -30.12790549 -46.56773609)
5(-6.787244634 -13.65036245 -23.89788216 -40.48421284 -61.38341251)
5(-9.356625514 -18.50394961 -32.01397857 -52.93642632 -78.65760385)
5(-12.64439366 -24.52766483 -41.88463209 -67.5442976 -98.37071559)
5(-16.75653238 -31.8537791 -53.57467013 -84.28613054 -120.3257126)
5(-21.8128201 -40.55625164 -67.08389054 -103.1578154 -144.2898677)
5(-27.87690993 -50.66170735 -82.39862233 -123.8429302 -169.8634027)
5(-35.00866349 -62.14360453 -99.35890632 -146.0384826 -196.5364129)
5(-43.26508549 -74.91787619 -117.6642729 -169.23264 -223.4311408)
5(-52.4778057 -88.78158133 -136.9126797 -192.7473746 -249.908599)
5(-62.65103335 -103.4977947 -156.6699891 -215.8691576 -274.9836071)
5(-73.57594133 -118.6662161 -176.3144667 -237.8326443 -297.1718144)
5(-84.94410326 -133.7061497 -195.0700623 -257.6057756 -315.6319835)
5(-96.4744206 -148.0919972 -211.996061 -274.0901468 -329.3759944)
5(-107.6139458 -161.1313987 -226.0816409 -286.0758697 -336.6624736)
5(-118.0546628 -172.0575459 -236.4445224 -292.6018538 -336.2242265)
5(-126.6968286 -180.1479255 -242.0336263 -292.3318339 -327.4087143)
5(-133.4699025 -184.5029107 -241.7601454 -284.3921039 -309.4514029)
5(-137.4086662 -183.913895 -234.582141 -268.089261 -280.4756653)
5(-137.4616302 -177.7421595 -219.7548013 -242.4645543 -243.6944415)
5(-133.0192884 -164.9794978 -196.5410324 -206.723316 -194.4839179)
5(-122.9437171 -144.976077 -163.5593618 -160.7202984 -135.1908356)
5(-106.7399238 -116.7827916 -120.7682257 -104.2441002 -66.52430364)
5(-83.7398437 -79.30718863 -68.19178185 -37.77484308 10.33884535)
5(-52.68427556 -32.90452308 -5.523361632 37.12428432 93.5070648)
5(-14.36357048 21.97972825 66.30736598 119.396192 182.1072064)
5(31.85828183 85.63384669 146.400038 206.5953854 267.3561843)
5(84.28986447 156.0851461 231.4300734 293.8243843 347.8835635)
5(143.2147368 231.5162067 317.3626096 376.4373097 422.2380585)
5(205.8288038 307.8335911 399.4510946 447.96512 468.7445326)
5(267.7356042 378.7006332 470.5068224 503.198295 500.2737001)
5(324.6045951 439.9036098 522.7052799 536.2511749 507.2317847)
5(365.9894084 484.0208365 553.6188194 544.4647839 497.2448235)
5(397.7585953 504.1990638 558.3967619 528.9089877 464.2938165)
5(409.0246159 500.5565272 535.3517716 491.0478715 415.8223342)
5(401.7416223 471.8388824 489.2710605 434.4840892 359.6415051)
5(376.0997988 425.4292162 426.5753618 372.8203507 298.7240625)
5(334.9808297 363.2036811 353.7466344 307.7493115 240.1152094)
5(282.2700419 290.4978295 278.3025672 245.0924529 188.338342)
5(218.1086471 216.8255549 206.98679 184.030516 165.4652448)
5(158.2467546 145.6729103 139.2667638 130.2515071 103.1781323)
5(93.97312784 79.34512683 81.30916857 83.75338907 71.57247925)
5(37.76780919 22.51147645 34.08050712 46.17163619 49.54716423)
5(-12.46920802 -20.46927405 -5.694523823 16.74727747 26.48321154)
5(-51.20453857 -51.82983222 -29.43990828 -5.163104904 10.45073338)
5(-68.2860909 -64.80508689 -47.92670622 -25.38688082 3.216453603)
5(-54.54646776 -58.39092148 -57.1177845 -42.69477421 -34.41475526)
)


60
(
5(-0.159921809 -0.3346140253 -1.105951155 -2.460606437 -4.549663872)
5(-0.1115669174 -0.250847295 -0.7078245881 -1.509610093 -2.458505608)
5(-0.09099534292 -0.198534202 -0.4943254298 -0.9992907836 -1.337086335)
5(-0.08941181555 -0.1695675009 -0.3813125915 -0.6964818236 -0.5800393665)
5(-0.1082921829 -0.1825501436 -0.3365987165 -0.5582959588 -0.1230378098)
5(-0.1576005969 -0.2635249377 -0.4095652316 -0.6864202276 -0.2087376822)
5(-0.2559506485 -0.4486745671 -0.687674357 -1.242259144 -1.180569999)
5(-0.4281743535 -0.7942534247 -1.290491484 -2.442561559 -3.380449526)
5(-0.7102971624 -1.381981419 -2.362912557 -4.540609019 -7.097564254)
5(-1.151998581 -2.315909154 -4.098562905 -7.827925657 -12.72023029)
5(-1.817767113 -3.719556141 -6.710523347 -12.59815338 -20.58795329)
5(-2.792576574 -5.742597677 -10.43694364 -19.13033414 -30.98985775)
5(-4.166826871 -8.542282549 -15.49760583 -27.66454975 -44.05897394)
5(-6.06049908 -12.29076427 -22.11990786 -38.42497575 -59.96744195)
5(-8.584819926 -17.17372664 -30.51611072 -51.59108189 -78.73322627)
5(-11.88713528 -23.35960539 -40.88650234 -67.30823002 -100.5181901)
5(-16.11151888 -31.02099156 -53.38668494 -85.6343288 -125.1069104)
5(-21.39157962 -40.28552586 -68.09897587 -106.6090629 -152.478581)
5(-27.85567444 -51.2608626 -85.08516571 -130.0817752 -182.3267592)
5(-35.57443979 -63.98594445 -104.2468613 -155.846362 -214.1889324)
5(-44.66808426 -78.44301266 -125.4305697 -183.5097121 -247.5570837)
5(-55.08269472 -94.51474353 -148.3476017 -212.4970175 -281.395148)
5(-66.82504915 -112.0094292 -172.5748434 -242.1724576 -315.0946875)
5(-79.72043445 -130.6075698 -197.5742051 -271.7619346 -347.5009215)
5(-93.66816942 -149.8798901 -222.6366819 -300.2741351 -377.4957436)
5(-108.203356 -169.3207842 -246.8813961 -326.5568517 -403.0029446)
5(-123.0657698 -188.1548202 -269.2729492 -349.4164037 -423.2330161)
5(-137.6568385 -205.7256433 -288.884992 -367.4284991 -436.4804115)
5(-151.6906901 -221.1093474 -304.4271965 -379.3553669 -441.5443293)
5(-163.9329167 -233.4287289 -314.7090323 -383.9426809 -437.0455265)
5(-174.0745883 -241.5083252 -318.5384434 -379.818588 -421.3893427)
5(-180.9785709 -244.4586439 -314.8284117 -365.7460509 -393.7366322)
5(-184.048638 -241.3556808 -302.2167484 -340.6849605 -353.6309246)
5(-182.2345213 -230.7555431 -279.4557634 -303.7748206 -302.5191405)
5(-174.7549498 -211.8029561 -245.6853304 -254.18548 -234.345701)
5(-160.3054751 -183.5748665 -200.2812174 -191.6357066 -153.7218046)
5(-137.9396129 -145.4736103 -142.8865614 -116.5503226 -61.96735217)
5(-108.183581 -97.14699534 -72.85222825 -28.92579849 40.21746626)
5(-69.79710876 -37.62122039 9.170690069 69.66161523 152.7808404)
5(-24.01059056 32.85425283 101.8086011 176.692963 267.2167912)
5(29.86108115 111.9088665 203.5994011 288.579036 379.7135215)
5(90.78879083 198.0443127 310.5303824 400.7607521 485.6088044)
5(154.2455663 287.3228025 417.5508466 505.7885976 574.7630286)
5(220.1670538 373.3827167 515.0302022 596.0499015 643.7980101)
5(283.0103284 452.2270128 596.3225645 664.2114012 687.8357945)
5(336.4891517 515.6445926 655.6441348 703.538475 698.2261386)
5(378.3122436 556.5027057 686.2963691 710.8087249 684.7228385)
5(410.6791362 571.2929054 683.0377205 688.1170408 642.6879572)
5(426.3313394 560.4477749 648.3195807 637.1750395 574.5952821)
5(418.433811 528.4600131 586.431084 565.0261992 493.4439866)
5(395.566934 472.4792732 505.4139391 483.2603923 427.1759181)
5(359.6194796 408.6949708 414.0650386 397.2893805 340.4882667)
5(301.7604559 322.7584563 324.1214369 308.2016789 266.4866854)
5(242.6860002 241.9274776 228.8763966 229.7865114 198.3774871)
5(180.1419748 163.5300621 140.7138256 149.2672162 139.6345087)
5(121.450631 83.94153237 58.60434333 80.41729729 115.2727581)
5(59.70351233 21.46436595 -1.064131121 23.78556959 42.76166076)
5(21.82247956 -37.88188848 -48.20283065 -17.76891386 15.01763609)
5(-26.8384325 -68.87152137 -77.02042856 -55.2879113 -11.31619635)
5(-3.499314034 -50.21545545 -101.0785458 -65.48664077 -53.87333415)
)


60
(
5(-0.2089286299 -0.453573016 -1.490446225 -3.458098627 -6.224922661)
5(-0.1441222371 -0.3313302917 -0.9485299278 -2.085124563 -3.296706337)
5(-0.1132859644 -0.2460076562 -0.6258863287 -1.294043841 -1.614033254)
5(-0.1030785073 -0.1779315122 -0.4157866579 -0.7679449097 -0.4341136484)
5(-0.1131129954 -0.1528045286 -0.2803705992 -0.4528384078 0.3312457579)
5(-0.1548029079 -0.2051724906 -0.2856670689 -0.4809589612 0.3490302469)
5(-0.2519574138 -0.3812451776 -0.5508081617 -1.065453292 -0.8109662985)
5(-0.4374136718 -0.7516462854 -1.229882094 -2.478902061 -3.55098209)
5(-0.7580551534 -1.424536364 -2.512810775 -5.037703603 -8.230018957)
5(-1.274767157 -2.527966883 -4.63018777 -9.088571656 -15.25901848)
5(-2.074002345 -4.220817932 -7.850268991 -14.96362885 -25.04421361)
5(-3.254926736 -6.678764075 -12.44465377 -22.98126496 -37.84703884)
5(-4.939880102 -10.09494168 -18.67116549 -33.40931444 -53.82674188)
5(-7.26230507 -14.68166435 -26.78468307 -46.47991846 -73.10018638)
5(-10.37546691 -20.63641025 -37.01635582 -62.37850187 -95.75998823)
5(-14.44378983 -28.16339703 -49.58770971 -81.25995132 -121.818092)
5(-19.62493082 -37.43739789 -64.66538129 -103.1946122 -151.2425274)
5(-26.09765894 -48.63708564 -82.34865634 -128.2018307 -183.8521607)
5(-33.97073473 -61.87559455 -102.684863 -156.1412123 -219.4114768)
5(-43.39428947 -77.18835053 -125.5685016 -186.7983612 -257.3863485)
5(-54.42771018 -94.57394297 -150.8907016 -219.780723 -297.2500066)
5(-67.06581573 -113.8646346 -178.2970159 -254.5105369 -338.1789285)
5(-81.31193801 -134.9347037 -207.3996994 -290.3323585 -379.0369018)
5(-97.05244762 -157.4527217 -237.559411 -326.33139 -418.9858052)
5(-113.8862838 -180.8950613 -268.0559433 -361.6430005 -456.3362847)
5(-131.7947379 -204.6295998 -298.0215938 -395.0212969 -490.4944392)
5(-150.1740708 -228.1279299 -326.3942025 -424.9549655 -518.311571)
5(-168.7068821 -250.5297037 -352.082653 -449.9653261 -538.8457503)
5(-186.4351019 -270.8514685 -373.4365546 -468.7169579 -551.3851894)
5(-202.1941686 -287.9553112 -389.3045706 -479.7887398 -552.203229)
5(-216.1257591 -300.9516337 -398.5120089 -481.1587935 -542.946567)
5(-227.3744244 -308.6998447 -399.6227936 -471.6692196 -520.7568237)
5(-234.3750536 -309.7394859 -391.1947437 -450.2759149 -480.558334)
5(-236.0334498 -302.990059 -371.9507105 -415.687141 -427.1218697)
5(-232.0127963 -287.3746174 -340.9780396 -366.8418509 -358.530148)
5(-221.6327309 -261.9539519 -296.6522665 -303.2385236 -272.6009844)
5(-203.7418866 -226.153327 -238.4885128 -224.3313644 -170.8526868)
5(-177.905747 -178.7868902 -166.3167129 -129.401366 -53.22606929)
5(-144.4389416 -119.8962662 -80.09046772 -19.44540093 74.60019301)
5(-102.6062268 -50.00303587 19.87581872 102.5037593 215.0451679)
5(-54.66068867 30.10598468 132.1247752 233.652597 360.1687402)
5(-0.4369447644 118.6062186 252.6958836 370.3057288 500.6097396)
5(57.68723403 212.4572351 374.791145 504.8772717 633.0986273)
5(118.5791287 306.0976979 493.5837362 629.6673988 740.089948)
5(181.0847553 393.9108463 600.6511443 735.1570641 829.1181997)
5(240.9516105 470.5687156 686.4064828 810.8777641 871.4838036)
5(295.4656473 530.3784229 742.6579331 851.5927161 891.4472676)
5(339.9900735 566.4241532 763.5190268 855.2797087 859.8333035)
5(379.3827613 579.8920742 750.7245997 820.9140788 815.0610562)
5(400.9199411 569.5908665 705.402193 756.71135 729.3796292)
5(400.5601486 536.1462819 634.6927178 669.6817016 630.3644619)
5(387.0454131 482.7383052 546.9139306 570.7655689 529.2921702)
5(359.3909254 413.4318205 455.7628306 456.9030308 426.0871659)
5(318.8796337 342.8709164 345.7922007 349.0130276 341.3454621)
5(268.1475971 270.5715684 252.0070583 234.6357284 245.4512073)
5(212.8485 190.7090484 149.9277266 129.0640285 140.1719846)
5(162.513233 118.9497462 52.245524 42.47113139 89.29367698)
5(112.7223965 51.21535492 -16.61587081 -28.86349331 4.788191419)
5(75.90898977 7.338968281 -65.85169377 -72.23061075 -57.42774291)
5(92.59099494 70.5907143 71.16337969 -67.54633629 -70.76351799)
)


60
(
5(-0.2673517659 -0.5970877742 -1.954163048 -4.681572365 -8.262785431)
5(-0.1820041399 -0.4262506218 -1.235354966 -2.780818558 -4.296117473)
5(-0.1373175697 -0.2972962282 -0.7695476793 -1.630018671 -1.913281989)
5(-0.1140765982 -0.1747284396 -0.4260733196 -0.8121643549 -0.1947366366)
5(-0.1091197604 -0.09348759325 -0.1656257264 -0.2624609026 0.9379591252)
5(-0.1335124795 -0.09950362813 -0.07412270459 -0.147328394 1.102742307)
5(-0.2204150838 -0.2489837666 -0.303055985 -0.7353870908 -0.2319398527)
5(-0.4105877883 -0.6308527603 -1.045861685 -2.346213905 -3.502668886)
5(-0.7597807339 -1.37752621 -2.53237913 -5.360594777 -9.141038471)
5(-1.349051893 -2.648234048 -5.035850248 -10.16209476 -17.59260077)
5(-2.276763802 -4.633800689 -8.877673957 -17.1511185 -29.26431829)
5(-3.673828883 -7.542279334 -14.35061347 -26.64325292 -44.445602)