/*--------------------------------*- C++ -*----------------------------------*\
| =========                 |                                                 |
| \\      /  F ield         | OpenFOAM: The Open Source CFD Toolbox           |
|  \\    /   O peration     | Version:  2.3.1                                 |
|   \\  /    A nd           | Web:      www.OpenFOAM.org                      |
|    \\/     M anipulation  |                                                 |
\*---------------------------------------------------------------------------*/
FoamFile
{
    version     2.0;
    format      ascii;
    class       dictionary;
    location    "constant";
    object      la_r20;
}
// * * * * * * * * * * * * * * * * * * * * * * * * * * * * * * * * * * * * * //

la_r20_table
60
(

60
(
5(-0.05729446047 -0.01539988265 -0.1310722009 -0.106093874 -0.1772797921)
5(-0.01235694187 -0.005740228859 -0.04333858286 -0.03540792068 0.03064478166)
5(-0.01207092555 -0.007617548117 -0.01476784356 -0.01040417874 -7.915849536e-05)
5(0.9216021208 -0.0075051094 -0.01351734387 -0.002902434098 -0.00599714893)
5(0.8799953777 -0.006882074019 -0.01218235096 -0.00804726912 -0.00609518191)
5(0.2351562895 -0.006610643035 -0.004884235757 -0.008559547141 -0.005225253139)
5(-0.006800437809 -0.006499429569 -0.005617757105 -0.005835569057 -0.01111670115)
5(-0.00452244349 -0.007143134529 -0.01018232205 -0.008425421711 -0.003901945349)
5(-0.05310676048 -0.008885028373 -0.009911701097 -0.01085157939 -0.007451903544)
5(-0.2341479624 -0.007792382503 -0.01586653259 -0.0121277998 -0.01088709188)
5(-0.3397832827 -0.01029873831 -0.02045899671 -0.01529270937 -0.01416975988)
5(-0.07024294283 -0.01687185282 -0.0213236857 -0.0191725554 -0.01514801834)
5(-0.0127795296 -0.02118507702 -0.02435792147 -0.02616905778 -0.0207314531)
5(-0.01833180628 -0.02670736694 -0.03112698749 -0.0290325906 -0.02434665129)
5(-0.02023154393 -0.03117115243 -0.03628771072 -0.03811563223 -0.03049981197)
5(-0.03322626724 -0.04840688299 -0.04871391844 -0.0492884106 -0.03853213207)
5(-0.04137482421 -0.0558100315 -0.06121212158 -0.05853449814 -0.04875339216)
5(-0.04148846597 -0.06206170314 -0.06658968697 -0.07085917301 -0.05982724697)
5(-0.04265228863 -0.06655299763 -0.07758923131 -0.08103702569 -0.07485540964)
5(-0.0513367644 -0.07530635387 -0.09203874196 -0.0979160784 -0.08339837179)
5(-0.05783581669 -0.08208204666 -0.09869748315 -0.1066935861 -0.08487407864)
5(-0.06436894249 -0.08716571581 -0.1115179162 -0.0994528284 -0.08009457946)
5(-0.07183989508 -0.09227654926 -0.1140797561 -0.1059186669 -0.08274075311)
5(-0.0735228774 -0.09544117723 -0.1115971397 -0.1025980599 -0.07712666361)
5(-0.0763427565 -0.1021347828 -0.105083951 -0.09339996723 -0.06701735929)
5(-0.07233168542 -0.1106659293 -0.09327296488 -0.07730358107 -0.05013194962)
5(-0.06210022932 -0.08937576857 -0.07263191877 -0.05182886396 -0.02863630874)
5(-0.04818330458 -0.04453135922 -0.04358542357 -0.02357956476 -0.006858520534)
5(-0.02720590442 -0.01944433433 -0.01887746221 0.001466653212 0.01423097477)
5(-0.003727290544 0.008434011369 0.004261182024 0.01703044882 0.02795927206)
5(0.02268237708 0.02907725402 0.02634706216 0.02530234644 0.03012320937)
5(0.03619804785 0.02368886077 0.01198843515 -0.007665792689 0.006513031794)
5(0.02977922209 -0.008257769893 -0.02357585073 -0.04929153717 -0.01267076048)
5(-0.0123351245 -0.09787354678 -0.1224409041 -0.1415593992 -0.06880874596)
5(-0.1227289104 -0.2722740477 -0.2922328541 -0.2666510263 -0.1002784102)
5(-0.3285502824 -0.5733565789 -0.6162587229 -0.4390067928 -0.1595278706)
5(-0.673032001 -0.9292646087 -0.8261408909 -0.5408456779 -0.2364500679)
5(-1.158254043 -1.478088621 -1.146542979 -0.7136016209 -0.1055556532)
5(-1.831655549 -2.009738772 -1.534724766 -0.7082949445 -0.229869688)
5(-2.738508812 -2.566809064 -1.939657587 -0.7404135362 0.005144503773)
5(-3.54933905 -2.738111326 -1.658949229 -0.5721338167 0.004925885927)
5(-4.070496957 -2.759238224 -1.384435476 -0.4116240354 3.33945309e-06)
5(-4.36339539 -2.23487402 -0.8807812484 5.348936547e-06 1.177693454e-05)
5(-4.291461765 -1.886155248 -1.05191465 5.636734784e-06 -0.3792680008)
5(-3.741305939 -1.160215259 -0.4886258573 3.724421465e-06 -0.09626747859)
5(-2.560066103 -0.6855929902 -0.08847140875 3.322455068e-06 2.326464245e-06)
5(-1.496318662 -0.2643558902 -0.06123501237 -0.09638830417 9.575673466e-07)
5(-1.048038259 -0.01745645791 -0.01527720399 6.669436806e-07 2.200614126e-07)
5(-0.2730313218 -0.003300696249 -0.003514585057 1.271191955e-07 3.764688653e-08)
5(-0.07006954481 -0.0005722826259 -3.298083743e-08 3.51502253e-08 4.862924222e-09)
5(-0.02320925891 -3.021632816e-08 7.727183552e-08 5.455593025e-09 1.541814715e-10)
5(-0.007527514444 1.705394525e-08 5.593385834e-09 8.776234376e-10 2.275459913e-11)
5(-0.0001008427625 -6.837896849e-08 1.201455603e-09 7.629097008e-11 8.211298357e-13)
5(9.657307563e-09 -2.396326962e-09 -4.095294667e-11 -3.530982327e-13 4.419639486e-15)
5(-4.993062351e-10 -2.585538189e-10 1.023246297e-12 9.435372136e-14 1.092912227e-16)
5(-7.648973188e-08 -8.244886014e-13 3.803985357e-14 -1.243034279e-15 7.451467745e-19)
5(-4.746522077e-09 -1.330181196e-15 3.847947592e-16 6.069083523e-17 1.862231585e-21)
5(-3.208693808e-11 -2.223879259e-13 -1.149782945e-17 -1.884330161e-18 8.21229625e-25)
5(-1.14625568e-14 1.290328852e-14 1.409247813e-14 -7.85245455e-19 2.427738493e-26)
5(1.638919086e-24 8.211927204e-26 9.145050824e-30 9.275886337e-31 1.831194376e-28)
)


60
(
5(-0.09932552992 -0.1092239582 -0.2707020411 -0.283618249 -0.4122538332)
5(-0.06000303777 -0.08632624203 -0.1499092701 -0.1727466905 -0.2096515463)
5(-0.04967288048 -0.06244276434 -0.09954557097 -0.1225315735 -0.1294175468)
5(-0.03862511203 -0.04816217258 -0.0717567698 -0.09821398604 -0.07682016677)
5(-0.03715754594 -0.04115034354 -0.06083848243 -0.07421359788 -0.06574347262)
5(-0.02742725229 -0.03637862409 -0.06419662602 -0.0585415681 -0.05190105424)
5(-0.01675946618 -0.0323198526 -0.05296657544 -0.05003084246 -0.01360567164)
5(-0.01879156025 -0.02858170991 -0.03830068992 -0.03692865087 -0.01325753255)
5(-0.01755659267 -0.02550504132 -0.0353241227 -0.02856443017 0.01019678018)
5(-0.02117200165 -0.02474004787 -0.02855659646 -0.02879641031 0.02632747394)
5(-0.02176965689 -0.02763866536 -0.03052293642 -0.03058897575 0.034565718)
5(-0.01874662798 -0.0320641625 -0.04174022927 -0.03656432099 0.03236285397)
5(-0.01824586399 -0.03926951224 -0.05348261213 -0.04245887487 0.03674476511)
5(-0.01857502495 -0.04779542184 -0.06551927995 -0.0631515797 0.02983341668)
5(-0.02741918754 -0.0602576421 -0.0828841057 -0.07414306601 0.02441118874)
5(-0.03348140908 -0.07049059492 -0.09597544152 -0.08533748908 0.02590152071)
5(-0.03515025574 -0.07404589409 -0.1051501388 -0.08668947643 0.04426688906)
5(-0.02981307612 -0.06544205021 -0.09825901077 -0.06379609644 0.08164015976)
5(-0.01375149229 -0.03419268694 -0.0681094251 -0.01525035902 0.1541073613)
5(0.02639347535 0.03473536036 0.006465612551 0.09607222287 0.275187337)
5(0.09238318086 0.1353042715 0.1221307962 0.2581901911 0.4685986862)
5(0.2040177691 0.3028222278 0.3225855969 0.4756361509 0.727472532)
5(0.3802092418 0.5559295338 0.6109924971 0.844026682 1.120165195)
5(0.6197494379 0.9173325381 1.014949662 1.308414222 1.596357017)
5(0.9686363018 1.388035302 1.555183306 1.913332674 2.198458677)
5(1.423376765 1.988987112 2.251836574 2.653337991 2.88332342)
5(2.017445409 2.732125587 3.050042527 3.491618824 3.645509834)
5(2.75036114 3.6237798 4.012823987 4.403928359 4.439641047)
5(3.65843444 4.644527102 5.035342399 5.318332255 5.185120227)
5(4.686275017 5.756588435 6.08139682 6.132186778 5.787979186)
5(5.833104115 6.869124943 7.069239885 6.79713505 6.133809498)
5(6.996859599 7.822987872 7.750917168 6.993902948 5.962447767)
5(8.0547368 8.471173609 7.978499968 6.620770372 5.328896856)
5(8.820786194 8.537300902 7.443782122 5.347802208 3.714042838)
5(9.022814702 7.629112592 5.71905801 2.94503832 1.205865171)
5(8.220297783 5.448971691 2.621338817 -0.7897740825 -2.28356811)
5(6.066604886 1.465605643 -2.4066426 -5.921319942 -6.648714713)
5(1.991804342 -4.447610354 -9.134782095 -12.16056656 -11.63220952)
5(-4.315049627 -12.35738975 -17.3347359 -19.03761325 -16.18526025)
5(-12.89513851 -21.96229141 -26.24348187 -25.44650277 -19.70078092)
5(-23.5446868 -32.18250948 -34.58483599 -30.27798303 -20.71781963)
5(-35.2016384 -41.92699411 -40.95895416 -32.2142871 -19.18108253)
5(-46.49586129 -49.01543381 -43.80624994 -30.40599085 -15.618969)
5(-55.08282879 -51.71848739 -42.26740771 -25.20137898 -11.02324138)
5(-59.09486361 -49.57849843 -36.42338036 -18.06714434 -6.621289528)
5(-57.10322727 -42.71771828 -27.60656017 -11.07603991 -3.272371838)
5(-49.58992231 -32.52972808 -17.74187182 -5.696766548 -1.281710637)
5(-37.93082062 -21.48524266 -9.452817828 -2.368772984 -0.3833726248)
5(-25.471774 -11.97473101 -4.042552619 -0.7639749008 -0.084226581)
5(-14.05883134 -5.328892816 -1.373210647 -0.1751657826 -0.01364734788)
5(-6.451118097 -1.826419384 -0.3289154548 -0.02952058754 -0.001393421129)
5(-2.160606301 -0.4560242713 -0.0567936326 -0.003330834072 -8.934123502e-05)
5(-0.5710023642 -0.07949968631 -0.006865081235 -0.0002431236982 -3.197046953e-06)
5(-0.08705976242 -0.007934041674 -0.0004202387772 -1.057571144e-05 -5.002018054e-08)
5(-0.00776796217 -0.0004954887254 -1.368664392e-05 -4.66964522e-07 1.958944286e-10)
5(-0.0002641511904 -9.249925956e-06 -2.46787045e-07 -2.474529733e-08 9.463765667e-12)
5(-3.626860982e-06 -5.13563664e-08 -4.614586676e-09 -7.715346712e-10 1.676125779e-13)
5(-1.325020647e-08 -5.731995733e-10 -1.164203125e-10 -1.127897223e-11 1.735089682e-15)
5(5.458645492e-12 -1.092799674e-10 -1.412043902e-10 3.378640082e-13 -1.065864543e-16)
5(7.723965129e-15 -5.091550756e-15 2.513626052e-12 -1.576869981e-16 -4.341399508e-27)
)


60
(
5(-0.1307116247 -0.1661674433 -0.369164363 -0.4140574988 -0.4972249223)
5(-0.07627012745 -0.1085116939 -0.2123650758 -0.2471375115 -0.2814953619)
5(-0.04383561052 -0.06334177665 -0.1321293886 -0.1446371276 -0.1491181652)
5(-0.01970406762 -0.02567320268 -0.07165074676 -0.06049429789 -0.03734995226)
5(0.003512545796 0.01008027453 -0.0140531742 0.02277568821 0.08094107721)
5(0.02998189525 0.04739056781 0.04891740191 0.1086322792 0.2176345067)
5(0.05750523601 0.08672695556 0.1107682231 0.1942949385 0.3434957164)
5(0.08519053443 0.1273771021 0.1695333828 0.2770868416 0.4565352303)
5(0.1139055383 0.1706794902 0.2277754052 0.359665201 0.5668463826)
5(0.1479825359 0.2185458045 0.2910979224 0.4488724806 0.6834309007)
5(0.1861162696 0.2723012713 0.3619668673 0.5451764304 0.8102455192)
5(0.2322990748 0.3326210109 0.4417757165 0.6474627139 0.9437989354)
5(0.2831020156 0.4008904869 0.5295064956 0.7564139615 1.076592914)
5(0.3419535842 0.4803647753 0.6263783642 0.8759798622 1.214544355)
5(0.4134793969 0.5749192668 0.7383174838 1.011944179 1.369403062)
5(0.5038859479 0.6939856605 0.8757418398 1.176463648 1.552512011)
5(0.6148527481 0.8455643341 1.051200791 1.386240738 1.783423319)
5(0.759516309 1.044078277 1.279918659 1.661377331 2.085454722)
5(0.952821663 1.306091984 1.584302972 2.025825133 2.486058999)
5(1.208118383 1.655450628 1.988773354 2.51007395 3.013948942)
5(1.550046493 2.116937585 2.526772665 3.144233899 3.691537515)
5(2.001417084 2.723039692 3.228644619 3.959973582 4.554082685)
5(2.589421277 3.505750272 4.134291548 4.987684788 5.619692388)
5(3.354139231 4.502835244 5.274968863 6.244234918 6.897498761)
5(4.324736333 5.741676214 6.677518755 7.757529248 8.38793513)
5(5.538447929 7.251932661 8.362703217 9.523668574 10.08359498)
5(7.025561929 9.047363465 10.32452705 11.51384035 11.92215467)
5(8.814641835 11.13501698 12.54891645 13.6747008 13.83124698)
5(10.89881344 13.47906166 14.9600363 15.893589 15.70323036)
5(13.28250349 16.01289964 17.45443062 18.03566936 17.35448039)
5(15.88448575 18.62101006 19.85756532 19.86521883 18.5528408)
5(18.61482799 21.09388131 21.88817859 21.07875174 18.97984727)
5(21.27396934 23.14027981 23.19338414 21.26518047 18.2737315)
5(23.55672886 24.34863404 23.25834442 19.95841018 16.00486027)
5(25.06262369 24.1737997 21.49327309 16.5864774 11.74595034)
5(25.27412698 21.94749003 17.24401672 10.64636092 5.215253993)
5(23.38557364 17.01059792 9.881746916 1.807649278 -3.601045004)
5(18.62857558 8.695332284 -0.9609453978 -9.95359583 -14.46258018)
5(10.39564252 -3.402990372 -15.27173528 -24.08348339 -26.31473228)
5(-1.791420582 -19.07886673 -32.27830831 -39.25282208 -37.38881231)
5(-17.82325641 -37.6037958 -50.46127924 -53.48750535 -45.68224901)
5(-37.16175617 -57.19528883 -67.30815005 -64.24116631 -49.17144466)
5(-57.64916656 -75.01125435 -79.98572389 -68.92299727 -47.33629096)
5(-76.59142224 -87.99772745 -85.69155312 -65.95246088 -40.64768032)
5(-90.66828589 -93.22567877 -82.71594227 -56.33864099 -30.80292825)
5(-96.63687314 -89.54062783 -71.66557242 -42.55321833 -20.17824623)
5(-93.24883698 -77.40159796 -54.46872966 -27.89275557 -11.32457495)
5(-80.63396367 -59.36273554 -35.95520041 -15.64075277 -5.182588788)
5(-61.94225634 -39.67905808 -20.01542961 -7.407436605 -1.914830058)
5(-41.38332867 -22.41753222 -9.2688972 -2.726316299 -0.5406963798)
5(-23.44872209 -10.30220919 -3.402484745 -0.8032813002 -0.1089899211)
5(-10.56079208 -3.673329623 -0.9239232493 -0.166478994 -0.01696997778)
5(-3.608493022 -0.9638440482 -0.1818225127 -0.02444912103 -0.001615680492)
5(-0.8379149649 -0.1743712693 -0.02195356694 -0.002031362635 -8.415542192e-05)
5(-0.132458622 -0.01964721644 -0.001687719246 -0.0001211276978 -2.945134818e-06)
5(-0.01104549403 -0.001250739871 -6.274936645e-05 -4.311884528e-06 -3.104512728e-08)
5(-0.0004950892615 -2.930429559e-05 -1.433649734e-06 -1.017619698e-07 -8.047028622e-11)
5(-3.491868312e-06 -3.641234756e-07 -1.608860145e-08 -1.889065105e-09 3.278279213e-13)
5(-1.194568919e-09 2.821398316e-07 5.124863809e-07 2.340161238e-09 -4.472134347e-13)
5(4.083040649e-10 5.938914801e-06 9.960438323e-06 3.960115001e-08 -9.857632893e-22)
)


60
(
5(-0.1589358134 -0.2217299916 -0.4487770611 -0.4972395889 -0.4606975966)
5(-0.08464614611 -0.1270907143 -0.24568998 -0.2625412961 -0.2227725278)
5(-0.03190889342 -0.04402832521 -0.11612962 -0.08460470843 -0.01142155733)
5(0.01226355175 0.03064790289 0.0001979223095 0.08373309036 0.207288403)
5(0.06007143609 0.1054063263 0.1228927957 0.2599421005 0.463226885)
5(0.1149252356 0.1863619268 0.2565114302 0.448746791 0.7521245286)
5(0.1737900332 0.2739326216 0.3933206507 0.6410958019 1.023834777)
5(0.2359822088 0.3686639806 0.5299822086 0.8329212297 1.272589691)
5(0.3050061493 0.4732337789 0.6727029325 1.031893336 1.519577581)
5(0.3856811398 0.5906429984 0.8306079694 1.245859399 1.783565294)
5(0.4792431058 0.7235511026 1.008192015 1.475478112 2.059108987)
5(0.5878752625 0.8734607385 1.205864344 1.719412296 2.340554933)
5(0.7137987557 1.044034137 1.423525713 1.978202026 2.626642966)
5(0.8584828667 1.238777741 1.662363842 2.256109582 2.921371287)
5(1.029881037 1.465364134 1.932839669 2.564440619 3.244798617)
5(1.233854804 1.733879627 2.247853755 2.924823479 3.618344543)
5(1.485345811 2.060033668 2.627457648 3.359280682 4.074563163)
5(1.792613013 2.463467535 3.093721987 3.896251977 4.63906792)
5(2.180902208 2.967159587 3.680223918 4.575087946 5.364132046)
5(2.665686784 3.605143554 4.421066246 5.433668702 6.279202532)
5(3.28338044 4.412338219 5.36029094 6.521952251 7.431837249)
5(4.074822263 5.432268883 6.546795093 7.870620288 8.860330898)
5(5.068503811 6.709137325 8.027830597 9.535164431 10.59063135)
5(6.307016722 8.293113522 9.84817784 11.54569372 12.65184957)
5(7.854763569 10.22572298 12.05399134 13.92844381 15.03414254)
5(9.748534077 12.54690081 14.66571412 16.69057003 17.7307589)
5(12.03751039 15.29138824 17.69479939 19.80916153 20.69512367)
5(14.74657776 18.4555612 21.11701943 23.21987288 23.82202555)
5(17.91545195 22.02999263 24.87431794 26.80216329 26.98632651)
5(21.5231078 25.94354931 28.83713664 30.39139778 29.95726362)
5(25.51313031 30.06361507 32.79794474 33.70676128 32.43864705)
5(29.77530987 34.18748384 36.45001239 36.3590378 33.98891776)
5(34.1175504 37.96385168 39.33825811 37.83506331 34.08863292)
5(38.19813604 40.88254224 40.82524731 37.45136363 32.08943343)
5(41.54860657 42.32981514 40.17187876 34.42981064 27.3177815)
5(43.54379749 41.45060163 36.41992483 27.92552895 19.06322208)
5(43.32915625 37.3556462 28.63165332 17.2075229 7.00000639)
5(39.8517318 29.00123648 15.9659171 1.830807537 -8.839197863)
5(32.23820828 15.61850753 -2.005401868 -18.01121218 -27.88601643)
5(19.5956579 -3.098351504 -24.88912673 -41.21037152 -47.8695358)
5(1.46904482 -26.95973108 -51.34428328 -65.60243777 -66.29223999)
5(-21.68292909 -54.18885567 -78.66167278 -87.7216223 -79.50461064)
5(-48.54561411 -82.07896057 -103.1177762 -103.6223273 -85.45929553)
5(-76.29269083 -106.7784768 -120.6440791 -109.6509343 -82.45280279)
5(-101.2410747 -123.9777496 -127.5092577 -104.4049637 -71.08235193)
5(-119.327275 -130.316494 -121.2389528 -89.33755517 -54.25295601)
5(-126.6979891 -124.6312292 -103.1276859 -68.16641035 -36.32214266)
5(-122.067053 -106.6546184 -78.18689282 -45.28745343 -20.70916883)
5(-105.1885306 -81.01732992 -51.31495343 -25.88437898 -10.04252292)
5(-81.79943847 -53.73540877 -28.15487561 -12.15929021 -3.918250043)
5(-55.49012983 -30.20041261 -13.00043314 -4.766008284 -1.184481983)
5(-31.74980916 -13.54781585 -4.762324908 -1.378136207 -0.2533333975)
5(-14.30088091 -4.809900116 -1.296718087 -0.2998658468 -0.04155239261)
5(-4.925744751 -1.232132881 -0.2382379718 -0.04497749143 -0.004220170635)
5(-1.239201423 -0.2078564094 -0.02658734558 -0.003975640605 -0.0002339228787)
5(-0.1562453571 -0.01956005608 -0.00179876535 -0.0001971817961 -8.658505345e-06)
5(-0.004734454418 -0.001375860906 -5.712730374e-05 -6.114459121e-06 -7.821785801e-08)
5(-0.0002591060081 -3.763482792e-05 -1.279682794e-06 -1.29505108e-07 -3.866142025e-10)
5(1.4340948e-05 2.971334871e-07 -1.02076326e-07 2.501762082e-07 -5.346001171e-11)
5(2.894103698e-05 -0.002866037546 -0.008883405212 -2.434964136e-05 9.544466053e-08)
)


60
(
5(-0.1830994927 -0.2718105731 -0.5006619699 -0.5100100168 -0.2634175206)
5(-0.08304646451 -0.1306347903 -0.2388983189 -0.1934761717 0.007215541721)
5(-0.004579277408 0.002605586964 -0.04415929434 0.0819666449 0.319067754)
5(0.06673228332 0.1260666434 0.1463656979 0.3613090595 0.677439142)
5(0.1446654339 0.2517571954 0.3534077974 0.6610318697 1.109109197)
5(0.2358039129 0.3901104172 0.5798673648 0.981993702 1.584208299)
5(0.3354624937 0.5414570835 0.8146510126 1.309931701 2.035385271)
5(0.4435064657 0.706737042 1.055254176 1.642981708 2.451677214)
5(0.564546886 0.8906001952 1.308513367 1.988449396 2.863681843)
5(0.704975002 1.096893477 1.587097202 2.354706048 3.2897772)
5(0.8691447032 1.32927753 1.897510061 2.74290799 3.733402801)
5(1.058439728 1.590412972 2.237596079 3.150708796 4.178419699)
5(1.2744548 1.882558445 2.605983038 3.577733746 4.626042035)
5(1.523665155 2.212060164 3.007641531 4.0317482 5.081850257)
5(1.811426664 2.588251973 3.453071976 4.528331203 5.582704076)
5(2.149583552 3.02332997 3.96153309 5.092602576 6.152143121)
5(2.553259767 3.536411179 4.556110072 5.756741767 6.836883366)
5(3.037457602 4.152299975 5.269368183 6.553341821 7.668883283)
5(3.626118054 4.901953792 6.136841352 7.542973105 8.711787591)
5(4.351293013 5.823776739 7.20903844 8.766951789 10.01286058)
5(5.24699261 6.964444986 8.539980184 10.28507933 11.62548209)
5(6.354689354 8.376865848 10.1884814 12.15544454 13.60248485)
5(7.729657896 10.11436572 12.21032181 14.42603242 15.98442334)
5(9.429926199 12.23497177 14.67318039 17.15355748 18.81413017)
5(11.51201777 14.80628618 17.6274053 20.36717392 22.09479318)
5(14.02838398 17.87256876 21.10849673 24.09146662 25.81469614)
5(17.04903061 21.49002883 25.15249349 28.31522461 29.93354416)
5(20.62233024 25.6610163 29.73637628 32.98048402 34.36066546)
5(24.78470554 30.39282168 34.81579325 37.98481075 38.94020326)
5(29.53405388 35.64221234 40.26529333 43.13175971 43.4615279)
5(34.84154479 41.28757261 45.88794493 48.15090814 47.5438802)
5(40.62194948 47.12910837 51.38978398 52.62665124 50.76970667)
5(46.68780203 52.82343226 56.23332195 55.97829762 52.37976645)
5(52.72550463 57.89449759 59.7965075 57.38724529 51.63818237)
5(58.27252373 61.6435696 61.2008733 55.9420741 47.60064695)
5(62.64969863 63.16691526 59.32181354 50.52477152 39.24610595)
5(65.03262319 61.38089045 52.96384826 39.98431786 25.79660455)
5(64.33405137 55.04492514 40.84922243 23.42909295 6.677508994)
5(59.28525734 42.94194672 22.1047011 0.4360986609 -17.77791468)
5(48.6743088 24.28451336 -3.52593993 -28.48668559 -46.13165169)
5(31.71182529 -1.206551639 -35.30904673 -61.49139364 -74.92525371)
5(8.041450417 -32.60595153 -71.05244744 -95.06921668 -100.6122743)
5(-21.36965642 -67.70739903 -106.8316387 -124.5190783 -118.8567776)
5(-54.68317234 -102.9705172 -138.0897404 -144.4068037 -126.1065542)
5(-88.36683028 -133.3538263 -159.067487 -150.935566 -121.0146005)
5(-119.1035917 -154.0885302 -165.1823386 -142.5086661 -104.413046)
5(-140.4440433 -161.4999681 -154.5960344 -121.9004265 -80.01282686)
5(-150.5412785 -153.4872092 -129.8563606 -92.03519149 -53.69331724)
5(-146.2718095 -131.4858845 -96.84633988 -61.09491363 -30.89612396)
5(-128.5370868 -100.4991222 -63.11900259 -35.1672732 -14.83658115)
5(-101.9253646 -67.19806011 -34.97739459 -16.76319664 -5.872621212)
5(-71.56054887 -37.19157239 -15.87747853 -6.504854256 -1.881495936)
5(-43.64401363 -17.690796 -5.691098732 -1.864420556 -0.3893412476)
5(-21.20147886 -6.599911507 -1.477261505 -0.3852725423 -0.06803391144)
5(-7.537745487 -1.672457472 -0.2641475268 -0.05018947349 -0.006489604513)
5(-2.25445451 -0.2827712093 -0.02816897027 -0.004076577585 -0.0002400190452)
5(-0.3291416183 -0.02316262204 -0.001301895243 -0.0002056152569 -8.685660869e-06)
5(-0.001139768855 -0.001386624599 -5.277184145e-05 -4.518586947e-06 -5.220573624e-08)
5(0.004562200045 4.825889541e-06 -2.392723303e-06 -4.190089742e-08 -1.369208365e-10)
5(0.007463235178 8.760453689e-05 -3.470086604e-05 -1.005943086e-07 1.240257847e-07)
)


60
(
5(-0.2019110794 -0.3129538214 -0.5158126159 -0.4264031787 0.1275356596)
5(-0.0708566871 -0.1150049373 -0.1838542585 -0.01964042738 0.4375566357)
5(0.03804321007 0.08056424819 0.09109893242 0.3725756085 0.8636749661)
5(0.1429636988 0.2623803868 0.3733155554 0.7853800386 1.404840128)
5(0.2591294465 0.4499675044 0.6833925236 1.232721356 2.037202627)
5(0.3940135489 0.6580459704 1.02183075 1.711077866 2.718687764)
5(0.5442605836 0.8865647886 1.3736954 2.199290693 3.370917795)
5(0.7067394516 1.137490715 1.737576638 2.694514538 3.967712214)
5(0.8913720324 1.416017409 2.121538102 3.205541986 4.555944206)
5(1.103430545 1.727347968 2.54144882 3.741921086 5.160661497)
5(1.350392464 2.07468552 3.001067456 4.304201621 5.774133923)
5(1.629839933 2.460819254 3.500339894 4.887626345 6.386132967)
5(1.951045109 2.888292672 4.033693418 5.490850424 6.995703214)
5(2.314935721 3.364454019 4.607967918 6.126587634 7.620923546)
5(2.733270327 3.898919252 5.234599491 6.812707934 8.293719564)
5(3.214220408 4.506896316 5.939314195 7.581941406 9.055760728)
5(3.776275583 5.210792228 6.749745958 8.468621135 9.960490527)
5(4.441439273 6.037462427 7.70357395 9.526837635 11.05501887)
5(5.234856941 7.024928086 8.847100334 10.80878266 12.40783401)
5(6.191757096 8.218016644 10.23403358 12.37782737 14.07524488)
5(7.356787113 9.671173014 11.93103306 14.30071287 16.13260292)
5(8.773128052 11.44281091 14.00661269 16.65126674 18.64037962)
5(10.50719075 13.6030329 16.53347671 19.48652122 21.65294995)
5(12.62476344 16.21899904 19.58371963 22.87712382 25.20985597)
5(15.18831617 19.36083274 23.22691 26.87847318 29.35557158)
5(18.2754484 23.1101187 27.52064321 31.51379069 34.08030247)
5(21.95643333 27.50045957 32.49805213 36.79626057 39.35474085)
5(26.30927632 32.59907176 38.16659646 42.68105104 45.10073388)
5(31.37746264 38.41823809 44.51225925 49.08986083 51.20205423)
5(37.18193182 44.93521759 51.42667992 55.83554431 57.39490478)
5(43.73748748 52.04357809 58.73558413 62.68499824 63.31403319)
5(50.97739118 59.58210235 66.14478588 69.23166609 68.54771375)
5(58.75087986 67.28298734 73.20359573 74.843833 72.27058352)
5(66.77859674 74.6897356 79.25338942 78.70629778 73.54495598)
5(74.62559983 81.10933734 83.32051567 79.75316196 71.38888146)
5(81.76070847 85.66907088 84.3274282 76.67152629 64.45110077)
5(87.27887786 87.14794582 80.86099998 68.04344076 51.40881466)
5(90.00174183 84.24908738 71.34194637 52.6535946 31.38607401)
5(88.72420627 75.58754118 54.45094199 29.38228929 4.015357786)
5(81.97678922 59.77455217 29.136276 -2.061522771 -30.24610935)
5(68.50309031 35.89913699 -4.363114051 -40.60298405 -68.52753213)
5(47.64736533 4.059039998 -44.84675046 -83.26705153 -106.0784186)
5(19.13759985 -34.30810837 -89.25050069 -125.4345426 -139.2109999)
5(-15.96133786 -76.52888953 -132.7388461 -160.7008328 -160.9466929)
5(-55.00371978 -118.1997564 -169.2312808 -183.5571051 -168.8542137)
5(-94.68103175 -153.877908 -192.1862373 -189.3606337 -159.3590662)
5(-130.6377915 -178.0614085 -197.1053576 -177.1782879 -135.1669396)
5(-155.4575495 -187.2711431 -182.9469295 -150.0124066 -103.3485774)
5(-168.706738 -179.11979 -153.632493 -113.0861447 -68.93326795)
5(-168.3274224 -155.5093998 -114.1846634 -74.09016386 -39.37062297)
5(-150.3910575 -120.747314 -74.50016104 -41.95979045 -18.76712392)
5(-122.8200322 -84.34313928 -41.42433502 -19.78459075 -7.441387312)
5(-88.73964314 -48.89173479 -19.40846595 -7.293041847 -2.182232844)
5(-58.33134906 -24.08791056 -6.898305883 -2.125477005 -0.4911337753)
5(-29.71578545 -9.379001763 -1.73137742 -0.4094157639 -0.06620241377)
5(-14.90594794 -2.636911349 -0.2428669704 -0.04834256591 -0.00549771203)
5(-4.439913403 -0.5946289486 -0.03228101195 -0.003253957469 -0.0001615468254)
5(-0.9893955375 -0.03488880295 -0.001390309551 -0.0001388917559 -4.500543393e-06)
5(-0.0661532921 0.00452859764 0.0001076835365 -2.005098032e-06 -3.065383345e-10)
5(-0.1258958444 0.03268666241 0.003092728305 1.250491319e-06 -4.880551579e-05)
)


60
(
5(-0.2134156098 -0.3401159932 -0.4833203103 -0.226051308 0.7437784046)
5(-0.04604901829 -0.07549665098 -0.06989712251 0.2766483388 1.092114596)
5(0.1012055494 0.1929484824 0.2977858257 0.8030659973 1.654667121)
5(0.2439437644 0.4440027083 0.6880504266 1.367270281 2.366253548)
5(0.4053713324 0.7044332975 1.118355822 1.978942196 3.226782895)
5(0.5910464083 0.9943219118 1.584366582 2.631976486 4.135066925)
5(0.8001087841 1.312134999 2.0705287 3.299045082 4.995287085)
5(1.027717592 1.661518908 2.573712063 3.974334296 5.790011362)
5(1.284460044 2.048880584 3.104871897 4.665360788 6.563950758)
5(1.580243842 2.476634877 3.678041029 5.382923133 7.352764247)
5(1.918207521 2.951008298 4.300242504 6.124496321 8.136575911)
5(2.300782452 3.472033662 4.965002616 6.888080057 8.91499431)
5(2.735796061 4.04468776 5.671825699 7.670473241 9.682740334)
5(3.225630822 4.673770181 6.421370368 8.484632305 10.46970623)
5(3.779340074 5.371704163 7.232630699 9.357856215 11.31211842)
5(4.409515 6.154947801 8.130558822 10.32313079 12.26164018)
5(5.136053678 7.047071258 9.151888618 11.42815975 13.37143939)
5(5.980958471 8.081680231 10.33471462 12.72514981 14.71278359)
5(6.981037983 9.299788733 11.73789499 14.28202817 16.34726247)
5(8.162296416 10.74891096 13.41670725 16.17035313 18.36539064)
5(9.580819472 12.49646133 15.45561808 18.46719226 20.82559579)
5(11.29766748 14.60176409 17.92007524 21.2491569 23.82156755)
5(13.36880905 17.15293357 20.90705961 24.59829389 27.41968103)
5(15.87933455 20.21982046 24.49551944 28.58958053 31.66678332)
5(18.89618251 23.89236518 28.7597658 33.29739757 36.62069483)
5(22.51336936 28.25627244 33.79619402 38.76947775 42.28834785)
5(26.81618689 33.37583488 39.62777208 45.03743883 48.68669888)
5(31.90291534 39.32555573 46.31306186 52.07856039 55.72588054)
5(37.7890213 46.14751079 53.84815675 59.81340309 63.30076797)
5(44.60432292 53.83285849 62.16464445 68.14644537 71.19124782)
5(52.33764972 62.34979977 71.12005324 76.86258974 79.1142607)
5(60.9900632 71.57920858 80.48839797 85.53370861 86.54497976)
5(70.39803678 81.27053116 89.823333 93.60813673 92.82614786)
5(80.39213795 91.01026534 98.53652444 100.3262621 96.91869362)
5(90.64226205 100.2449625 105.7476368 104.5194376 97.57422036)
5(100.555648 108.0833581 110.2414631 104.8654738 93.3389882)
5(109.2829697 113.3896246 110.6264039 99.8322178 82.72466381)
5(115.7912043 114.8181141 105.119035 87.60882006 64.05582144)
5(118.824372 110.7065352 92.05521941 66.66439399 36.48441055)
5(116.7437282 99.37203358 70.05416042 36.04248555 0.06858473245)
5(108.1491422 79.68763526 38.28416528 -4.031247984 -44.51605987)
5(91.50446907 50.70526199 -2.863236441 -52.02090352 -92.31393805)
5(66.40078398 12.92164619 -51.75663755 -103.9294778 -138.8564441)
5(33.34898977 -31.90064497 -103.8950509 -153.6537401 -178.2308834)
5(-6.888142859 -80.65973855 -153.8781295 -194.2382362 -202.6728685)
5(-50.93002352 -128.1085703 -194.690592 -219.0885781 -209.0932922)
5(-95.98879589 -168.8466792 -219.6146419 -224.2815329 -194.9118631)
5(-135.1425609 -196.6355238 -224.0501735 -208.7908338 -165.6140815)
5(-164.8921553 -207.864132 -208.9447865 -174.520779 -124.4076633)
5(-183.6098601 -201.5549229 -176.310801 -131.0717283 -81.82693686)
5(-185.1507186 -176.7723017 -133.5540925 -86.48347885 -46.38170229)
5(-172.182544 -140.9776922 -89.16331044 -49.37593864 -21.37962608)
5(-144.819136 -100.7022566 -51.96579596 -22.92776781 -8.480218534)
5(-112.7117419 -64.75544894 -23.64360574 -8.607128798 -2.309623121)
5(-77.01081276 -35.52378052 -8.99662706 -2.314527203 -0.487170728)
5(-43.33419962 -15.62963901 -2.743376871 -0.4219967569 -0.06153826658)
5(-23.60855206 -5.261985045 -0.448609156 -0.05299111817 -0.00355392196)
5(-10.72073705 -1.037526669 -0.04437096949 -0.003470172506 -0.0001214179901)
5(-3.991536661 -0.1973456923 0.0032333416 -7.617605971e-07 2.975685353e-07)
5(-5.294353563 -1.075494383 -0.1788676272 0.001306746932 3.634460767e-06)
)


60
(
5(-0.2155780546 -0.34836672 -0.3963411468 0.1085321266 1.604822744)
5(-0.006813612045 -0.008016249057 0.1082320246 0.7102612389 1.983976771)