/*--------------------------------*- C++ -*----------------------------------*\
| =========                 |                                                 |
| \\      /  F ield         | OpenFOAM: The Open Source CFD Toolbox           |
|  \\    /   O peration     | Version:  2.3.1                                 |
|   \\  /    A nd           | Web:      www.OpenFOAM.org                      |
|    \\/     M anipulation  |                                                 |
\*---------------------------------------------------------------------------*/
FoamFile
{
    version     2.0;
    format      ascii;
    class       dictionary;
    location    "constant";
    object      mmolm;
}
// * * * * * * * * * * * * * * * * * * * * * * * * * * * * * * * * * * * * * //

mmolm_table
60
(

60
(
5(0.02818141527 0.02818720802 0.02811979755 0.02811754242 0.02806615824)
5(0.02820879008 0.028227159 0.02815753902 0.02814714355 0.02811275572)
5(0.02826856194 0.02821085244 0.02817806108 0.02816889943 0.02819472616)
5(0.02830700573 0.02820597245 0.02817238836 0.02818637116 0.02812124688)
5(0.02827962368 0.02821002645 0.02817510588 0.02816964048 0.02814253613)
5(0.02823897023 0.02821455348 0.02820118434 0.0281706872 0.02815753173)
5(0.02822941844 0.02821741937 0.02819770781 0.02818026668 0.02813990578)
5(0.02824440266 0.0282174516 0.02818668161 0.02817580311 0.02816700306)
5(0.02823443807 0.02821591151 0.0281903188 0.02817418 0.02815563049)
5(0.02823597572 0.0282141198 0.02818415467 0.02817614886 0.02815309639)
5(0.02823447888 0.02821418124 0.02818483478 0.02817554997 0.02815291616)
5(0.02823519668 0.02821422896 0.02818899332 0.0281754857 0.02815605875)
5(0.02823849693 0.02821368065 0.02819007812 0.02817329632 0.028154326)
5(0.02823468878 0.02821299965 0.02818929374 0.028176215 0.02815606551)
5(0.02823748871 0.02821412458 0.02819056414 0.02817448984 0.02815627428)
5(0.02823609692 0.02821334166 0.0281893909 0.02817406882 0.02815584811)
5(0.02823585313 0.02821343397 0.02818920533 0.02817384456 0.02815443482)
5(0.02823581397 0.02821336737 0.02818907302 0.02817270007 0.02815383322)
5(0.02823599813 0.02821303166 0.02818881705 0.02817283803 0.02815362934)
5(0.02823462526 0.02821135575 0.02818754535 0.02817067216 0.02815380139)
5(0.02823471136 0.02821213716 0.02818850633 0.02817100821 0.02815383626)
5(0.02823425789 0.02821198918 0.02818766535 0.02817454015 0.02815611704)
5(0.0282327855 0.02821111901 0.02818763093 0.02817187961 0.0281536429)
5(0.02823291298 0.02820943582 0.02818710106 0.02817157928 0.02815382934)
5(0.02823186354 0.02820880987 0.02818605156 0.02817006888 0.02815263421)
5(0.0282312336 0.02820840713 0.02818410557 0.02816810352 0.02815248726)
5(0.02823027728 0.02820834887 0.02818484329 0.02816705044 0.02815203037)
5(0.02822995139 0.02820768171 0.02818335467 0.02816629252 0.02815190499)
5(0.02822799347 0.02820633166 0.02818346602 0.02816647025 0.02815138261)
5(0.0282269234 0.02820464193 0.02818314344 0.02816756226 0.02815192971)
5(0.02822514348 0.02820308928 0.02818136924 0.02816586153 0.02815145835)
5(0.02822393939 0.02820251978 0.02818179901 0.02816769655 0.02815613607)
5(0.02822295614 0.02820112805 0.02818050965 0.02816734876 0.02815192032)
5(0.02822134727 0.02819940375 0.02817857511 0.02816779742 0.0281573973)
5(0.02821967611 0.02819865093 0.0281784993 0.0281678076 0.02815791906)
5(0.02821822813 0.02819611672 0.0281747219 0.02816735359 0.02815866327)
5(0.02821673838 0.02819733977 0.02817942933 0.02817008375 0.02815896104)
5(0.02821540338 0.02819500693 0.02817910575 0.02816923326 0.02817209769)
5(0.02821354058 0.02819454963 0.0281774978 0.02817118381 0.02816219761)
5(0.02821069618 0.02819334086 0.02817503352 0.02817073682 0.02820816013)
5(0.0282096288 0.02819440838 0.02817868323 0.02817388173 0.02820715753)
5(0.02820950519 0.0281944244 0.02818049469 0.02819045419 0.02820783759)
5(0.02820878667 0.02819653746 0.02818382177 0.02822576829 0.02820684634)
5(0.028207819 0.02819517979 0.0281746732 0.02822528971 0.02820389503)
5(0.02820718258 0.0281970762 0.02818024719 0.02822409357 0.02820448809)
5(0.02820914532 0.02819702804 0.02818864124 0.02822273366 0.0282034448)
5(0.02821086432 0.02820205019 0.02822848682 0.028221055 0.028201735)
5(0.02821455268 0.02821592555 0.02824169825 0.028219549 0.02819964659)
5(0.02821564828 0.02821529047 0.02824170531 0.02821758745 0.02819711945)
5(0.02821878434 0.02826122983 0.02823992488 0.02821521567 0.02819417333)
5(0.02822620812 0.02826036149 0.02823771828 0.0282122754 0.02819064279)
5(0.02826355146 0.02825815573 0.02823509516 0.02820875566 0.02818634654)
5(0.02827629809 0.02825552762 0.02823196914 0.02820454008 0.02818116307)
5(0.02827619831 0.02825260006 0.02822814168 0.02819970829 0.02817481027)
5(0.02827347509 0.0282491469 0.02822355024 0.02819370827 0.02816737878)
5(0.02826670367 0.02824491512 0.02821807068 0.02818714366 0.02815876894)
5(0.02825440249 0.0282395212 0.02821144078 0.02817938319 0.02815000248)
5(0.02824281566 0.02822893418 0.02820306307 0.02817096831 0.0281406051)
5(0.0282327457 0.0282144941 0.0281874714 0.02818470957 0.02813088139)
5(0.02821928881 0.02818635583 0.02815167543 0.02809993217 0.02807534994)
)


60
(
5(0.02815273011 0.02814236242 0.02808500426 0.02807159102 0.02802461299)
5(0.0281631133 0.02814107007 0.02810339619 0.02808267618 0.02805113627)
5(0.02816807752 0.02813974353 0.02811159472 0.02808720015 0.02806401877)
5(0.02816836963 0.02813824526 0.02811160218 0.02808693565 0.02806533938)
5(0.02816564586 0.02813633472 0.02810749095 0.02808418602 0.02806013219)
5(0.02816189095 0.02813442509 0.02810337051 0.02808155421 0.02805447158)
5(0.02815962915 0.02813288516 0.02810156985 0.02807977785 0.02805199134)
5(0.02815868148 0.02813175781 0.02810084092 0.02807882172 0.02805159922)
5(0.02815806998 0.02813085507 0.02810053919 0.02807823115 0.02805160143)
5(0.02815700164 0.02812975785 0.02809975723 0.02807723843 0.02805094352)
5(0.028155981 0.02812857261 0.02809863004 0.02807606895 0.0280496134)
5(0.02815463953 0.0281274564 0.02809725144 0.02807488215 0.02804809391)
5(0.02815345489 0.02812632183 0.02809600237 0.02807376205 0.02804690267)
5(0.0281523768 0.02812524023 0.02809490455 0.02807256465 0.02804580908)
5(0.02815133045 0.02812419104 0.02809385723 0.02807149895 0.02804476691)
5(0.02815019588 0.02812303389 0.0280926791 0.02807038367 0.02804368413)
5(0.02814909543 0.02812185786 0.02809141992 0.02806916097 0.02804252889)
5(0.0281479155 0.02812061656 0.02809014404 0.02806794402 0.02804133395)
5(0.02814666785 0.02811939173 0.02808884005 0.0280666383 0.02804011398)
5(0.02814539255 0.02811806586 0.02808750633 0.02806527528 0.02803878841)
5(0.02814404759 0.02811667763 0.02808608889 0.02806392516 0.02803755104)
5(0.02814266803 0.02811520876 0.02808465752 0.02806247322 0.02803624418)
5(0.02814121417 0.02811370499 0.02808313685 0.02806104883 0.02803485012)
5(0.02813960092 0.02811208465 0.02808149942 0.02805964171 0.02803348932)
5(0.02813796642 0.02811041583 0.02807985817 0.02805804495 0.02803204546)
5(0.02813617733 0.02810862485 0.02807797201 0.02805632533 0.02803056144)
5(0.02813429743 0.0281068031 0.0280761086 0.0280545354 0.02802905198)
5(0.02813233229 0.02810477439 0.02807418295 0.02805273849 0.02802756774)
5(0.02813023174 0.0281026486 0.02807211559 0.02805093227 0.02802592707)
5(0.02812797521 0.02810046903 0.02806999802 0.0280490342 0.02802441554)
5(0.02812560293 0.02809817465 0.02806778372 0.02804711384 0.02802280351)
5(0.0281230954 0.02809576163 0.02806555879 0.02804514242 0.02802129151)
5(0.02812045274 0.02809323876 0.02806317186 0.02804318543 0.02801986617)
5(0.02811765984 0.02809061652 0.02806077375 0.02804123909 0.02801860301)
5(0.02811475618 0.02808788595 0.02805830786 0.02803934746 0.02801746929)
5(0.02811163703 0.0280850857 0.0280558365 0.02803750691 0.02801652087)
5(0.02810849427 0.0280822571 0.0280533724 0.02803589316 0.02801563435)
5(0.02810514984 0.02807935465 0.02805098892 0.0280343607 0.02801491139)
5(0.02810174277 0.02807658429 0.02804875005 0.02803298848 0.02801483912)
5(0.02809835327 0.02807374736 0.02804672759 0.02803203679 0.02801593326)
5(0.02809498098 0.02807123122 0.02804513682 0.02803157304 0.02801858773)
5(0.02809181851 0.02806869668 0.02804364795 0.02803197061 0.02802242554)
5(0.0280886874 0.02806669325 0.02804257117 0.02803359707 0.02802702927)
5(0.02808592742 0.0280653671 0.0280419149 0.02803663281 0.02803182925)
5(0.02808367809 0.02806429437 0.02804214112 0.02804087911 0.02803687915)
5(0.02808212087 0.02806383784 0.02804363498 0.02804586232 0.02804219217)
5(0.02808134728 0.0280640403 0.02804685038 0.02805116813 0.02804763993)
5(0.02808145219 0.02806537225 0.02805155597 0.02805662373 0.02805301429)
5(0.02808250086 0.0280681153 0.02805730606 0.0280621825 0.02805791293)
5(0.02808486919 0.02807277443 0.02806367016 0.02806765871 0.02806212023)
5(0.02808862839 0.02807917484 0.02807035947 0.02807285892 0.02806548855)
5(0.02809432348 0.02808666797 0.02807718955 0.02807745868 0.02806772816)
5(0.02810202021 0.0280946361 0.02808381087 0.02808140964 0.02806902651)
5(0.02811173129 0.02810298846 0.02809020542 0.02808458624 0.02806882256)
5(0.02812313934 0.028111318 0.02809623535 0.0280866825 0.0280673258)
5(0.02813571588 0.02811995678 0.02810197824 0.02808786342 0.02806435851)
5(0.02814940471 0.02812906223 0.02810745411 0.02808828546 0.02806014364)
5(0.02816425219 0.02813885748 0.02811328433 0.02808834209 0.0280550609)
5(0.0281815872 0.02815094515 0.02812082264 0.02808933053 0.02805040424)
5(0.0282300334 0.02818896247 0.02817648657 0.02812274265 0.02806377426)
)


60
(
5(0.02813012602 0.02811389292 0.0280567787 0.02803713106 0.02799018048)
5(0.02813431712 0.0281084126 0.02806878285 0.02804357545 0.02800948424)
5(0.02813558202 0.02810492398 0.02807281836 0.02804527735 0.02801742723)
5(0.02813436885 0.0281023465 0.02807124147 0.02804369652 0.02801700736)
5(0.02813098168 0.02809974898 0.02806690638 0.02804047255 0.02801189342)
5(0.02812716793 0.02809721419 0.02806284568 0.02803736169 0.02800656889)
5(0.02812455513 0.02809522348 0.02806044599 0.02803518334 0.0280037257)
5(0.02812296599 0.0280935019 0.02805911496 0.02803370524 0.02800257634)
5(0.02812161178 0.02809191404 0.02805805734 0.02803238951 0.0280017929)
5(0.02812014055 0.02809033663 0.02805674768 0.02803091198 0.0280003429)
5(0.02811857062 0.02808874296 0.02805508523 0.02802926716 0.02799860087)
5(0.02811693993 0.0280871908 0.02805336223 0.02802762265 0.02799677933)
5(0.02811531867 0.02808562055 0.02805168804 0.02802601968 0.02799510346)
5(0.0281138285 0.02808408992 0.02805013835 0.02802446912 0.02799357519)
5(0.0281123521 0.02808257799 0.02804858397 0.02802295346 0.02799208535)
5(0.02811091086 0.02808104766 0.02804703853 0.02802139805 0.02799056959)
5(0.02810935296 0.02807951121 0.02804539543 0.02801978017 0.02798897467)
5(0.02810780056 0.02807791069 0.02804375807 0.02801812343 0.02798739805)
5(0.02810620756 0.02807626213 0.02804202201 0.02801643449 0.02798574317)
5(0.02810456546 0.0280745705 0.02804029728 0.02801467135 0.02798405712)
5(0.0281029224 0.02807279574 0.02803849247 0.02801288569 0.02798230207)
5(0.02810111679 0.02807095105 0.02803666138 0.02801108939 0.02798056623)
5(0.02809930753 0.02806904423 0.02803469345 0.02800918032 0.02797874759)
5(0.02809738319 0.02806705647 0.02803265618 0.02800724546 0.0279768686)
5(0.02809540122 0.02806498573 0.02803052263 0.02800519993 0.02797492476)
5(0.02809326095 0.02806280513 0.02802830945 0.02800301724 0.02797294959)
5(0.02809103086 0.02806054754 0.02802601227 0.02800076841 0.027970836)
5(0.02808872831 0.02805809618 0.02802354854 0.02799838236 0.02796871877)
5(0.0280861887 0.02805558536 0.02802102239 0.02799600383 0.02796647522)
5(0.02808357529 0.02805293015 0.02801833781 0.02799346437 0.02796423385)
5(0.02808077104 0.02805007264 0.02801553286 0.02799087866 0.02796188633)
5(0.02807782395 0.02804713387 0.02801264974 0.02798820949 0.0279595478)
5(0.02807469509 0.02804406822 0.0280095793 0.02798543252 0.02795724587)
5(0.02807138923 0.02804074812 0.0280064054 0.02798260811 0.02795497933)
5(0.02806791515 0.02803733757 0.02800317827 0.02797976159 0.02795280372)
5(0.02806436465 0.02803376736 0.02799975982 0.02797691049 0.02795065202)
5(0.02806045407 0.02803009049 0.02799630481 0.02797408047 0.02794854614)
5(0.02805641305 0.02802627238 0.02799282694 0.02797129298 0.02794653469)
5(0.02805220495 0.02802236068 0.02798939052 0.02796863691 0.02794508859)
5(0.02804790616 0.02801847171 0.02798606487 0.02796624117 0.02794461025)
5(0.02804360782 0.02801455813 0.02798282441 0.02796424148 0.02794537977)
5(0.0280391406 0.02801071133 0.0279798459 0.02796291183 0.0279472091)
5(0.02803485315 0.0280071428 0.02797712039 0.02796266917 0.02794981617)
5(0.02803072891 0.02800394359 0.02797480511 0.02796370611 0.02795294111)
5(0.02802696215 0.02800128818 0.02797330523 0.02796587171 0.02795646409)
5(0.02802369609 0.02799905101 0.02797293747 0.02796897123 0.02796052343)
5(0.02802119271 0.02799746876 0.02797416902 0.02797267097 0.02796506627)
5(0.02801958724 0.02799701274 0.02797696412 0.02797690046 0.02796991292)
5(0.0280190726 0.02799819473 0.02798106061 0.02798165615 0.02797481574)
5(0.02801980163 0.0280011475 0.02798610434 0.02798680268 0.02797946599)
5(0.02802214698 0.02800600949 0.02799193167 0.0279921329 0.02798362262)
5(0.02802642976 0.0280123424 0.02799835333 0.02799744818 0.02798725485)
5(0.02803299102 0.02801974068 0.02800525318 0.0280025565 0.0279901579)
5(0.0280417716 0.02802790635 0.0280124341 0.02800725736 0.02799213992)
5(0.02805257708 0.0280369613 0.02801979452 0.02801137187 0.02799291832)
5(0.0280652375 0.0280468002 0.02802729792 0.028014927 0.02799253405)
5(0.02807972581 0.02805757723 0.02803514964 0.02801793973 0.02799104113)
5(0.02809642121 0.02806994809 0.02804383451 0.02802086765 0.02798887363)
5(0.02811831613 0.02808635255 0.0280553931 0.02802539173 0.02798746047)
5(0.02818181238 0.02814028482 0.02812634951 0.02807833683 0.0280152168)
)


60
(
5(0.02811034767 0.02809013934 0.0280317705 0.02800722021 0.02795934603)
5(0.02811022841 0.02808151917 0.02803959889 0.02801070257 0.02797400726)
5(0.02810918161 0.02807631903 0.02804105459 0.02801056648 0.02797909114)
5(0.02810681894 0.02807284132 0.02803826069 0.02800799401 0.02797735469)
5(0.02810292816 0.02806962743 0.02803356105 0.02800425061 0.02797204273)
5(0.02809873217 0.02806654133 0.02802921941 0.0280006611 0.02796655894)
5(0.02809566205 0.02806397623 0.02802632049 0.02799803137 0.02796329021)
5(0.02809352232 0.02806174733 0.02802441207 0.02799602807 0.02796152179)
5(0.0280917021 0.02805970444 0.02802280754 0.02799419325 0.02796010757)
5(0.02808977955 0.02805766188 0.02802099495 0.02799224059 0.02795822974)
5(0.02808775891 0.02805566806 0.02801895982 0.02799021446 0.02795609626)
5(0.02808576093 0.02805369114 0.0280168636 0.02798819321 0.02795388601)
5(0.02808383547 0.02805178213 0.0280148382 0.02798620925 0.02795183325)
5(0.0280819693 0.02804990592 0.02801291277 0.0279842798 0.02794996963)
5(0.02808013872 0.02804805683 0.02801101116 0.02798240563 0.02794807464)
5(0.02807832866 0.02804618277 0.02800907833 0.02798051302 0.02794620314)
5(0.02807651824 0.02804429232 0.02800712092 0.02797855672 0.02794426915)
5(0.02807462748 0.02804238753 0.02800515554 0.02797661433 0.02794230629)
5(0.02807276131 0.02804041987 0.02800312201 0.02797457248 0.02794034083)
5(0.02807081995 0.02803842619 0.02800108832 0.02797251615 0.02793829973)
5(0.02806884423 0.02803638436 0.02799894727 0.02797036362 0.02793623118)
5(0.02806683394 0.02803422497 0.02799677327 0.02796822938 0.02793413648)
5(0.02806473602 0.02803203492 0.02799451457 0.02796598253 0.02793194713)
5(0.02806251049 0.02802976845 0.02799220679 0.02796366758 0.02792969658)
5(0.02806022466 0.02802740991 0.02798971501 0.02796125916 0.02792729192)
5(0.02805784417 0.02802489211 0.02798713784 0.0279587192 0.02792487993)
5(0.02805533658 0.02802228577 0.02798444835 0.02795604742 0.02792237385)
5(0.02805271395 0.02801954587 0.02798164112 0.02795327528 0.02791970744)
5(0.02804992591 0.02801666344 0.027978694 0.0279504234 0.02791705145)
5(0.02804699239 0.02801363475 0.02797560024 0.02794740198 0.02791415946)
5(0.02804390136 0.02801044389 0.02797236072 0.02794428105 0.02791128548)
5(0.02804062632 0.02800708086 0.02796901418 0.02794102853 0.02790824748)
5(0.02803715718 0.02800353669 0.02796538311 0.02793764242 0.02790521264)
5(0.02803350966 0.02799979073 0.02796163937 0.02793413249 0.02790211513)
5(0.02802962279 0.02799585562 0.02795773748 0.02793051403 0.02789909759)
5(0.02802552762 0.02799170707 0.02795366998 0.02792679003 0.02789595494)
5(0.02802120299 0.02798738304 0.02794947704 0.02792300675 0.02789279754)
5(0.02801662484 0.02798285325 0.02794508793 0.02791920399 0.02788973055)
5(0.02801185038 0.02797814999 0.02794063176 0.0279154313 0.02788696821)
5(0.02800687166 0.02797330843 0.0279361433 0.02791177106 0.02788510263)
5(0.02800168786 0.02796833503 0.02793169871 0.02790836131 0.0278842061)
5(0.02799646453 0.02796334616 0.02792735162 0.02790552076 0.02788425099)
5(0.02799115069 0.02795845703 0.02792315798 0.02790355619 0.02788508455)
5(0.02798594565 0.02795379962 0.02791923776 0.0279027357 0.02788641415)
5(0.02798092819 0.02794946365 0.02791595783 0.02790298057 0.02788829248)
5(0.02797638077 0.02794559256 0.02791382553 0.02790416654 0.0278908195)
5(0.02797250736 0.02794235888 0.02791310004 0.02790609408 0.02789408626)
5(0.02796944537 0.02794008477 0.02791396014 0.02790872269 0.02789796327)
5(0.02796754802 0.02793932477 0.02791612451 0.02791209773 0.02790217308)
5(0.02796673466 0.02794050816 0.02791945302 0.02791620695 0.02790655918)
5(0.02796763819 0.02794364312 0.02792392007 0.02792095685 0.02791085724)
5(0.02797053436 0.02794845652 0.02792940219 0.02792605188 0.02791490568)
5(0.02797561666 0.02795466828 0.02793579466 0.02793142726 0.02791857514)
5(0.02798312342 0.02796224513 0.02794299189 0.02793679918 0.02792165082)
5(0.02799299684 0.02797122432 0.02795085553 0.02794198228 0.02792382259)
5(0.02800526987 0.02798155575 0.02795936116 0.02794690006 0.02792498275)
5(0.02802003881 0.02799356711 0.02796861013 0.02795156927 0.02792534153)
5(0.02803825138 0.02800800345 0.02797937352 0.02795673518 0.02792526813)
5(0.0280629976 0.02802773168 0.02799434907 0.0279643042 0.02792647203)
5(0.02813236295 0.02810659076 0.02807400135 0.02801907188 0.02797059264)
)


60
(
5(0.02809228926 0.02806889622 0.02800872441 0.02797991065 0.02793079062)
5(0.02808866676 0.02805748635 0.02801327488 0.0279810717 0.0279418788)
5(0.0280857242 0.02805074809 0.02801271647 0.02797943634 0.02794480141)
5(0.02808242734 0.02804647282 0.028008894 0.02797600113 0.0279420342)
5(0.02807797466 0.02804266755 0.02800370506 0.02797173074 0.02793631752)
5(0.02807332402 0.02803900815 0.02799900417 0.02796769481 0.02793055518)
5(0.02806981018 0.02803595936 0.02799563973 0.02796459436 0.02792686572)
5(0.02806719408 0.02803325518 0.02799322543 0.0279620867 0.02792456526)
5(0.02806488433 0.0280307464 0.02799113815 0.02795982071 0.02792263645)
5(0.02806254394 0.02802833746 0.02798889894 0.02795746434 0.02792034944)
5(0.02806014896 0.02802593068 0.02798647789 0.02795506242 0.02791783149)
5(0.02805779895 0.02802361789 0.02798402911 0.02795265784 0.02791528728)
5(0.02805551754 0.02802137088 0.02798165078 0.02795036149 0.02791291463)
5(0.0280533833 0.02801914903 0.02797940879 0.0279481115 0.02791066782)
5(0.02805122824 0.02801697492 0.0279771931 0.02794591283 0.02790849953)
5(0.02804910213 0.0280147935 0.02797499954 0.02794370054 0.02790631074)
5(0.02804699142 0.02801263092 0.02797272883 0.02794147691 0.02790406829)
5(0.02804485446 0.02801043391 0.0279704438 0.02793925448 0.02790181402)
5(0.0280426948 0.02800820243 0.02796815907 0.02793690363 0.02789952649)
5(0.02804051488 0.0280059461 0.02796582314 0.02793455436 0.02789720942)
5(0.02803829039 0.02800362994 0.0279634244 0.02793215331 0.02789482282)
5(0.0280359978 0.0280012405 0.02796098093 0.02792969283 0.02789242179)
5(0.02803366638 0.02799879983 0.02795846031 0.02792719456 0.02788990801)
5(0.02803125183 0.02799626714 0.02795583148 0.02792460284 0.02788732162)
5(0.02802872695 0.02799363807 0.02795308677 0.02792187432 0.02788462832)
5(0.02802611743 0.02799093643 0.02795023911 0.02791900908 0.02788184668)
5(0.0280233652 0.02798802129 0.02794726368 0.02791601969 0.02787891176)
5(0.02802050423 0.02798502441 0.02794414649 0.0279129031 0.02787587641)
5(0.0280174821 0.02798188603 0.02794087392 0.02790964764 0.02787272912)
5(0.02801433376 0.02797857016 0.0279374464 0.02790625447 0.02786945298)
5(0.02801097898 0.02797506105 0.02793385353 0.02790269936 0.02786603602)
5(0.02800742744 0.02797136509 0.02793006976 0.02789898111 0.0278625393)
5(0.02800368755 0.02796745671 0.02792607175 0.02789507762 0.02785883084)
5(0.02799973102 0.02796335985 0.02792185484 0.02789100934 0.02785509913)
5(0.02799555372 0.02795900901 0.02791743249 0.02788676687 0.02785128879)
5(0.02799110818 0.02795440606 0.02791277245 0.02788236447 0.02784736897)
5(0.02798637823 0.02794956955 0.02790790881 0.0278778287 0.02784331798)
5(0.02798140032 0.02794446223 0.02790283043 0.0278731545 0.02783923807)
5(0.02797612655 0.02793907591 0.02789756165 0.02786839989 0.02783537814)
5(0.02797059891 0.02793346844 0.02789215536 0.02786362061 0.02783214357)
5(0.02796484402 0.02792765814 0.02788664297 0.02785897184 0.02782979371)
5(0.02795891077 0.02792172846 0.02788107279 0.02785471738 0.02782825057)
5(0.02795289403 0.02791575316 0.02787553565 0.02785114777 0.02782725627)
5(0.02794692638 0.02790984729 0.02787011521 0.02784853937 0.02782676745)
5(0.02794113082 0.02790415587 0.02786519498 0.027846864 0.02782684114)
5(0.02793562573 0.02789877974 0.02786115215 0.0278460336 0.02782763429)
5(0.02793079061 0.02789393777 0.0278584546 0.02784596109 0.027829205)
5(0.02792667687 0.02789002925 0.02785719884 0.02784669095 0.02783152271)
5(0.02792361395 0.02788756709 0.02785731115 0.02784822562 0.02783444901)
5(0.02792174594 0.02788698937 0.02785864774 0.02785076198 0.02783782934)
5(0.02792137055 0.02788828918 0.02786128345 0.02785418427 0.02784151062)
5(0.0279228745 0.02789136886 0.02786524002 0.02785839641 0.0278453541)
5(0.02792658656 0.02789605207 0.027870459 0.02786324097 0.02784911879)
5(0.02793267601 0.02790238373 0.02787689523 0.02786848671 0.02785263665)
5(0.02794117014 0.02791048156 0.02788457265 0.02787402466 0.02785559812)
5(0.02795241457 0.02792059091 0.02789346538 0.02787977663 0.02785784874)
5(0.02796669738 0.02793307649 0.02790375264 0.02788577767 0.02785957963)
5(0.02798507847 0.02794882825 0.02791642186 0.02789259627 0.02786111893)
5(0.02801134137 0.02797147477 0.02793457803 0.02790274879 0.02786456798)
5(0.02808516364 0.02805032399 0.02802524826 0.02796970805 0.02792498842)
)


60
(
5(0.02807538179 0.02804923197 0.02798703419 0.02795435799 0.0279038426)
5(0.02806868799 0.02803524523 0.02798879542 0.02795350643 0.02791194211)
5(0.02806406061 0.02802708791 0.02798649909 0.02795056363 0.02791304487)
5(0.02805990968 0.02802201808 0.02798171436 0.02794632254 0.02790936725)
5(0.0280549119 0.02801763199 0.02797601604 0.02794152535 0.02790321936)
5(0.02804980194 0.02801345177 0.02797092136 0.02793704882 0.02789711742)
5(0.02804581277 0.02800992373 0.02796712225 0.02793349229 0.0278930075)
5(0.02804274765 0.02800675554 0.0279642185 0.02793054719 0.0278902364)
5(0.02803999676 0.028003841 0.02796170179 0.02792785288 0.02788785457)
5(0.02803725685 0.02800101059 0.0279590479 0.02792512363 0.02788516607)
5(0.02803451378 0.02799827951 0.02795629099 0.02792236697 0.02788231563)
5(0.02803181283 0.02799560692 0.02795349657 0.02791964708 0.02787944331)
5(0.02802922845 0.0279930336 0.02795082001 0.02791702782 0.02787676946)
5(0.02802673205 0.02799052006 0.02794825449 0.02791448175 0.02787420822)
5(0.02802432649 0.02798804683 0.02794575146 0.02791198671 0.02787174296)
5(0.02802193223 0.02798560019 0.02794325013 0.02790949263 0.02786924291)
5(0.02801954079 0.02798314321 0.02794072797 0.02790700637 0.02786675139)
5(0.02801715622 0.02798070226 0.02793820488 0.02790447207 0.02786421639)
5(0.02801473804 0.02797822381 0.02793564215 0.02790191514 0.02786165999)
5(0.02801232535 0.02797571827 0.02793306505 0.02789930434 0.02785907582)
5(0.02800986656 0.02797317074 0.02793043425 0.02789664542 0.02785642552)
5(0.02800735481 0.0279705566 0.02792773022 0.02789395634 0.02785372796)
5(0.02800480872 0.0279678794 0.02792497272 0.02789119236 0.02785093913)
5(0.02800217321 0.0279651311 0.02792210657 0.02788833708 0.02784806541)
5(0.02799943666 0.0279622801 0.02791912152 0.02788535717 0.02784508395)
5(0.02799661948 0.02795930797 0.02791603221 0.02788222143 0.02784198398)
5(0.02799368904 0.02795622229 0.02791280419 0.02787894057 0.02783875567)
5(0.02799061217 0.0279529925 0.02790942147 0.0278755405 0.02783540716)
5(0.02798736463 0.02794959652 0.02790587559 0.02787198151 0.02783187642)
5(0.02798398789 0.02794601962 0.02790217196 0.02786824407 0.02782818871)
5(0.0279804208 0.02794227988 0.02789827333 0.02786434127 0.02782435966)
5(0.02797666468 0.02793833086 0.0278941407 0.02786022973 0.02782035462)
5(0.02797268263 0.02793412559 0.02788978881 0.02785590726 0.02781618849)
5(0.02796845736 0.02792968444 0.02788520153 0.02785136418 0.02781190466)
5(0.02796399446 0.02792499319 0.0278803719 0.02784660419 0.02780745493)
5(0.02795923927 0.02792003157 0.02787525698 0.02784164229 0.02780284995)
5(0.02795423491 0.02791476925 0.02786984014 0.02783645275 0.02779802662)
5(0.02794888807 0.02790918073 0.02786415822 0.02783103708 0.02779305668)
5(0.02794327084 0.02790327578 0.02785820437 0.02782543535 0.02778822209)
5(0.02793734038 0.02789708064 0.02785200079 0.02781973421 0.0277838214)
5(0.02793116678 0.02789059168 0.02784560135 0.02781398871 0.02778019054)
5(0.02792480548 0.02788388825 0.02783900197 0.02780845926 0.02777704753)
5(0.02791833958 0.0278770564 0.02783227633 0.02780345378 0.02777445535)
5(0.0279118803 0.02787019869 0.02782551573 0.02779918615 0.02777216699)
5(0.02790556483 0.02786345317 0.02781909912 0.02779565609 0.02777040098)
5(0.02789956227 0.02785696308 0.02781341682 0.0277928385 0.02776921914)
5(0.02789419612 0.02785095473 0.02780889715 0.02779066504 0.02776884261)
5(0.02788937982 0.02784584415 0.02780572999 0.02778926679 0.02776932249)
5(0.02788553414 0.02784210468 0.02780371466 0.02778875161 0.02777049212)
5(0.02788286567 0.02784013257 0.02780303891 0.02778923769 0.02777232405)
5(0.02788144154 0.02783991382 0.0278037121 0.02779083725 0.0277747554)
5(0.02788188564 0.02784144165 0.02780579989 0.02779346675 0.02777761396)
5(0.02788434494 0.02784451707 0.02780942713 0.02779709446 0.02778083804)
5(0.02788929774 0.02784939276 0.02781459023 0.02780165514 0.02778422982)
5(0.0278964929 0.02785619813 0.02782141824 0.02780691314 0.0277874525)
5(0.02790671915 0.02786536935 0.02783004135 0.02781289143 0.02779038858)
5(0.02791991283 0.02787761317 0.0278410073 0.02781977951 0.02779312562)
5(0.02793788196 0.02789372757 0.02785521552 0.02782829385 0.02779619535)
5(0.02796407568 0.02791780864 0.02787693844 0.02784182843 0.02780207989)
5(0.02804168801 0.02800228463 0.02796699643 0.02791436375 0.02786484431)
)


60
(
5(0.02805932324 0.0280306738 0.02796635048 0.02793007039 0.02787814594)
5(0.02804979895 0.02801423932 0.02796561162 0.02792740662 0.02788360705)
5(0.02804362895 0.02800471954 0.02796173527 0.0279232692 0.02788310059)
5(0.02803868482 0.02799889802 0.02795605126 0.02791826237 0.02787854982)
5(0.02803313024 0.0279939473 0.027949837 0.027912957 0.02787196907)
5(0.02802754118 0.02798924805 0.02794434301 0.02790802715 0.02786552778)
5(0.02802310409 0.0279852508 0.0279401036 0.0279040451 0.02786098064)
5(0.02801960065 0.02798165405 0.02793675075 0.02790066827 0.02785779267)
5(0.02801641607 0.02797832677 0.02793381434 0.02789758926 0.02785496883)
5(0.02801330826 0.02797513247 0.02793078472 0.02789448925 0.02785192727)
5(0.0280102054 0.0279720448 0.0279276872 0.02789141169 0.02784873645)
5(0.02800719818 0.02796904775 0.02792457427 0.02788837786 0.02784557639)
5(0.02800428586 0.02796616896 0.02792160161 0.02788546769 0.02784259384)
5(0.02800151214 0.02796334692 0.02791873914 0.02788263725 0.0278397634)
5(0.0279988109 0.02796060641 0.02791596714 0.02787987289 0.02783700538)
5(0.02799614525 0.02795787911 0.02791319391 0.02787711935 0.02783424855)
5(0.02799350748 0.0279551907 0.02791042741 0.0278743788 0.02783148516)
5(0.02799085391 0.02795248879 0.02790765447 0.0278716014 0.02782870469)
5(0.02798822597 0.02794977547 0.02790486065 0.02786880969 0.02782590353)
5(0.02798556817 0.02794704659 0.02790205421 0.02786596207 0.02782306755)
5(0.02798289929 0.02794425923 0.02789918456 0.0278630863 0.02782017292)
5(0.02798018199 0.0279414496 0.02789628317 0.02786016146 0.02781723955)
5(0.02797739746 0.02793855995 0.02789328829 0.02785716497 0.02781420186)
5(0.02797456895 0.02793559374 0.02789020517 0.02785408629 0.02781108369)
5(0.02797165504 0.02793253983 0.02788701561 0.02785086477 0.02780785145)
5(0.02796861176 0.02792937175 0.02788368689 0.02784750717 0.02780446143)
5(0.02796548152 0.0279260615 0.02788023454 0.0278439932 0.02780096689)
5(0.02796219109 0.02792262519 0.02787662509 0.02784031169 0.02779731508)
5(0.02795877299 0.0279190125 0.02787284907 0.02783649133 0.02779346547)
5(0.02795519822 0.02791521789 0.02786888809 0.02783248448 0.02778949351)
5(0.02795144856 0.02791124704 0.02786472911 0.02782827528 0.02778527301)
5(0.02794742895 0.02790703976 0.02786032098 0.02782382995 0.02778088949)
5(0.02794322772 0.02790258815 0.02785565843 0.02781916705 0.02777630345)
5(0.02793879977 0.02789788083 0.02785075801 0.02781423922 0.02777155334)
5(0.02793408381 0.02789289175 0.02784555207 0.02780904227 0.02776655764)
5(0.02792907812 0.02788759764 0.02784003962 0.02780358733 0.02776134059)
5(0.02792377948 0.02788195833 0.02783417244 0.02779785731 0.02775586234)
5(0.02791816847 0.02787598552 0.02782798754 0.02779182599 0.02775015424)
5(0.02791224722 0.02786965097 0.02782145508 0.02778552774 0.02774444523)
5(0.02790606621 0.02786296025 0.02781459563 0.02777901273 0.02773904539)
5(0.02789960293 0.02785595491 0.02780744073 0.0277723187 0.02773416342)
5(0.02789297721 0.02784868533 0.02779999116 0.02776570255 0.02772974219)