/*--------------------------------*- C++ -*----------------------------------*\
| =========                 |                                                 |
| \\      /  F ield         | OpenFOAM: The Open Source CFD Toolbox           |
|  \\    /   O peration     | Version:  2.3.1                                 |
|   \\  /    A nd           | Web:      www.OpenFOAM.org                      |
|    \\/     M anipulation  |                                                 |
\*---------------------------------------------------------------------------*/
FoamFile
{
    version     2.0;
    format      ascii;
    class       dictionary;
    location    "constant";
    object      mu;
}
// * * * * * * * * * * * * * * * * * * * * * * * * * * * * * * * * * * * * * //

mu_table
60
(

60
(
5(1.779908628e-05 1.77433331e-05 1.764153487e-05 1.758362573e-05 1.749806998e-05)
5(1.861944998e-05 1.806113854e-05 1.828850758e-05 1.8432378e-05 1.802132749e-05)
5(1.830789167e-05 2.01427104e-05 1.934917419e-05 1.943849275e-05 1.721486003e-05)
5(1.865979243e-05 2.175776015e-05 2.109597809e-05 2.050184492e-05 2.1213641e-05)
5(2.09585566e-05 2.304455289e-05 2.247987696e-05 2.250972974e-05 2.211762124e-05)
5(2.348074995e-05 2.427606696e-05 2.315568001e-05 2.392359059e-05 2.3173742e-05)
5(2.506319906e-05 2.551688607e-05 2.465499019e-05 2.507011244e-05 2.510377697e-05)
5(2.594222318e-05 2.679358644e-05 2.63041142e-05 2.655195113e-05 2.581227011e-05)
5(2.741221467e-05 2.806877844e-05 2.752021392e-05 2.791001371e-05 2.747961152e-05)
5(2.856061675e-05 2.93077266e-05 2.893362992e-05 2.913484974e-05 2.886158042e-05)
5(2.975040407e-05 3.046617169e-05 3.013541118e-05 3.038071232e-05 3.013904732e-05)
5(3.087277595e-05 3.15945443e-05 3.122269412e-05 3.157713791e-05 3.130218149e-05)
5(3.190771365e-05 3.270396995e-05 3.234992957e-05 3.278540849e-05 3.254006557e-05)
5(3.305594369e-05 3.378724376e-05 3.348763416e-05 3.385299618e-05 3.36706808e-05)
5(3.403603474e-05 3.480637969e-05 3.455343174e-05 3.498898884e-05 3.48029742e-05)
5(3.507668244e-05 3.583700344e-05 3.564087314e-05 3.606906245e-05 3.591827356e-05)
5(3.607143721e-05 3.682954816e-05 3.668242681e-05 3.712002379e-05 3.702430948e-05)
5(3.704121762e-05 3.780350229e-05 3.770057582e-05 3.816359438e-05 3.80876974e-05)
5(3.798576465e-05 3.876211247e-05 3.869747791e-05 3.915985252e-05 3.911884542e-05)
5(3.893884534e-05 3.972510568e-05 3.969166717e-05 4.017605653e-05 4.012216148e-05)
5(3.98466904e-05 4.062518844e-05 4.062629461e-05 4.112812334e-05 4.110812241e-05)
5(4.07472996e-05 4.152536936e-05 4.157440582e-05 4.20094387e-05 4.203708651e-05)
5(4.164932493e-05 4.242154383e-05 4.249127526e-05 4.297706864e-05 4.302574396e-05)
5(4.250829919e-05 4.331528636e-05 4.339987488e-05 4.388845503e-05 4.395298647e-05)
5(4.337228319e-05 4.417610941e-05 4.430057334e-05 4.48021967e-05 4.488476366e-05)
5(4.421533262e-05 4.501909722e-05 4.51996096e-05 4.570640002e-05 4.578409899e-05)
5(4.505025485e-05 4.584457329e-05 4.604219273e-05 4.658128761e-05 4.667260221e-05)
5(4.586232121e-05 4.666727583e-05 4.690509182e-05 4.743764443e-05 4.754152272e-05)
5(4.668711371e-05 4.748682307e-05 4.773082176e-05 4.82674152e-05 4.840194469e-05)
5(4.748624005e-05 4.829899931e-05 4.855044695e-05 4.907231929e-05 4.923447839e-05)
5(4.828427158e-05 4.90972317e-05 4.937814445e-05 4.990315706e-05 5.006794782e-05)
5(4.906267017e-05 4.987040813e-05 5.016341433e-05 5.067515219e-05 5.082382029e-05)
5(4.9827319e-05 5.06442e-05 5.096072288e-05 5.146498541e-05 5.16808984e-05)
5(5.059044177e-05 5.141181799e-05 5.175498927e-05 5.223400175e-05 5.240807641e-05)
5(5.134426755e-05 5.215642131e-05 5.251435267e-05 5.299829395e-05 5.318812255e-05)
5(5.208525954e-05 5.291397918e-05 5.330945692e-05 5.375805345e-05 5.395354266e-05)
5(5.281728864e-05 5.361463215e-05 5.399037755e-05 5.447115521e-05 5.471028517e-05)
5(5.353806948e-05 5.435035104e-05 5.472394632e-05 5.521667286e-05 5.532134963e-05)
5(5.425634022e-05 5.505404618e-05 5.546308212e-05 5.592186776e-05 5.617435102e-05)
5(5.497724368e-05 5.5757744e-05 5.62022052e-05 5.664507392e-05 5.648122271e-05)
5(5.56674257e-05 5.642684971e-05 5.686453564e-05 5.732436909e-05 5.724007154e-05)
5(5.633801616e-05 5.710002562e-05 5.753990631e-05 5.787686191e-05 5.797968196e-05)
5(5.700711238e-05 5.77429089e-05 5.819109493e-05 5.825587075e-05 5.872558252e-05)
5(5.767033431e-05 5.841554033e-05 5.896247948e-05 5.896869319e-05 5.947732321e-05)
5(5.832136418e-05 5.904648228e-05 5.957617092e-05 5.968039124e-05 6.018668587e-05)
5(5.893728398e-05 5.968939502e-05 6.016046056e-05 6.038891018e-05 6.08994761e-05)
5(5.954896176e-05 6.027456424e-05 6.047177657e-05 6.108841054e-05 6.160893778e-05)
5(6.013646612e-05 6.077171631e-05 6.102313597e-05 6.177467693e-05 6.231221954e-05)
5(6.073979573e-05 6.140596285e-05 6.168658563e-05 6.24547571e-05 6.300814237e-05)
5(6.131905318e-05 6.163238308e-05 6.235626076e-05 6.312729122e-05 6.369420966e-05)
5(6.185704605e-05 6.226636801e-05 6.30195389e-05 6.379654743e-05 6.43735525e-05)
5(6.2133369e-05 6.290802322e-05 6.367610718e-05 6.445832048e-05 6.504597782e-05)
5(6.26250958e-05 6.354446192e-05 6.432648009e-05 6.511428508e-05 6.571189091e-05)
5(6.323118297e-05 6.417230394e-05 6.497329894e-05 6.576196393e-05 6.637513447e-05)
5(6.385299392e-05 6.479476006e-05 6.561463527e-05 6.640749401e-05 6.703032763e-05)
5(6.451194035e-05 6.541509427e-05 6.625220229e-05 6.704088852e-05 6.767745319e-05)
5(6.521399637e-05 6.603726708e-05 6.688748727e-05 6.766987577e-05 6.830855762e-05)
5(6.589789217e-05 6.669813439e-05 6.75274204e-05 6.829100481e-05 6.891563558e-05)
5(6.655571788e-05 6.738605502e-05 6.822384733e-05 6.868511674e-05 6.951592097e-05)
5(6.723324018e-05 6.818885413e-05 6.909415877e-05 6.99914951e-05 7.05373599e-05)
)


60
(
5(1.798653216e-05 1.82325411e-05 1.785471683e-05 1.794809062e-05 1.772571821e-05)
5(1.927121367e-05 1.978562972e-05 1.906177082e-05 1.932733242e-05 1.883658821e-05)
5(2.062093066e-05 2.127634628e-05 2.043139724e-05 2.07918222e-05 2.018048125e-05)
5(2.201806104e-05 2.271224607e-05 2.192231893e-05 2.229803519e-05 2.171709654e-05)
5(2.342265829e-05 2.41029601e-05 2.343741423e-05 2.379478217e-05 2.332471498e-05)
5(2.479783389e-05 2.544463322e-05 2.489410607e-05 2.523073304e-05 2.487318587e-05)
5(2.609759941e-05 2.673586828e-05 2.625396413e-05 2.660276121e-05 2.630376818e-05)
5(2.733208653e-05 2.797808315e-05 2.755136368e-05 2.791397993e-05 2.764791165e-05)
5(2.852336165e-05 2.917804394e-05 2.879967109e-05 2.917577799e-05 2.89411973e-05)
5(2.968861912e-05 3.034702795e-05 3.001805087e-05 3.040623462e-05 3.020378363e-05)
5(3.081834845e-05 3.148460185e-05 3.120566912e-05 3.160265315e-05 3.143928747e-05)
5(3.192389167e-05 3.258991941e-05 3.23639229e-05 3.276477592e-05 3.264138635e-05)
5(3.299746671e-05 3.366696859e-05 3.348812594e-05 3.389419264e-05 3.380350514e-05)
5(3.404249047e-05 3.471612172e-05 3.458053825e-05 3.499571378e-05 3.493316293e-05)
5(3.506196337e-05 3.573935237e-05 3.564470439e-05 3.60668499e-05 3.60327759e-05)
5(3.605937849e-05 3.674098846e-05 3.668538955e-05 3.711279728e-05 3.710516539e-05)
5(3.703366873e-05 3.772054579e-05 3.770313672e-05 3.813615001e-05 3.815275163e-05)
5(3.798844016e-05 3.868030711e-05 3.869829714e-05 3.913624171e-05 3.917674492e-05)
5(3.892473444e-05 3.962002728e-05 3.96726458e-05 4.011630487e-05 4.017857249e-05)
5(3.98430531e-05 4.054301233e-05 4.062757357e-05 4.107704905e-05 4.116111359e-05)
5(4.07453523e-05 4.144956064e-05 4.156508552e-05 4.201833505e-05 4.21216808e-05)
5(4.163181696e-05 4.234060341e-05 4.248459023e-05 4.294295843e-05 4.306408746e-05)
5(4.250358503e-05 4.321612925e-05 4.338809345e-05 4.384961309e-05 4.39893417e-05)
5(4.336279844e-05 4.407812994e-05 4.427681226e-05 4.473909471e-05 4.48963606e-05)
5(4.420774995e-05 4.492594332e-05 4.514948532e-05 4.561504329e-05 4.578766964e-05)
5(4.504112977e-05 4.57613555e-05 4.601034806e-05 4.64769753e-05 4.666329382e-05)
5(4.58623135e-05 4.658339991e-05 4.68559462e-05 4.732475323e-05 4.752370883e-05)
5(4.667165985e-05 4.739508249e-05 4.768815381e-05 4.815816416e-05 4.836893659e-05)
5(4.747025119e-05 4.819510692e-05 4.850846813e-05 4.897795349e-05 4.920196678e-05)
5(4.825877733e-05 4.898322116e-05 4.931598756e-05 4.978558403e-05 5.001955902e-05)
5(4.903682188e-05 4.97606344e-05 5.011185294e-05 5.058061108e-05 5.082544025e-05)
5(4.980497539e-05 5.052771031e-05 5.089518638e-05 5.136371904e-05 5.161767455e-05)
5(5.056343608e-05 5.128448979e-05 5.166841577e-05 5.213471899e-05 5.239707801e-05)
5(5.131257917e-05 5.20310533e-05 5.242978219e-05 5.289412875e-05 5.316377743e-05)
5(5.205187672e-05 5.276786318e-05 5.318053046e-05 5.364184718e-05 5.391848689e-05)
5(5.278281157e-05 5.349430356e-05 5.391993775e-05 5.437837263e-05 5.466092474e-05)
5(5.350277367e-05 5.42102235e-05 5.464822718e-05 5.510220722e-05 5.53925806e-05)
5(5.421417747e-05 5.491642808e-05 5.536524483e-05 5.581548723e-05 5.611312429e-05)
5(5.49149331e-05 5.560999798e-05 5.607015482e-05 5.651759168e-05 5.681978441e-05)
5(5.560401547e-05 5.629396087e-05 5.67627621e-05 5.720655515e-05 5.751017525e-05)
5(5.628120506e-05 5.696342407e-05 5.744083957e-05 5.788268099e-05 5.818244651e-05)
5(5.694427715e-05 5.762292752e-05 5.810854798e-05 5.854413604e-05 5.884010145e-05)
5(5.759485306e-05 5.826666724e-05 5.876239246e-05 5.918951333e-05 5.948611157e-05)
5(5.822911327e-05 5.889355883e-05 5.940317921e-05 5.981878999e-05 6.012478093e-05)
5(5.884622233e-05 5.950871462e-05 6.002848068e-05 6.04342168e-05 6.075592308e-05)
5(5.944485731e-05 6.010849786e-05 6.063834371e-05 6.103958386e-05 6.138008914e-05)
5(6.002623239e-05 6.06940917e-05 6.123121457e-05 6.163801224e-05 6.199871736e-05)
5(6.059022084e-05 6.126403833e-05 6.181017218e-05 6.22307352e-05 6.261302336e-05)
5(6.113965122e-05 6.182042997e-05 6.237899235e-05 6.281825583e-05 6.322539494e-05)
5(6.167205856e-05 6.236262821e-05 6.294070341e-05 6.340196635e-05 6.383624292e-05)
5(6.219267574e-05 6.289269403e-05 6.349680052e-05 6.398258001e-05 6.444572157e-05)
5(6.270004396e-05 6.341491817e-05 6.404792385e-05 6.45613214e-05 6.505499194e-05)
5(6.319868072e-05 6.393224749e-05 6.459608889e-05 6.513742536e-05 6.566125252e-05)
5(6.36875336e-05 6.444300257e-05 6.513966549e-05 6.571021081e-05 6.626766785e-05)
5(6.416731066e-05 6.494998269e-05 6.567864274e-05 6.628030134e-05 6.686992717e-05)
5(6.463937296e-05 6.544901734e-05 6.621092912e-05 6.684445139e-05 6.746744329e-05)
5(6.510063639e-05 6.593784814e-05 6.673472625e-05 6.739962768e-05 6.805591128e-05)
5(6.554690878e-05 6.641289328e-05 6.724320181e-05 6.794014713e-05 6.862982271e-05)
5(6.596224432e-05 6.685889652e-05 6.772341052e-05 6.845272795e-05 6.917514203e-05)
5(6.607689552e-05 6.705455195e-05 6.774376628e-05 6.864732393e-05 6.952592999e-05)
)


60
(
5(1.801558424e-05 1.824802775e-05 1.789410082e-05 1.79914316e-05 1.776910112e-05)
5(1.942535736e-05 1.986645749e-05 1.924690352e-05 1.947208614e-05 1.905733857e-05)
5(2.083711514e-05 2.137800972e-05 2.06962527e-05 2.098304683e-05 2.050629411e-05)
5(2.223997194e-05 2.281423616e-05 2.219222849e-05 2.249341719e-05 2.205143537e-05)
5(2.362978719e-05 2.419801708e-05 2.367849846e-05 2.397334687e-05 2.361851656e-05)
5(2.497649075e-05 2.553237011e-05 2.51031199e-05 2.539524277e-05 2.512466131e-05)
5(2.625870431e-05 2.681370963e-05 2.645076879e-05 2.67531308e-05 2.653501466e-05)
5(2.748482781e-05 2.805091169e-05 2.773772095e-05 2.805467974e-05 2.787066604e-05)
5(2.86712329e-05 2.924885903e-05 2.898062521e-05 2.931271373e-05 2.915714353e-05)
5(2.982469211e-05 3.041177822e-05 3.018900187e-05 3.053441286e-05 3.041382843e-05)
5(3.094709348e-05 3.154250659e-05 3.136769334e-05 3.172260548e-05 3.163535411e-05)
5(3.204048644e-05 3.264209049e-05 3.251355426e-05 3.287680202e-05 3.282206769e-05)
5(3.310597997e-05 3.37140031e-05 3.362795951e-05 3.399919689e-05 3.397371704e-05)
5(3.4143125e-05 3.475866663e-05 3.471176481e-05 3.509159112e-05 3.509243238e-05)
5(3.515562536e-05 3.577811908e-05 3.576895357e-05 3.615583103e-05 3.618177716e-05)
5(3.614419994e-05 3.6774442e-05 3.680029553e-05 3.719518365e-05 3.724422417e-05)
5(3.711303329e-05 3.774873665e-05 3.780947541e-05 3.821124727e-05 3.828235997e-05)
5(3.806110063e-05 3.870341671e-05 3.879591747e-05 3.920506491e-05 3.929617197e-05)
5(3.899057206e-05 3.963926822e-05 3.976315693e-05 4.017793038e-05 4.028914349e-05)
5(3.990271032e-05 4.055756522e-05 4.071042001e-05 4.113192077e-05 4.126150443e-05)
5(4.079783299e-05 4.145980058e-05 4.164025947e-05 4.20669563e-05 4.221463457e-05)
5(4.167940499e-05 4.23462701e-05 4.25522787e-05 4.298379911e-05 4.314795105e-05)
5(4.254520836e-05 4.321754896e-05 4.344906742e-05 4.388481516e-05 4.406416454e-05)
5(4.33977358e-05 4.407460236e-05 4.43301292e-05 4.476905928e-05 4.496342393e-05)
5(4.42365984e-05 4.491789947e-05 4.51964538e-05 4.56382882e-05 4.584651795e-05)
5(4.50638001e-05 4.57483122e-05 4.60483183e-05 4.649363776e-05 4.671365886e-05)
5(4.587865782e-05 4.656577542e-05 4.688636508e-05 4.733425305e-05 4.756688404e-05)
5(4.668128497e-05 4.737230404e-05 4.77120363e-05 4.816222152e-05 4.84050729e-05)
5(4.747443692e-05 4.81663463e-05 4.852444934e-05 4.897577547e-05 4.923017952e-05)
5(4.825589993e-05 4.894929125e-05 4.932534872e-05 4.97777903e-05 5.004123034e-05)
5(4.902767441e-05 4.972226877e-05 5.011425855e-05 5.056687957e-05 5.084035451e-05)
5(4.978918088e-05 5.048388885e-05 5.089115011e-05 5.134413905e-05 5.16263412e-05)
5(5.054099838e-05 5.123484036e-05 5.165755092e-05 5.211031276e-05 5.239987146e-05)
5(5.128317367e-05 5.197685263e-05 5.241293704e-05 5.286477013e-05 5.316133243e-05)
5(5.201554667e-05 5.270809247e-05 5.315669693e-05 5.360792924e-05 5.391093048e-05)
5(5.273668253e-05 5.34293786e-05 5.389064024e-05 5.433990081e-05 5.464928746e-05)
5(5.344996012e-05 5.413994763e-05 5.461327224e-05 5.506060093e-05 5.53763558e-05)
5(5.415303982e-05 5.484029433e-05 5.532456604e-05 5.577017433e-05 5.60924682e-05)
5(5.484476295e-05 5.552981941e-05 5.60237991e-05 5.646804144e-05 5.679492086e-05)
5(5.552468753e-05 5.620682647e-05 5.67108006e-05 5.715337474e-05 5.748201333e-05)
5(5.619100896e-05 5.687156992e-05 5.738575887e-05 5.782566296e-05 5.815341247e-05)
5(5.684476099e-05 5.752355941e-05 5.80464926e-05 5.848383872e-05 5.881028362e-05)
5(5.748237527e-05 5.816002703e-05 5.86934408e-05 5.91259327e-05 5.945495466e-05)
5(5.81028096e-05 5.878071973e-05 5.932562684e-05 5.975218939e-05 6.008879026e-05)
5(5.870495064e-05 5.938359054e-05 5.994122695e-05 6.036437002e-05 6.071377149e-05)
5(5.928734319e-05 5.99710723e-05 6.054089789e-05 6.096399274e-05 6.132935326e-05)
5(5.98494239e-05 6.054197483e-05 6.11235586e-05 6.155393514e-05 6.193732524e-05)
5(6.039170134e-05 6.109547739e-05 6.169131403e-05 6.213535712e-05 6.253889116e-05)
5(6.091549197e-05 6.163199304e-05 6.224718193e-05 6.270911557e-05 6.313561979e-05)
5(6.14225803e-05 6.215674051e-05 6.279453084e-05 6.327676009e-05 6.372893877e-05)
5(6.191559629e-05 6.26698397e-05 6.333451484e-05 6.383972192e-05 6.431951481e-05)
5(6.239763496e-05 6.317502687e-05 6.386859939e-05 6.439839454e-05 6.490686565e-05)
5(6.287235605e-05 6.367398174e-05 6.439721792e-05 6.495291791e-05 6.549104695e-05)
5(6.334199561e-05 6.41683494e-05 6.49201563e-05 6.550283128e-05 6.607119828e-05)
5(6.380719272e-05 6.465507606e-05 6.54365672e-05 6.60478682e-05 6.664774373e-05)
5(6.426502563e-05 6.513369381e-05 6.594475623e-05 6.658515343e-05 6.721723884e-05)
5(6.471080822e-05 6.560060522e-05 6.64408606e-05 6.711224992e-05 6.777670566e-05)
5(6.513520502e-05 6.604751108e-05 6.691835357e-05 6.762199412e-05 6.831917977e-05)
5(6.550433867e-05 6.644952686e-05 6.735569073e-05 6.809686662e-05 6.882875493e-05)
5(6.547282457e-05 6.648868209e-05 6.721626075e-05 6.809123444e-05 6.902758108e-05)
)


60
(
5(1.799083657e-05 1.816961334e-05 1.78698953e-05 1.794287411e-05 1.774372749e-05)
5(1.946803078e-05 1.982474733e-05 1.930005138e-05 1.947509049e-05 1.912784047e-05)
5(2.090361285e-05 2.134832643e-05 2.078409263e-05 2.100746072e-05 2.062266021e-05)
5(2.230691776e-05 2.278415776e-05 2.228103005e-05 2.251890537e-05 2.217249413e-05)
5(2.368279455e-05 2.416322498e-05 2.37496646e-05 2.398999586e-05 2.371667168e-05)
5(2.501460015e-05 2.549218057e-05 2.515794176e-05 2.540388068e-05 2.520208836e-05)
5(2.62860334e-05 2.677027439e-05 2.649620979e-05 2.675415433e-05 2.660047342e-05)
5(2.750502885e-05 2.80033963e-05 2.777678625e-05 2.805090684e-05 2.793007327e-05)
5(2.868327916e-05 2.9196842e-05 2.901348271e-05 2.930463481e-05 2.921153342e-05)
5(2.982926558e-05 3.035625984e-05 3.021556867e-05 3.052166812e-05 3.045919448e-05)
5(3.09450919e-05 3.148248047e-05 3.138565647e-05 3.170362225e-05 3.167184013e-05)
5(3.203080572e-05 3.257868198e-05 3.252371312e-05 3.28520591e-05 3.285032185e-05)
5(3.308796551e-05 3.364575901e-05 3.363040494e-05 3.396918361e-05 3.399394233e-05)
5(3.41188755e-05 3.468616341e-05 3.470754248e-05 3.505659689e-05 3.51043711e-05)
5(3.512516852e-05 3.57014655e-05 3.575784735e-05 3.611580681e-05 3.618719138e-05)
5(3.61082484e-05 3.669391912e-05 3.678348997e-05 3.714976029e-05 3.724245198e-05)
5(3.706977098e-05 3.766483049e-05 3.778583401e-05 3.816078042e-05 3.827343437e-05)
5(3.801246626e-05 3.861536219e-05 3.876606416e-05 3.914856353e-05 3.928110156e-05)
5(3.893561375e-05 3.954745336e-05 3.972659109e-05 4.011698756e-05 4.026666614e-05)
5(3.984213614e-05 4.046166571e-05 4.066755295e-05 4.106531441e-05 4.123251926e-05)
5(4.073231901e-05 4.135937149e-05 4.159164705e-05 4.199600689e-05 4.217849452e-05)
5(4.160694514e-05 4.224206675e-05 4.249797631e-05 4.290796212e-05 4.310557833e-05)
5(4.246733924e-05 4.310902628e-05 4.338836258e-05 4.380401668e-05 4.401570123e-05)
5(4.331471464e-05 4.39615956e-05 4.4262709e-05 4.468383699e-05 4.490876513e-05)
5(4.414834826e-05 4.480054912e-05 4.512349311e-05 4.554832687e-05 4.578679558e-05)
5(4.496936052e-05 4.562716274e-05 4.596976381e-05 4.639842375e-05 4.664837186e-05)
5(4.577851133e-05 4.644068803e-05 4.68025031e-05 4.723487816e-05 4.749525321e-05)
5(4.657592643e-05 4.724228953e-05 4.762197337e-05 4.805761966e-05 4.832882397e-05)
5(4.73625212e-05 4.803232215e-05 4.84290302e-05 4.886697326e-05 4.914754213e-05)
5(4.81382735e-05 4.88109991e-05 4.922404097e-05 4.966446752e-05 4.995473555e-05)
5(4.890349684e-05 4.957874988e-05 5.000716066e-05 5.044942724e-05 5.074796001e-05)
5(4.965856481e-05 5.033588152e-05 5.077826669e-05 5.122253562e-05 5.152983887e-05)
5(5.040365757e-05 5.108249205e-05 5.153953515e-05 5.198465029e-05 5.229906348e-05)
5(5.113860714e-05 5.181912998e-05 5.228922006e-05 5.273503441e-05 5.305694277e-05)
5(5.186382554e-05 5.254520938e-05 5.302816241e-05 5.347459648e-05 5.380211477e-05)
5(5.257888139e-05 5.326147522e-05 5.375611351e-05 5.420344799e-05 5.45373149e-05)
5(5.328358123e-05 5.396663977e-05 5.447308063e-05 5.492086752e-05 5.52609434e-05)
5(5.397753747e-05 5.466156505e-05 5.517926458e-05 5.562698701e-05 5.597278122e-05)
5(5.46599096e-05 5.534496612e-05 5.587364681e-05 5.632139812e-05 5.667262828e-05)
5(5.532990067e-05 5.601600153e-05 5.655594553e-05 5.700345293e-05 5.735682761e-05)
5(5.598644378e-05 5.667479012e-05 5.722469858e-05 5.767249737e-05 5.802645606e-05)
5(5.66275596e-05 5.731901042e-05 5.787945048e-05 5.832691152e-05 5.868160691e-05)
5(5.725235962e-05 5.794757608e-05 5.851935582e-05 5.896554371e-05 5.93232357e-05)
5(5.785887049e-05 5.855891814e-05 5.9143496e-05 5.958765511e-05 5.995317627e-05)
5(5.844563314e-05 5.91523608e-05 5.975043771e-05 6.019465632e-05 6.05717094e-05)
5(5.901126067e-05 5.972661569e-05 6.033849806e-05 6.078746168e-05 6.117937707e-05)
5(5.955416711e-05 6.028109063e-05 6.090959307e-05 6.136818251e-05 6.177736445e-05)
5(6.007668941e-05 6.081719348e-05 6.146342691e-05 6.193835766e-05 6.23664099e-05)
5(6.057605727e-05 6.133539066e-05 6.200464086e-05 6.249900144e-05 6.294984751e-05)
5(6.105951729e-05 6.18383825e-05 6.25352593e-05 6.305187581e-05 6.352752151e-05)
5(6.152517516e-05 6.232940313e-05 6.305702994e-05 6.359813022e-05 6.410135378e-05)
5(6.197752339e-05 6.281198484e-05 6.357228272e-05 6.413991685e-05 6.467154924e-05)
5(6.242241228e-05 6.328941578e-05 6.408212386e-05 6.467634762e-05 6.523752438e-05)
5(6.286332556e-05 6.376173066e-05 6.45863235e-05 6.520770239e-05 6.579861681e-05)
5(6.330155692e-05 6.422818572e-05 6.508368091e-05 6.573263526e-05 6.635478093e-05)
5(6.373571032e-05 6.468783344e-05 6.55726308e-05 6.624907955e-05 6.690334684e-05)
5(6.416105052e-05 6.513458082e-05 6.604874999e-05 6.675449011e-05 6.743961366e-05)
5(6.456380388e-05 6.555793879e-05 6.650134516e-05 6.723769819e-05 6.795633178e-05)
5(6.490436949e-05 6.59260409e-05 6.690047205e-05 6.767695997e-05 6.843255756e-05)
5(6.481624967e-05 6.572176413e-05 6.665807503e-05 6.762276532e-05 6.844424508e-05)
)


60
(
5(1.794579304e-05 1.806482764e-05 1.782123522e-05 1.786341637e-05 1.769102626e-05)
5(1.946543623e-05 1.974563637e-05 1.929944267e-05 1.942637267e-05 1.913601914e-05)
5(2.091332288e-05 2.127606137e-05 2.080133787e-05 2.097027286e-05 2.065616238e-05)
5(2.231210224e-05 2.270837219e-05 2.229489458e-05 2.247973814e-05 2.220442599e-05)
5(2.3676912e-05 2.408183006e-05 2.375074388e-05 2.394298533e-05 2.37339896e-05)
5(2.499680784e-05 2.54057721e-05 2.514579279e-05 2.534868535e-05 2.520395967e-05)
5(2.625796106e-05 2.667806469e-05 2.647459478e-05 2.669243147e-05 2.659191385e-05)
5(2.746874636e-05 2.790613001e-05 2.774766363e-05 2.798437837e-05 2.791472034e-05)
5(2.864003935e-05 2.909511455e-05 2.897729672e-05 2.923216277e-05 2.918976323e-05)
5(2.977838013e-05 3.024842398e-05 3.017190617e-05 3.044338876e-05 3.042946328e-05)
5(3.088644821e-05 3.137038874e-05 3.133438329e-05 3.161954231e-05 3.163440886e-05)
5(3.196467247e-05 3.246104141e-05 3.246476574e-05 3.276285748e-05 3.280472831e-05)
5(3.301506887e-05 3.352313893e-05 3.35643797e-05 3.387374444e-05 3.394057704e-05)
5(3.403798836e-05 3.455910362e-05 3.463416611e-05 3.495555052e-05 3.504483361e-05)
5(3.503787151e-05 3.556982961e-05 3.567751564e-05 3.600949496e-05 3.611973932e-05)
5(3.601481987e-05 3.655772754e-05 3.669552912e-05 3.70384083e-05 3.716832786e-05)
5(3.697027455e-05 3.752358418e-05 3.769164858e-05 3.804356375e-05 3.819270055e-05)
5(3.790624705e-05 3.846962109e-05 3.866595144e-05 3.902597752e-05 3.919372763e-05)
5(3.882377573e-05 3.939684928e-05 3.96195245e-05 3.99894984e-05 4.017327446e-05)
5(3.972390611e-05 4.030636338e-05 4.055461218e-05 4.093272297e-05 4.11325306e-05)
5(4.060808289e-05 4.119950831e-05 4.147217873e-05 4.185775663e-05 4.20727109e-05)
5(4.147737728e-05 4.207715067e-05 4.237240528e-05 4.276532477e-05 4.299382843e-05)
5(4.233180774e-05 4.293931333e-05 4.325643142e-05 4.365579848e-05 4.389817646e-05)
5(4.317247971e-05 4.378744126e-05 4.412537777e-05 4.453036946e-05 4.478554574e-05)
5(4.400034327e-05 4.462191105e-05 4.497983172e-05 4.539029127e-05 4.565741444e-05)
5(4.481538267e-05 4.544280506e-05 4.58200441e-05 4.623573045e-05 4.651384004e-05)
5(4.561872112e-05 4.625206433e-05 4.664677195e-05 4.706729263e-05 4.735615579e-05)
5(4.641013898e-05 4.704871586e-05 4.746041063e-05 4.788520221e-05 4.818427105e-05)
5(4.719047414e-05 4.783345586e-05 4.826172915e-05 4.869052485e-05 4.899869984e-05)
5(4.795967302e-05 4.860712303e-05 4.905083064e-05 4.948305686e-05 4.980021445e-05)
5(4.871854101e-05 4.93701212e-05 4.98281746e-05 5.026357868e-05 5.058927857e-05)
5(4.946710505e-05 5.012197669e-05 5.059389569e-05 5.103241457e-05 5.13655459e-05)
5(5.02053305e-05 5.086354587e-05 5.134882324e-05 5.17901341e-05 5.213126945e-05)
5(5.093329594e-05 5.159416728e-05 5.209314274e-05 5.253642225e-05 5.288453033e-05)
5(5.165068186e-05 5.231475762e-05 5.282603219e-05 5.327180963e-05 5.362636964e-05)
5(5.235761893e-05 5.302513862e-05 5.354850712e-05 5.399627719e-05 5.435715483e-05)
5(5.305387063e-05 5.372412288e-05 5.425987421e-05 5.470937142e-05 5.507690874e-05)
5(5.373862702e-05 5.441230895e-05 5.495982666e-05 5.541165625e-05 5.578509089e-05)
5(5.441121637e-05 5.508949177e-05 5.564823975e-05 5.610205755e-05 5.648101856e-05)
5(5.507056995e-05 5.575346106e-05 5.632368459e-05 5.678010729e-05 5.716266875e-05)
5(5.571535947e-05 5.640419417e-05 5.698620508e-05 5.744506063e-05 5.782872082e-05)
5(5.634418902e-05 5.703959589e-05 5.763417014e-05 5.80949849e-05 5.848055093e-05)
5(5.695504805e-05 5.765865868e-05 5.826619839e-05 5.87291072e-05 5.911906689e-05)
5(5.754687344e-05 5.825996415e-05 5.888141373e-05 5.934615752e-05 5.974432344e-05)
5(5.81176887e-05 5.884128578e-05 5.947804368e-05 5.994677498e-05 6.035680659e-05)
5(5.866784914e-05 5.940243322e-05 6.005554085e-05 6.053199083e-05 6.095629843e-05)
5(5.919516289e-05 5.994229536e-05 6.061315172e-05 6.110248095e-05 6.154405797e-05)
5(5.970063476e-05 6.046083673e-05 6.115206217e-05 6.165974679e-05 6.212157954e-05)
5(6.018300088e-05 6.095938909e-05 6.167502586e-05 6.220625004e-05 6.269069003e-05)
5(6.064445827e-05 6.144011674e-05 6.218563174e-05 6.274217413e-05 6.325254985e-05)
5(6.108700598e-05 6.190678111e-05 6.268536323e-05 6.327055274e-05 6.380943778e-05)
5(6.151370181e-05 6.236192558e-05 6.317679894e-05 6.379252024e-05 6.436157309e-05)
5(6.192772396e-05 6.28094822e-05 6.366271109e-05 6.430872074e-05 6.490879375e-05)
5(6.233352306e-05 6.325149022e-05 6.414379072e-05 6.482094999e-05 6.545237452e-05)
5(6.273352054e-05 6.368857703e-05 6.461905714e-05 6.532654612e-05 6.598900492e-05)
5(6.313046785e-05 6.411988799e-05 6.508636375e-05 6.582298994e-05 6.651705483e-05)
5(6.351876066e-05 6.454070482e-05 6.554055546e-05 6.630608911e-05 6.703132791e-05)
5(6.388779101e-05 6.493855946e-05 6.596689524e-05 6.676508021e-05 6.752351308e-05)
5(6.419856602e-05 6.527435975e-05 6.632834305e-05 6.716949314e-05 6.796679577e-05)
5(6.406694836e-05 6.506019146e-05 6.595377226e-05 6.697380953e-05 6.778685113e-05)
)


60
(
5(1.789634098e-05 1.795972583e-05 1.77655813e-05 1.777721763e-05 1.76304517e-05)
5(1.944576875e-05 1.965950545e-05 1.927622478e-05 1.936085826e-05 1.911767015e-05)
5(2.090054121e-05 2.119306377e-05 2.078802427e-05 2.091049e-05 2.065336318e-05)
5(2.229340842e-05 2.262152551e-05 2.227690803e-05 2.241648384e-05 2.219755779e-05)
5(2.364757601e-05 2.398870275e-05 2.372104605e-05 2.387203195e-05 2.371448726e-05)
5(2.495644602e-05 2.530585015e-05 2.510428937e-05 2.526948728e-05 2.517170078e-05)
5(2.620871897e-05 2.657191717e-05 2.642314194e-05 2.660645141e-05 2.655004721e-05)
5(2.741113356e-05 2.779433149e-05 2.768866727e-05 2.78919742e-05 2.786534469e-05)
5(2.857482136e-05 2.897711373e-05 2.89102232e-05 2.913398713e-05 2.913330798e-05)
5(2.970554469e-05 3.012541956e-05 3.009747081e-05 3.033878779e-05 3.036558182e-05)
5(3.080574012e-05 3.124071842e-05 3.125145339e-05 3.150879092e-05 3.156242284e-05)
5(3.187680913e-05 3.23261715e-05 3.237434573e-05 3.264568199e-05 3.272523128e-05)
5(3.291971561e-05 3.338281589e-05 3.346602821e-05 3.375079955e-05 3.385350137e-05)
5(3.393679962e-05 3.441294435e-05 3.452888288e-05 3.482661298e-05 3.495096835e-05)
5(3.492920953e-05 3.541848759e-05 3.556504099e-05 3.587501163e-05 3.601912358e-05)
5(3.589938824e-05 3.640081398e-05 3.65766725e-05 3.689830863e-05 3.706149922e-05)
5(3.684871464e-05 3.736193909e-05 3.756563537e-05 3.789770785e-05 3.80788835e-05)
5(3.777824434e-05 3.830250354e-05 3.853280746e-05 3.887559993e-05 3.907367331e-05)
5(3.868978478e-05 3.922453916e-05 3.94802983e-05 3.983270053e-05 4.004695485e-05)
5(3.958374425e-05 4.012890606e-05 4.040875203e-05 4.077077418e-05 4.10001052e-05)
5(4.046187016e-05 4.10168654e-05 4.131974292e-05 4.169063517e-05 4.193424815e-05)
5(4.132511118e-05 4.188924214e-05 4.221394091e-05 4.25925769e-05 4.284997066e-05)
5(4.21734875e-05 4.274651867e-05 4.309181604e-05 4.347796618e-05 4.374859357e-05)
5(4.300834448e-05 4.358942914e-05 4.395462759e-05 4.434767459e-05 4.463058798e-05)
5(4.38302747e-05 4.441861457e-05 4.480290132e-05 4.520246735e-05 4.549679833e-05)
5(4.46393491e-05 4.523500577e-05 4.563709821e-05 4.604295056e-05 4.634814205e-05)
5(4.543623391e-05 4.603857165e-05 4.645771869e-05 4.686973231e-05 4.718493588e-05)
5(4.622170658e-05 4.683003827e-05 4.726570891e-05 4.768274646e-05 4.800763184e-05)
5(4.699613209e-05 4.760976424e-05 4.806106675e-05 4.84830876e-05 4.88173767e-05)
5(4.775914429e-05 4.837833142e-05 4.884424222e-05 4.927113233e-05 4.961438651e-05)
5(4.851136355e-05 4.913545507e-05 4.961560515e-05 5.004693978e-05 5.039860391e-05)
5(4.925295403e-05 4.988152079e-05 5.037600277e-05 5.081115964e-05 5.11709021e-05)
5(4.998417299e-05 5.061766849e-05 5.112480874e-05 5.156414102e-05 5.193148667e-05)
5(5.07050051e-05 5.13426053e-05 5.186287317e-05 5.230603639e-05 5.268021363e-05)
5(5.141479495e-05 5.205697925e-05 5.258964356e-05 5.303677276e-05 5.341774984e-05)
5(5.211353533e-05 5.276058891e-05 5.330560285e-05 5.375632711e-05 5.414411526e-05)
5(5.280067274e-05 5.345287052e-05 5.401086106e-05 5.446493816e-05 5.485965864e-05)
5(5.347575165e-05 5.413423512e-05 5.470414126e-05 5.516218357e-05 5.556387889e-05)
5(5.413772358e-05 5.480321138e-05 5.538557295e-05 5.584786709e-05 5.62553108e-05)
5(5.478555689e-05 5.545854046e-05 5.605446162e-05 5.652072611e-05 5.693288793e-05)
5(5.541795973e-05 5.610033931e-05 5.670886224e-05 5.718059961e-05 5.759534681e-05)
5(5.603311139e-05 5.672606993e-05 5.734908538e-05 5.782520608e-05 5.824345161e-05)
5(5.662988992e-05 5.733437393e-05 5.797208278e-05 5.845346224e-05 5.887739591e-05)
5(5.720763813e-05 5.792451001e-05 5.85781329e-05 5.906461901e-05 5.949706538e-05)
5(5.776524062e-05 5.84940804e-05 5.916392621e-05 5.965833392e-05 6.010281742e-05)
5(5.830125218e-05 5.904253429e-05 5.972919917e-05 6.023471257e-05 6.069437536e-05)
5(5.881500494e-05 5.956871192e-05 6.027290004e-05 6.079481878e-05 6.12715722e-05)
5(5.930622001e-05 6.007210729e-05 6.079543833e-05 6.133862191e-05 6.183641693e-05)
5(5.977540193e-05 6.055380738e-05 6.130137199e-05 6.186807728e-05 6.239043645e-05)
5(6.022241313e-05 6.101527059e-05 6.178982571e-05 6.238517063e-05 6.293546373e-05)
5(6.064841579e-05 6.146002457e-05 6.226394645e-05 6.289137069e-05 6.347191685e-05)
5(6.10554069e-05 6.188899873e-05 6.272718367e-05 6.33899139e-05 6.400511375e-05)
5(6.144601052e-05 6.230546565e-05 6.318186637e-05 6.388210307e-05 6.453194668e-05)