/*--------------------------------*- C++ -*----------------------------------*\
| =========                 |                                                 |
| \\      /  F ield         | OpenFOAM: The Open Source CFD Toolbox           |
|  \\    /   O peration     | Version:  2.3.1                                 |
|   \\  /    A nd           | Web:      www.OpenFOAM.org                      |
|    \\/     M anipulation  |                                                 |
\*---------------------------------------------------------------------------*/
FoamFile
{
    version     2.0;
    format      ascii;
    class       dictionary;
    location    "constant";
    object      PM11;
}
// * * * * * * * * * * * * * * * * * * * * * * * * * * * * * * * * * * * * * //

PM11_table
60
(

60
(
5(0.3627206939 0.3298305355 0.581933412 0.5451723426 0.8238537614)
5(0.1874123659 0.1253001563 0.2911649364 0.3031808418 0.8147067186)
5(0.03474542813 0.3053362168 0.3045635659 0.1739712828 0.1658153076)
5(0.08722577543 0.3355097933 0.3719435739 0.2812197861 1.110242792)
5(0.1814468899 0.2573532293 0.2453794102 0.3713904954 0.3389884687)
5(0.2077549612 0.1835050316 0.1602077941 0.3022955423 0.3585009703)
5(0.1563989048 0.1748016683 0.2525204267 0.2885483621 0.4938807711)
5(0.12701756 0.2023110866 0.2832322385 0.2990801735 0.255923226)
5(0.1482218028 0.2038193709 0.2591197962 0.3068664689 0.439357412)
5(0.1402111746 0.2129709782 0.2888247392 0.2908531377 0.4249775806)
5(0.1504272683 0.2088907275 0.2608985635 0.2997100903 0.401864265)
5(0.1549967846 0.2071853762 0.2438337905 0.3071923571 0.3823782997)
5(0.1571693856 0.2110917047 0.2538037264 0.3135240388 0.3957397927)
5(0.1611452906 0.2094110435 0.2553469558 0.2998754825 0.3878468539)
5(0.1543445975 0.2091865411 0.2564465949 0.3193274491 0.391919746)
5(0.161124789 0.2144379822 0.2656786611 0.3192762062 0.4030673834)
5(0.163093737 0.2166651143 0.267693659 0.3273565303 0.4180445439)
5(0.1660092347 0.2212734384 0.2736147649 0.3360505599 0.4191790823)
5(0.1706728332 0.2296692659 0.2803215464 0.3424243061 0.4236812841)
5(0.1778235117 0.237494925 0.287273595 0.3554129145 0.4220319374)
5(0.1795437863 0.2363992778 0.288742288 0.3481029013 0.4247048765)
5(0.1867830354 0.2456616071 0.2975526591 0.3442654324 0.4361169478)
5(0.1943430285 0.2566531736 0.3060266281 0.3773714501 0.4644896575)
5(0.2012209242 0.2703698796 0.3172025908 0.3854443229 0.4696515129)
5(0.2112892993 0.2782974535 0.3355445015 0.4082647972 0.4892217123)
5(0.2199934765 0.2893328886 0.3523455891 0.4271459916 0.4961987515)
5(0.230245209 0.3009371009 0.3616625858 0.4460810714 0.5135744835)
5(0.2435846681 0.3205983242 0.3846621338 0.46170945 0.5314683542)
5(0.2620603721 0.3402703911 0.395417858 0.475837113 0.5554721596)
5(0.2796806245 0.3641778285 0.41672797 0.4949401906 0.5781008902)
5(0.3015982919 0.3876997715 0.4443021258 0.5240595218 0.5855732676)
5(0.3213341182 0.4092942881 0.4605745279 0.5283059868 0.5886037052)
5(0.3466105233 0.4430576337 0.497733251 0.56639189 0.6568723459)
5(0.3775374809 0.4774616946 0.529967714 0.579806277 0.6153672325)
5(0.4084479728 0.5104157145 0.5646594337 0.6139752441 0.6652521599)
5(0.4452104518 0.5555425731 0.6037927692 0.6318171855 0.6874745362)
5(0.477934063 0.5724238241 0.5928757245 0.6585700841 0.6721000301)
5(0.5220530224 0.6282247587 0.650647549 0.6778582913 0.6050124274)
5(0.5704677889 0.6666418296 0.7039823185 0.7148029724 0.6235445733)
5(0.6218767455 0.7102424367 0.7426606924 0.6571232811 0.2632878586)
5(0.6565933554 0.7340808112 0.7370320743 0.6147645949 0.4564522846)
5(0.700426146 0.7699298517 0.7340163947 0.433104021 0.5534281657)
5(0.7465906246 0.7967455834 0.7285347828 0.392465796 0.7622676643)
5(0.8044360177 0.8729317773 0.8365372056 0.5327208209 0.8135066279)
5(0.8415368627 0.8880565049 0.7554577735 0.5797512302 0.8256727093)
5(0.877157849 0.912213347 0.5823905236 0.6389663756 0.8605662649)
5(0.8981447447 0.7675015028 0.4023804874 0.7689425224 0.8990488535)
5(0.8868720391 0.7057341118 0.5404860172 0.8378384726 0.9430700087)
5(0.9489865509 0.6153636489 0.6167517391 0.8809545151 0.9861731622)
5(0.7720075957 0.4063312663 0.7626955319 0.9210213084 1.027400181)
5(0.6264216381 0.6084851825 0.8048178763 0.9715570726 1.07085141)
5(0.5581865356 0.7444721585 0.8458402893 1.021624942 1.114707317)
5(0.7214173285 0.8269342785 0.8921733937 1.077877756 1.160975677)
5(0.8192470884 0.8849219328 0.9508046795 1.138601567 1.219048429)
5(0.9019979903 0.9515039291 1.021251954 1.218605681 1.274860984)
5(1.042687714 1.030762603 1.109690211 1.298578266 1.33883564)
5(1.289737364 1.146821783 1.230841734 1.409085642 1.412161951)
5(1.704577993 1.418490909 1.420154226 1.621359753 1.4437026)
5(2.21062528 1.936059218 1.823414582 1.207799088 1.631754602)
5(1.257012323 1.727649275 1.492694065 1.814504853 2.121942975)
)


60
(
5(0.5305611867 0.4720791919 0.8045186581 0.7895619771 1.096168312)
5(0.3299829298 0.2507082981 0.4995213786 0.5685920787 0.6984089889)
5(0.1429123139 0.3180929457 0.4263784432 0.4668692948 0.3585761167)
5(0.07605544902 0.3388436353 0.4828608488 0.3933068149 0.8573163914)
5(0.1184728239 0.3152265639 0.4536057867 0.463461465 0.6577360754)
5(0.204014097 0.2912648136 0.315481734 0.4445964931 0.5385659574)
5(0.2407569314 0.2777836727 0.3208429175 0.3954716179 0.6189354971)
5(0.1934765412 0.2765630544 0.3635223719 0.4135128519 0.4732463166)
5(0.2106940116 0.2822815396 0.3502159353 0.4226382219 0.5281358642)
5(0.2014110927 0.2889802225 0.3785144832 0.4153670052 0.5433464557)
5(0.2051579431 0.2889957029 0.3759530935 0.4181656472 0.5455992836)
5(0.2140837969 0.290301666 0.3587544142 0.418788448 0.5291175967)
5(0.2135024756 0.2934631062 0.3547456084 0.4297495911 0.5374211853)
5(0.2261216707 0.2975529843 0.3595520885 0.4192041748 0.5305639048)
5(0.2197308359 0.2960034706 0.3570928881 0.4293792835 0.532514165)
5(0.2249708423 0.3004579261 0.364527216 0.434416753 0.5379317057)
5(0.2281201131 0.3037693953 0.3683493661 0.4394746225 0.5489910634)
5(0.232042746 0.3080455263 0.3734909365 0.4493543975 0.5571187274)
5(0.235326895 0.3139730095 0.379073308 0.454364481 0.5635793548)
5(0.2433598255 0.3255669323 0.3898606094 0.4705723855 0.5696509607)
5(0.2475807717 0.3284119637 0.3920508858 0.4765034151 0.5777769719)
5(0.2540996056 0.3355020237 0.4027639077 0.4688980498 0.5762358758)
5(0.2647828932 0.3463158132 0.4113754674 0.4907239949 0.5996322369)
5(0.2708351794 0.3615768424 0.4231240926 0.503668981 0.6115921384)
5(0.2818985271 0.3737636998 0.4389866833 0.5246217062 0.632374144)
5(0.2926967689 0.3861201504 0.4607143426 0.5494160228 0.649691114)
5(0.3060031169 0.3996773671 0.4716348777 0.5720994308 0.6708145829)
5(0.3187152683 0.4180062512 0.4951667512 0.5953019762 0.6930774147)
5(0.3393410908 0.4408460403 0.5133896097 0.6166597363 0.7203650696)
5(0.358744532 0.4677891841 0.5361164788 0.6349179443 0.7440748016)
5(0.3833337643 0.4969503839 0.5691783302 0.6724590251 0.7766925236)
5(0.4083902099 0.5242847881 0.5938078256 0.6922989722 0.7808838775)
5(0.4354428412 0.5592704357 0.6308122613 0.7274878523 0.8417130054)
5(0.4686145684 0.5990630752 0.6751109599 0.7611406152 0.8464426369)
5(0.5060158833 0.6374524793 0.7122892213 0.8006685249 0.8857793147)
5(0.5463089661 0.6899951561 0.7761745123 0.8460570514 0.9249981281)
5(0.5913150741 0.7234082277 0.7890662119 0.8732019643 0.9671332259)
5(0.6386227863 0.7826030255 0.8370005834 0.9272942873 0.9295380872)
5(0.6942299996 0.8335613014 0.8966397267 0.9634687952 1.03816932)
5(0.7613170355 0.8932926429 0.9657174569 1.017685935 0.8409755628)
5(0.8212656654 0.9399170477 0.9946212758 1.047830644 0.8869190377)
5(0.8799780356 0.9969881793 1.03766361 0.9916423186 0.928880858)
5(0.9464194762 1.039418659 1.069671614 0.8483727887 0.9805400012)
5(1.019188937 1.112049937 1.193919027 0.89428781 1.046487457)
5(1.094444052 1.164445356 1.203612128 0.9420186868 1.093288531)
5(1.154349566 1.231437435 1.192756793 0.9999753046 1.146483972)
5(1.220245353 1.255497764 0.9832790413 1.059842999 1.201767)
5(1.273222574 1.211961993 0.9567440958 1.117142031 1.25987909)
5(1.350484092 1.278795905 1.003527445 1.178331374 1.32002846)
5(1.409598455 1.020255885 1.061754034 1.239762757 1.377220782)
5(1.426641436 1.072317479 1.124417227 1.310345911 1.4376964)
5(1.190503551 1.142800414 1.192165764 1.382569782 1.497306695)
5(1.161498421 1.22115095 1.264191981 1.459226933 1.555692425)
5(1.234108479 1.303692053 1.347360241 1.538034747 1.624811359)
5(1.332346429 1.39788162 1.439272258 1.630348903 1.690686263)
5(1.503655067 1.510644627 1.548109746 1.72034842 1.759656889)
5(1.788928656 1.659563584 1.683937023 1.828521009 1.832761774)
5(2.137711913 1.926421934 1.877902972 1.968293022 1.884095572)
5(2.528425436 2.402227073 2.365090258 1.830236689 2.033956589)
5(1.603440454 1.630866553 1.200148145 1.828166969 2.43436978)
)


60
(
5(0.7607336962 0.7932594205 1.075472861 1.116882742 1.408909872)
5(0.5958637678 0.7103536274 0.8680296806 0.9883880231 1.148428954)
5(0.534912848 0.680916637 0.7888982147 0.9325751415 1.065617969)
5(0.5185056412 0.6682417395 0.7704433174 0.9117902501 1.057680726)
5(0.5181954291 0.6610721383 0.7759385265 0.9082300709 1.074797423)
5(0.5243281445 0.6546380408 0.7813404931 0.9020723279 1.080961583)
5(0.5239857299 0.6512185025 0.7739960245 0.8990635143 1.070650233)
5(0.5196002056 0.6477357919 0.7674414428 0.8948650614 1.056580596)
5(0.5159676075 0.6442682898 0.7607323021 0.8887799192 1.047028347)
5(0.5172372686 0.6438663926 0.7593619179 0.8878590952 1.042227319)
5(0.5169305216 0.6455841458 0.7596067434 0.888428698 1.04265228)
5(0.5212123887 0.6471375312 0.7627636162 0.8899604924 1.044909062)
5(0.524706573 0.6503977982 0.7657029074 0.8917516143 1.045311134)
5(0.5280995947 0.6539892732 0.7689274312 0.8964772677 1.047865405)
5(0.5322371364 0.6583272613 0.7727639875 0.9008971318 1.05093656)
5(0.5384947943 0.6645493909 0.7789528863 0.9069672215 1.055901914)
5(0.5449260137 0.6716495743 0.7867174637 0.9147732533 1.062235964)
5(0.5521552526 0.6804477681 0.7956784707 0.9238242516 1.070298351)
5(0.5615396343 0.6894233512 0.8054251459 0.9343100553 1.080064445)
5(0.5711994739 0.7005184435 0.8169747171 0.9471547122 1.092201227)
5(0.5826153727 0.713278064 0.8298883967 0.9599213458 1.104399654)
5(0.5957459201 0.7273908518 0.8444848168 0.9769648303 1.119807453)
5(0.6102731182 0.7432276703 0.8610467958 0.9943848567 1.137171252)
5(0.6264645557 0.7614691825 0.880969718 1.013083222 1.15616045)
5(0.644669115 0.7815917406 0.9009982392 1.036029776 1.177265052)
5(0.6658069569 0.8040529394 0.9261865265 1.06161824 1.201180528)
5(0.6890215936 0.828445809 0.9524455066 1.08972236 1.227676836)
5(0.7147000959 0.8569258651 0.9813442172 1.120139673 1.256228211)
5(0.7434969437 0.8882425687 1.013891842 1.153409827 1.288939504)
5(0.7760622621 0.9221416861 1.049079557 1.189746563 1.322945718)
5(0.8114658805 0.9593948398 1.087742941 1.229084888 1.361581363)
5(0.8508265075 1.000241806 1.129472876 1.271895715 1.4020434)
5(0.8943494709 1.044907684 1.174635198 1.317343991 1.445144647)
5(0.9421393125 1.09295759 1.222933604 1.365872497 1.49083396)
5(0.9940869088 1.145251187 1.275074249 1.417131154 1.54031509)
5(1.051255498 1.200779382 1.329947498 1.471586863 1.590008662)
5(1.112387299 1.260056171 1.388617257 1.52636149 1.642936898)
5(1.181069496 1.324358797 1.449403958 1.584838061 1.697378399)
5(1.254005107 1.389955281 1.51332576 1.646202158 1.750415984)
5(1.33269659 1.462965636 1.579832177 1.707937367 1.802611859)
5(1.418195983 1.535211493 1.64556487 1.771154718 1.850938322)
5(1.509651053 1.617317353 1.718120357 1.833150796 1.898006329)
5(1.611258538 1.699825354 1.791733188 1.889799562 1.941252363)
5(1.718694694 1.781752504 1.867443279 1.941563997 1.981792037)
5(1.83507292 1.873004575 1.940078242 1.987890416 2.020361953)
5(1.955094073 1.967766755 2.011686213 2.032093457 2.057492987)
5(2.083441703 2.067238054 2.073583604 2.074873295 2.091914209)
5(2.212567537 2.163615608 2.133088888 2.116758697 2.126853589)
5(2.35605798 2.259306669 2.18670066 2.158925311 2.16175831)
5(2.487994078 2.343560594 2.238163799 2.20190988 2.197437016)
5(2.621843477 2.415908062 2.286379602 2.2441648 2.234539504)
5(2.738427386 2.479799382 2.332755765 2.284331301 2.272316895)
5(2.831164149 2.536388551 2.377997238 2.325454123 2.307232232)
5(2.887575999 2.580822692 2.418797315 2.367271498 2.346517222)
5(2.912370991 2.622841968 2.459041045 2.409735584 2.383104267)
5(2.914123489 2.654891997 2.494812425 2.449697671 2.420069009)
5(2.897690267 2.682625759 2.528659772 2.485122189 2.452923939)
5(2.880584522 2.712447965 2.565339671 2.522419132 2.485325468)
5(2.899209555 2.781207648 2.638727556 2.568701865 2.520102607)
5(2.757651492 2.514510178 2.656587595 2.699665658 2.661319394)
)


60
(
5(0.9171406924 0.9672597735 1.232001774 1.289633816 1.563351406)
5(0.7557180324 0.874983123 1.051176895 1.177268328 1.364217394)
5(0.6927745329 0.8404956212 0.9799806846 1.122538273 1.283847404)
5(0.6695643101 0.8245123957 0.9503392422 1.09454854 1.255388821)
5(0.6649883811 0.8124528859 0.9434986456 1.081138718 1.249011886)
5(0.6637854618 0.8015625049 0.9385939429 1.070283284 1.240186941)
5(0.6602491691 0.7935037222 0.9294153187 1.062338187 1.227374078)
5(0.6544094243 0.7875714953 0.9204987972 1.053915674 1.213618332)
5(0.6503548524 0.7831533089 0.9136150992 1.047698835 1.202295902)
5(0.648131858 0.7806707891 0.9087830795 1.042661994 1.196455275)
5(0.6471483652 0.7790198689 0.9071542499 1.040387454 1.191908801)
5(0.648188312 0.7787686968 0.9065931502 1.038676059 1.188704458)
5(0.6508111973 0.7804428129 0.9072313371 1.039226223 1.186912656)
5(0.6541218738 0.7825903802 0.9088346114 1.040523592 1.18618006)
5(0.6574099246 0.7858767267 0.9117421003 1.043054203 1.186732754)
5(0.6611254623 0.7900604633 0.9157303014 1.046800082 1.188625978)
5(0.6678807509 0.7954191406 0.9210970732 1.052288645 1.192226293)
5(0.6748207933 0.8021516368 0.9270918285 1.059740277 1.196518462)
5(0.6828683662 0.8101776804 0.9358505744 1.066890605 1.202893511)
5(0.6923796289 0.819584144 0.9447798466 1.076918603 1.210929204)
5(0.7023779088 0.8305768397 0.9557060751 1.088063717 1.22089228)
5(0.7149476913 0.8430372185 0.9678381466 1.10030224 1.231592698)
5(0.7286012212 0.8573136512 0.9827346428 1.115641567 1.244402029)
5(0.7442606204 0.8732987281 0.9988560356 1.1318563 1.25965046)
5(0.7614781502 0.8907769176 1.016982439 1.150151188 1.275948317)
5(0.780865909 0.911206826 1.037317618 1.171253268 1.294671614)
5(0.8025062267 0.9318140111 1.059367243 1.193939595 1.316175886)
5(0.8260842399 0.9568525529 1.08499311 1.220553378 1.339614193)
5(0.854245675 0.9833809164 1.112003134 1.247590212 1.36586107)
5(0.8830891393 1.012804123 1.142508634 1.279016717 1.393564736)
5(0.9167294682 1.046097522 1.176102466 1.312276219 1.42581066)
5(0.9533474196 1.081761367 1.211735772 1.348428417 1.460580542)
5(0.9930389541 1.119608893 1.251505917 1.388199326 1.497971075)
5(1.036652751 1.163602775 1.294313151 1.431145477 1.538355901)
5(1.085043824 1.209454264 1.339476897 1.477096521 1.582812861)
5(1.136897174 1.259714214 1.389875463 1.525806399 1.629394213)
5(1.194458325 1.314109196 1.443450375 1.577927722 1.678769498)
5(1.260153938 1.373202322 1.501347079 1.63364807 1.732349592)
5(1.330166049 1.437297756 1.563162635 1.693825801 1.789177954)
5(1.408388826 1.506334703 1.628838605 1.758502593 1.850258785)
5(1.4943779 1.582480515 1.700966587 1.828402989 1.916890312)
5(1.590086736 1.666981293 1.77733726 1.903255215 1.982071959)
5(1.697819257 1.757379508 1.861465602 1.978213277 2.046177412)
5(1.813664375 1.856306372 1.952098438 2.052937138 2.104994754)
5(1.9421267 1.961264702 2.048775538 2.126545881 2.161083424)
5(2.077565087 2.078479288 2.148910974 2.196673791 2.213913252)
5(2.218745961 2.206770146 2.248554139 2.264461137 2.266273331)
5(2.366459356 2.342176847 2.346543008 2.330893112 2.3188673)
5(2.52257156 2.477276603 2.441412573 2.392475009 2.370879544)
5(2.689074259 2.616385226 2.531015183 2.454021104 2.422357257)
5(2.860910458 2.743163812 2.614174174 2.511916425 2.468795183)
5(3.025820179 2.860433294 2.690435158 2.568322882 2.515615334)
5(3.175179913 2.960638665 2.761308232 2.623438122 2.560498721)
5(3.294908823 3.046801941 2.821208108 2.670152795 2.596922306)
5(3.382431539 3.111294164 2.873202529 2.714172761 2.631624104)
5(3.423990388 3.15715481 2.913187316 2.751105128 2.660594304)
5(3.4297718 3.186281665 2.942229681 2.779909213 2.683327637)
5(3.402661535 3.201161951 2.972033585 2.802822008 2.700615516)
5(3.3186318 3.233629023 3.052734981 2.854896889 2.73472944)
5(2.621822769 2.439605505 2.844811781 2.870385307 2.671747463)
)


60
(
5(1.030526841 1.081377801 1.325072939 1.388987494 1.640518882)
5(0.8687350403 0.9786319723 1.165778506 1.285681107 1.478037865)
5(0.7997048027 0.9410160299 1.094073143 1.22941378 1.396231235)
5(0.7728224501 0.9224360975 1.057093392 1.196529983 1.357418017)
5(0.7623495828 0.9064732997 1.040692416 1.177052268 1.335267835)
5(0.7569437357 0.8918403197 1.030543734 1.162918817 1.317945452)
5(0.7509636981 0.8820921456 1.0198766 1.151459492 1.303086909)
5(0.7441731405 0.8736397136 1.009313109 1.141247483 1.289323413)
5(0.7373650822 0.8670726731 1.001056864 1.132831018 1.277001316)
5(0.7331491414 0.862392115 0.993979847 1.125882741 1.26712111)
5(0.731407069 0.8590871121 0.9896330679 1.120445465 1.259088871)
5(0.7305164871 0.8572071182 0.9863758785 1.116545251 1.253259857)
5(0.7311182535 0.856475712 0.9850612555 1.114873932 1.248907012)
5(0.7327152034 0.8569053474 0.9846428048 1.114250634 1.245302507)
5(0.7357544255 0.8581938115 0.9856056671 1.114473112 1.243874938)
5(0.739030998 0.8611148464 0.9877834074 1.115678564 1.243040262)
5(0.7431114104 0.8647332278 0.9908783792 1.119356555 1.24378544)
5(0.7495852757 0.8696069061 0.9951959073 1.122591568 1.245573007)
5(0.7556309595 0.8759086682 1.000994255 1.128462586 1.24901402)
5(0.7643378195 0.883222942 1.007541628 1.134833127 1.253817517)
5(0.7737800585 0.8915940798 1.016507163 1.14373804 1.260103043)
5(0.7831159125 0.9021669099 1.026002456 1.153077233 1.267116245)
5(0.7954001468 0.9136023789 1.037865732 1.164732508 1.276165547)
5(0.8103429064 0.9267535125 1.050083013 1.17758127 1.286721556)
5(0.8253658919 0.9412189844 1.065357999 1.192281804 1.299880383)
5(0.8427218008 0.9579095152 1.082057027 1.208654702 1.313571221)
5(0.8622224522 0.9763904304 1.100765991 1.227024626 1.329556029)
5(0.8837998808 0.9972770218 1.121165084 1.24783068 1.347757362)
5(0.9075962132 1.020136498 1.143839197 1.270014058 1.368293047)
5(0.9340597595 1.045033559 1.169341085 1.29542176 1.39101343)
5(0.9641333839 1.073002149 1.197402141 1.322799889 1.416396794)
5(0.9964314254 1.103828127 1.226308278 1.352698551 1.444762955)
5(1.031997986 1.137084048 1.260846799 1.385718825 1.47559393)
5(1.071442071 1.173942258 1.296879746 1.421978258 1.511058896)
5(1.114887835 1.213658311 1.336955408 1.46136729 1.548678319)
5(1.164023901 1.258248929 1.380713281 1.505178478 1.590781839)
5(1.217090012 1.307191998 1.427348167 1.552123144 1.635214791)
5(1.276825864 1.36114144 1.480542473 1.602802201 1.684425755)
5(1.343089128 1.420818011 1.538027261 1.658737848 1.741363884)
5(1.418314188 1.487014016 1.601319982 1.722864712 1.806789509)
5(1.500560961 1.560859829 1.671582755 1.795393174 1.87911436)
5(1.594621619 1.642816348 1.748954343 1.875170603 1.956190596)
5(1.697281566 1.734229332 1.836358526 1.962169235 2.030595816)
5(1.808606936 1.834885542 1.935182624 2.052091085 2.10317674)
5(1.924894426 1.945967064 2.047199857 2.14262671 2.171094553)
5(2.049525705 2.066933832 2.165489878 2.233828071 2.238751704)
5(2.1730611 2.199902229 2.293266367 2.323463792 2.30877939)
5(2.311573923 2.347107295 2.424379511 2.412999672 2.376081889)
5(2.447258355 2.503223557 2.548727555 2.500631277 2.445566741)
5(2.603211211 2.664651378 2.674931216 2.586490735 2.511337127)
5(2.771020415 2.823054104 2.797066471 2.669535435 2.577500113)
5(2.941222573 2.977013361 2.909987772 2.748108484 2.634780684)
5(3.109363881 3.12120508 3.016183909 2.821830301 2.691084774)
5(3.265687826 3.24884185 3.108802574 2.887747042 2.7420313)
5(3.396677667 3.349375625 3.18117965 2.941144165 2.786921529)
5(3.493733947 3.423636742 3.235355197 2.984701871 2.823158376)
5(3.54981074 3.462911757 3.272364894 3.019892799 2.851643379)
5(3.554038452 3.473578421 3.289246512 3.041858534 2.87578349)
5(3.418977047 3.387696378 3.278939591 3.086109631 2.921578534)
5(2.624390772 2.652332503 2.759144406 2.851415488 2.76744515)
)


60
(
5(1.114977658 1.160984835 1.380444601 1.446579319 1.676803194)
5(0.9499319687 1.049196714 1.236702013 1.348388067 1.537243209)
5(0.8768699676 1.00891878 1.164686342 1.292326291 1.455230323)
5(0.8464647239 0.9883471501 1.123177289 1.256452503 1.408592753)
5(0.8323605337 0.9696287004 1.101519549 1.233473795 1.378128711)
5(0.8240257814 0.952875156 1.087993098 1.215906548 1.355568556)
5(0.81602086 0.9405668145 1.075593256 1.202593835 1.339019371)
5(0.8076666508 0.9303265924 1.063665241 1.191075856 1.325031375)
5(0.7994835197 0.9223405494 1.054012579 1.18068432 1.311377888)
5(0.7940310713 0.9152934478 1.045103239 1.171542108 1.299206156)
5(0.790544087 0.910869499 1.038960354 1.164301175 1.288803244)
5(0.7886316247 0.9068687521 1.033720235 1.159031191 1.280748156)
5(0.7880722667 0.9046668761 1.031153425 1.155099935 1.274363432)
5(0.7877604183 0.9035816949 1.028631094 1.15255586 1.269381504)
5(0.7896413757 0.9036882909 1.028272311 1.150990007 1.265477593)
5(0.7921661937 0.9047850827 1.027682386 1.150546142 1.262590487)
5(0.7953186217 0.9068931553 1.029585328 1.151680109 1.261030788)
5(0.7996047649 0.910128816 1.032265606 1.152415653 1.260847536)
5(0.8057004804 0.9145272186 1.035541732 1.156782546 1.261747494)
5(0.8120185173 0.9200685041 1.040672237 1.160719403 1.264062794)
5(0.8201047856 0.9264495828 1.046630495 1.166681071 1.26722185)
5(0.8295502725 0.9348921162 1.05430293 1.173884872 1.271667179)
5(0.8395001044 0.9438834751 1.062891253 1.181890675 1.277458048)
5(0.8520843622 0.9544161106 1.073213913 1.191855053 1.284101843)
5(0.8651920002 0.9665812939 1.085235205 1.203028442 1.293069374)
5(0.8805337969 0.9796548623 1.098186101 1.215603233 1.303341937)
5(0.8984651289 0.9957857659 1.113193551 1.230073145 1.31531853)
5(0.9178307585 1.013250023 1.129800503 1.246165924 1.328747466)
5(0.937548356 1.032251308 1.148801263 1.264602358 1.344170229)
5(0.9618154199 1.053515091 1.169535339 1.284437772 1.36144007)
5(0.9877500768 1.077768095 1.192504645 1.306785705 1.382340785)
5(1.017433284 1.103676617 1.217473836 1.33070928 1.404010903)
5(1.049229146 1.132891005 1.245290287 1.358415356 1.429661252)
5(1.085828935 1.164553415 1.276864311 1.388696816 1.458420031)
5(1.12651598 1.200037024 1.310721154 1.422470996 1.491589521)
5(1.171181717 1.239957889 1.349038024 1.460143644 1.527275672)
5(1.221153142 1.283117024 1.390329538 1.501172373 1.56707639)
5(1.277862596 1.33214231 1.437574261 1.546444615 1.61112607)
5(1.340893224 1.387500006 1.49022208 1.597876965 1.663967545)
5(1.410412632 1.449002108 1.549147218 1.658533983 1.728560604)
5(1.488575675 1.518955119 1.615631409 1.727789748 1.801335506)
5(1.572731664 1.596289017 1.691120793 1.808622069 1.880410839)
5(1.660997606 1.68169425 1.776777772 1.8979019 1.961749222)
5(1.758512483 1.77520365 1.876221902 1.995430175 2.040661709)
5(1.856792591 1.876842977 1.987387415 2.096280653 2.121567991)
5(1.957055913 1.986793479 2.114494136 2.199967697 2.202727837)
5(2.060745577 2.108568473 2.250893274 2.307114447 2.288833597)
5(2.166578074 2.241357768 2.389579371 2.415365439 2.375196766)
5(2.278512028 2.383735747 2.531371596 2.529049833 2.461814477)
5(2.402448098 2.538444664 2.679124823 2.644915607 2.548110238)
5(2.540459341 2.694772692 2.826134068 2.760021212 2.63349338)
5(2.688709035 2.852569153 2.969657379 2.868942194 2.714954248)
5(2.828647599 3.011568746 3.110760196 2.973317431 2.789283453)
5(2.968773852 3.161177863 3.238945097 3.063314518 2.861215903)
5(3.101369228 3.298241921 3.34201776 3.14141483 2.921620399)
5(3.234751778 3.411410123 3.420279779 3.201613089 2.972708111)
5(3.337610178 3.489463816 3.468203721 3.242958522 3.01425023)
5(3.408613606 3.520842308 3.474097013 3.260388152 3.046217032)
5(3.358138511 3.371908427 3.321981977 3.217340569 3.076555862)
5(2.552253531 2.521150301 2.689427401 2.749927832 2.743926712)
)


60
(
5(1.180330791 1.22058286 1.412286438 1.477893165 1.689862481)
5(1.011233619 1.099276499 1.279966382 1.383853698 1.56502785)
5(0.9355828099 1.056059559 1.209289125 1.328321634 1.484063539)
5(0.9017430676 1.034778654 1.165017642 1.291318007 1.432429456)
5(0.8845374102 1.014793431 1.140183451 1.265758544 1.396470563)
5(0.8741695261 0.9953562397 1.12513795 1.246444777 1.37059622)
5(0.8653278588 0.981419575 1.110273918 1.231193911 1.352965842)
5(0.8552311176 0.9698205018 1.098426134 1.218913683 1.338623012)
5(0.8462262771 0.9599819828 1.086498556 1.206644356 1.32395436)
5(0.8391186124 0.9523846372 1.077511349 1.196463757 1.310209423)
5(0.8345547235 0.9456809698 1.068592279 1.187283336 1.298020308)
5(0.8316124131 0.9409644113 1.0630908 1.180929901 1.288365917)
5(0.8299205439 0.9373093581 1.058054744 1.175288541 1.280581451)
5(0.8291168574 0.9349305727 1.055203953 1.171639167 1.274167026)
5(0.8293947183 0.9336288274 1.052533383 1.168299477 1.268647991)
5(0.830373815 0.9334026605 1.05162448 1.166763402 1.264254222)
5(0.8333293591 0.9342245523 1.051278208 1.165454895 1.260786243)
5(0.8360824805 0.9360339327 1.052280233 1.166093972 1.259076456)
5(0.841397834 0.9387565839 1.054287629 1.167036199 1.257841333)
5(0.8464766456 0.9429415523 1.057502875 1.169728117 1.257886762)
5(0.8529226546 0.947651402 1.061616976 1.173297259 1.258967337)
5(0.8614516074 0.9543214121 1.067598993 1.178320443 1.260998532)
5(0.8702552584 0.9615040277 1.074001946 1.184301086 1.264775079)
5(0.8810936161 0.9701419878 1.081981514 1.191808797 1.268716036)
5(0.8928781194 0.9804892578 1.091580365 1.199782583 1.273820774)
5(0.9074073394 0.9918715662 1.101772248 1.20949298 1.281040891)
5(0.922264796 1.005209422 1.11404376 1.221333514 1.28983926)
5(0.9391078589 1.019632985 1.1278422 1.233745124 1.300013759)
5(0.9591265571 1.036073486 1.143108003 1.24793042 1.311960846)
5(0.9817191527 1.055290505 1.160612981 1.264307526 1.325294332)
5(1.004196191 1.075319462 1.179467033 1.281977096 1.340601155)
5(1.0315068 1.097716846 1.200918334 1.302313852 1.357487487)
5(1.062487185 1.123803106 1.225015362 1.324953682 1.378022583)
5(1.096896207 1.152051351 1.251831225 1.350207555 1.400383393)
5(1.135227921 1.184123775 1.280756126 1.37946304 1.42721599)
5(1.176841493 1.219428278 1.314405567 1.411237207 1.457607281)
5(1.22504309 1.25895832 1.352756673 1.446446796 1.49126876)
5(1.278612248 1.304357419 1.394651741 1.486544016 1.531763149)
5(1.337347254 1.354859754 1.442330552 1.533592065 1.579167532)
5(1.403221953 1.411338048 1.496666355 1.587948526 1.637349009)
5(1.472367419 1.474799892 1.557332682 1.653268325 1.71175785)
5(1.54642182 1.544664086 1.628041669 1.730165661 1.787975596)
5(1.622430008 1.621332603 1.708018555 1.818722174 1.872405507)
5(1.696963954 1.702950571 1.801103632 1.916362044 1.95284202)
5(1.777830136 1.790718679 1.905707241 2.0199468 2.037402182)
5(1.854896082 1.881530089 2.023360669 2.126576236 2.1287218)
5(1.935056086 1.980242683 2.149166278 2.240901667 2.225343277)
5(2.013706753 2.086172812 2.278593745 2.359626799 2.328370264)
5(2.097385811 2.203966236 2.4146312 2.485639412 2.436374017)
5(2.192952701 2.329353042 2.552794913 2.61824441 2.545530806)
5(2.291443326 2.458794251 2.694147596 2.752357512 2.651158353)
5(2.392085161 2.591871289 2.842526958 2.889825332 2.763037581)
5(2.49246276 2.725203521 2.990946934 3.01961663 2.8635994)
5(2.595187 2.858811693 3.138089376 3.141324548 2.958805465)
5(2.696656036 2.999737777 3.270817655 3.243806265 3.043127603)
5(2.805884908 3.128398831 3.38142624 3.321571074 3.11205664)
5(2.91039099 3.240997191 3.451267119 3.365886787 3.167099739)
5(3.011679109 3.317041279 3.467188054 3.366534821 3.197376153)
5(3.082707215 3.250829699 3.231465232 3.190818673 3.136437101)
5(2.640006922 2.375239039 2.019426069 2.274690055 2.511813421)
)


60
(
5(1.23230793 1.266548908 1.428235962 1.492790828 1.688462073)
5(1.05873312 1.136450227 1.305458799 1.402179347 1.574033885)
5(0.9804875803 1.090333704 1.237461469 1.347764585 1.494461871)
5(0.9444117931 1.068181639 1.192199813 1.310611117 1.440925642)
5(0.9248513588 1.047418096 1.165399514 1.284099446 1.401266121)
5(0.9132117295 1.026441765 1.148960287 1.262986211 1.373061125)
5(0.9032785022 1.010855192 1.133113535 1.246865714 1.354807131)
5(0.8919433869 0.9979391698 1.120227455 1.233525677 1.339755575)
5(0.8821514801 0.9870475699 1.107627334 1.220556489 1.324759457)
5(0.8737435461 0.978276374 1.097524096 1.209143729 1.309451533)
5(0.8684711202 0.9706475478 1.08763644 1.199029757 1.296475546)
5(0.8643912081 0.9649831283 1.081154841 1.191546633 1.285600435)
5(0.8621000727 0.9601205309 1.074851544 1.184874752 1.276805935)
5(0.8603325404 0.957044378 1.071341524 1.180233139 1.269418085)
5(0.8597868595 0.9545220343 1.067289071 1.17549906 1.262853513)
5(0.86015105 0.9534867563 1.065447891 1.172997992 1.257194019)
5(0.8615745327 0.9529703493 1.063905124 1.170259905 1.252503224)
5(0.8645420853 0.9538202069 1.063894595 1.169796519 1.248657733)
5(0.867692695 0.9556693435 1.064623691 1.169122591 1.246537361)
5(0.8728246738 0.9583063326 1.066520573 1.170696669 1.244666951)
5(0.8785951852 0.9623856208 1.069367143 1.172294139 1.244275307)
5(0.8852153693 0.9671204943 1.073316116 1.175844175 1.244526816)
5(0.8945152605 0.9732125671 1.078242692 1.179799309 1.246463767)
5(0.9026323854 0.9808405511 1.084906542 1.185220244 1.247975111)
5(0.91508932 0.9891353052 1.091787663 1.191293563 1.252039957)
5(0.9283775949 0.9991805653 1.100785656 1.199038302 1.255699142)
5(0.9415532685 1.010666357 1.110553038 1.207735667 1.260999622)
5(0.9573472472 1.023205177 1.121769223 1.217713728 1.270031612)
5(0.9763543385 1.038094286 1.135071181 1.229206677 1.276706063)
5(0.9971120194 1.054252146 1.149397847 1.241925439 1.287050155)
5(1.020832863 1.072513258 1.165667874 1.256811933 1.297735393)
5(1.047719575 1.093596203 1.184622931 1.273712479 1.311540476)