/*--------------------------------*- C++ -*----------------------------------*\
| =========                 |                                                 |
| \\      /  F ield         | OpenFOAM: The Open Source CFD Toolbox           |
|  \\    /   O peration     | Version:  2.3.1                                 |
|   \\  /    A nd           | Web:      www.OpenFOAM.org                      |
|    \\/     M anipulation  |                                                 |
\*---------------------------------------------------------------------------*/
FoamFile
{
    version     2.0;
    format      ascii;
    class       dictionary;
    location    "constant";
    object      PM12;
}
// * * * * * * * * * * * * * * * * * * * * * * * * * * * * * * * * * * * * * //

PM12_table
60
(

60
(
5(-0.02917740711 0.05416349935 -0.03894449998 -0.05431830748 -0.05005295331)
5(0.01593555322 -0.07650704696 -0.1051975143 -0.119033306 0.1749043276)
5(-0.02576903327 -0.09149740267 -0.1129054025 -0.1264728657 -0.2061648605)
5(-0.0589979847 -0.09629616427 -0.1076055204 -0.1564055355 -0.1227385276)
5(-0.07765175596 -0.09436535922 -0.09848966428 -0.154828763 -0.1815313999)
5(-0.07050848657 -0.09068958935 -0.1139626553 -0.1589591418 -0.2118294781)
5(-0.06636926009 -0.08896859616 -0.1276732343 -0.1621466405 -0.2099580432)
5(-0.06295548748 -0.09277305019 -0.1241387608 -0.1645074516 -0.2166396639)
5(-0.06061478686 -0.09454726749 -0.1251332935 -0.1639141565 -0.2196474596)
5(-0.06424589647 -0.09565806026 -0.1240660335 -0.1637220113 -0.2203015299)
5(-0.07031418501 -0.09713681761 -0.1242407228 -0.1656731605 -0.2215003136)
5(-0.07543286363 -0.09732691485 -0.12722495 -0.1691968964 -0.2250690228)
5(-0.07424348491 -0.09752397493 -0.1301409192 -0.1698734674 -0.225695003)
5(-0.0716818738 -0.09817735867 -0.1319107375 -0.1733716102 -0.2307371651)
5(-0.07328494866 -0.1004288704 -0.1345958243 -0.1761848054 -0.2327656377)
5(-0.07441781336 -0.1021039935 -0.1366725328 -0.1783090412 -0.2358447806)
5(-0.07680745531 -0.1050141757 -0.1396956245 -0.1818061039 -0.2385398274)
5(-0.07910586472 -0.1078990836 -0.1430529289 -0.1844869569 -0.240831172)
5(-0.08152273452 -0.1110731543 -0.1461602413 -0.1882916939 -0.2447297185)
5(-0.0835648501 -0.1134049212 -0.148696395 -0.1911954978 -0.2489628956)
5(-0.086394293 -0.1170506116 -0.1534738926 -0.1958115346 -0.2549686562)
5(-0.08965459937 -0.1213337511 -0.1583325436 -0.2040160433 -0.2646543168)
5(-0.09262616018 -0.1256168489 -0.1634116289 -0.2092354296 -0.268458265)
5(-0.09663872903 -0.1301045024 -0.1689262987 -0.2154299037 -0.275582321)
5(-0.1008067716 -0.1348792772 -0.1750064952 -0.2216303446 -0.2820263212)
5(-0.105503098 -0.1410071078 -0.1812091072 -0.2276706167 -0.2894960589)
5(-0.1110835625 -0.1487931172 -0.1896697594 -0.2359555929 -0.2982760657)
5(-0.1179387686 -0.1569680486 -0.1977716799 -0.2446799057 -0.3081436908)
5(-0.1245162868 -0.1648703226 -0.2076120538 -0.255759453 -0.3196450631)
5(-0.13222484 -0.1737768059 -0.2185738363 -0.2691625226 -0.3334047501)
5(-0.1405914614 -0.1833575915 -0.2291219233 -0.2799952282 -0.3456226217)
5(-0.1503575856 -0.1949927727 -0.2428842563 -0.2965426407 -0.365765174)
5(-0.1614354455 -0.2071029328 -0.2560971671 -0.3107678024 -0.3766733195)
5(-0.1731463875 -0.2196302131 -0.2691585209 -0.3268876236 -0.3989665075)
5(-0.1860344199 -0.2339993673 -0.285065962 -0.34401189 -0.4174003447)
5(-0.200057065 -0.2473756223 -0.2972900541 -0.3587047949 -0.4314358616)
5(-0.2156939903 -0.2666480278 -0.3228043607 -0.3811946431 -0.4460005619)
5(-0.2317591251 -0.2812660725 -0.34007713 -0.3954443735 -0.468735833)
5(-0.2476931559 -0.2985662983 -0.3551158296 -0.4151552845 -0.4765897237)
5(-0.2624685857 -0.3149636048 -0.3691004207 -0.4184439948 -0.3856659918)
5(-0.2817978936 -0.3362307852 -0.3944016548 -0.4282138573 -0.5112372093)
5(-0.3013107429 -0.3550277974 -0.4124690033 -0.4151017068 -0.5449972121)
5(-0.3189688044 -0.3755063687 -0.4217720603 -0.489535777 -0.5691547675)
5(-0.3338928189 -0.3843183343 -0.4075649923 -0.5209163213 -0.5561920815)
5(-0.3507467614 -0.4024813894 -0.4236687905 -0.519264725 -0.5500809672)
5(-0.3715578387 -0.4139204683 -0.4006586321 -0.5191174622 -0.5302569035)
5(-0.3879573089 -0.4192674231 -0.4420362126 -0.5256782342 -0.5087450348)
5(-0.4051609601 -0.4445696077 -0.5088268381 -0.5131171921 -0.4857587754)
5(-0.4088562579 -0.3939501173 -0.5080518095 -0.49280309 -0.4590273377)
5(-0.2750045251 -0.4304396609 -0.5195514992 -0.4682672353 -0.4301271749)
5(-0.270305693 -0.4805581499 -0.502405561 -0.4439942891 -0.4000392972)
5(-0.4729226292 -0.4917369621 -0.4786791874 -0.412765789 -0.3677747612)
5(-0.5024712403 -0.4750446216 -0.4516378468 -0.3778739173 -0.3313979602)
5(-0.4768542026 -0.4454337941 -0.4213399487 -0.3396386401 -0.2973689231)
5(-0.4408007454 -0.4116843487 -0.3841215394 -0.2966516646 -0.2557682675)
5(-0.3831076228 -0.3651621784 -0.3368668917 -0.2447689481 -0.2113962587)
5(-0.2656024962 -0.3008251709 -0.2739148401 -0.1820848561 -0.1728222125)
5(-0.04260513539 -0.1756760682 -0.1809698982 -0.05640657029 -0.1072309874)
5(0.384181097 0.09976155763 0.06607232278 -0.2437437627 -0.1410009355)
5(0.8631009712 0.9963699732 1.144319909 1.194363293 1.195738919)
)


60
(
5(-0.03296164279 -0.04981712568 -0.04469665244 -0.05605828098 -0.06264598019)
5(-0.04133543457 -0.06029456873 -0.07337615473 -0.09041902231 -0.1178535694)
5(-0.04326485819 -0.06156907006 -0.07822483535 -0.1041539478 -0.160350743)
5(-0.02530599147 -0.06003467132 -0.0705682384 -0.1076240954 -0.1012132172)
5(-0.03438808577 -0.06003479184 -0.07243069035 -0.09837162003 -0.1301298055)
5(-0.03917884865 -0.05979759761 -0.07984123697 -0.09572183495 -0.1392531331)
5(-0.04061998161 -0.05974222516 -0.07917812987 -0.09821713542 -0.1282743623)
5(-0.04197999802 -0.05970109717 -0.07642864086 -0.09702561259 -0.1433456418)
5(-0.03845138052 -0.05962128727 -0.07741986788 -0.09685094494 -0.1375426006)
5(-0.03721947018 -0.05938031816 -0.0752121189 -0.09756623824 -0.1353036652)
5(-0.03685808949 -0.05946723348 -0.07538313582 -0.09707892764 -0.134820091)
5(-0.03937684498 -0.05970435367 -0.0769557079 -0.09680927598 -0.1364560801)
5(-0.04176516778 -0.05985573039 -0.07744604813 -0.09603052212 -0.1354558243)
5(-0.04157962545 -0.06006813909 -0.07749395677 -0.09750004336 -0.1365854608)
5(-0.0422820059 -0.06083375757 -0.07840017061 -0.09719823152 -0.1368712076)
5(-0.04220869909 -0.0610032998 -0.07844193857 -0.09741924522 -0.1368245871)
5(-0.04261754727 -0.0616916897 -0.07888975565 -0.09781041029 -0.1362768015)
5(-0.04330396757 -0.06243229012 -0.07954894774 -0.09786042325 -0.1362283488)
5(-0.04399098852 -0.06320591665 -0.08019532942 -0.09855611075 -0.1363820402)
5(-0.04439863789 -0.06366992064 -0.08050319186 -0.09811009272 -0.1369867213)
5(-0.04504927428 -0.06487228714 -0.08172246543 -0.09903568747 -0.1377806619)
5(-0.04581722448 -0.06594744045 -0.08233709191 -0.1019081322 -0.1402058509)
5(-0.04639631006 -0.06686622055 -0.08354287763 -0.1015711298 -0.1393914193)
5(-0.04727166143 -0.06761143604 -0.08461434541 -0.1026612975 -0.1408178815)
5(-0.04807461439 -0.0688192786 -0.08564647466 -0.1032338261 -0.141181031)
5(-0.04910843322 -0.07021679635 -0.08631649266 -0.103464008 -0.1426883846)
5(-0.05020815901 -0.07209206687 -0.08853841618 -0.1046072765 -0.1445645663)
5(-0.05160725919 -0.07414635897 -0.0899593777 -0.1063978915 -0.1471298895)
5(-0.0528891784 -0.07594472656 -0.0925926981 -0.1093428387 -0.1500140472)
5(-0.05453778646 -0.07778661534 -0.09554051426 -0.1138625381 -0.1545996339)
5(-0.05623167978 -0.08010024855 -0.09794011004 -0.1163491861 -0.1591024132)
5(-0.05849014804 -0.08332354021 -0.1025700277 -0.1233453256 -0.1708390848)
5(-0.06131695516 -0.0864261535 -0.1065538382 -0.1289434597 -0.1724045672)
5(-0.0641733942 -0.08970269454 -0.1103815445 -0.1367127621 -0.1885483199)
5(-0.06747329851 -0.09426188416 -0.1167899824 -0.1450493419 -0.1992589992)
5(-0.07129458893 -0.09743635664 -0.1195614321 -0.1538756401 -0.2115416855)
5(-0.0760665733 -0.1055547814 -0.1346737935 -0.168960979 -0.2242248151)
5(-0.08140653919 -0.1100676664 -0.1442317284 -0.1795413354 -0.2603858709)
5(-0.08693800127 -0.1177307419 -0.1526708119 -0.1965160261 -0.2580058875)
5(-0.09174101602 -0.1248204603 -0.15943826 -0.2104041087 -0.3496349002)
5(-0.09942530233 -0.1368745083 -0.1798187144 -0.2334581102 -0.3699962366)
5(-0.1100252955 -0.1481649488 -0.1979756884 -0.2866676958 -0.3905592131)
5(-0.1203275732 -0.1648083705 -0.2213194341 -0.3656102681 -0.4046202111)
5(-0.1311328067 -0.1738033707 -0.2114050818 -0.3866478552 -0.410608304)
5(-0.1429507036 -0.1907810388 -0.2407426351 -0.3994502141 -0.4206602429)
5(-0.1617017226 -0.2030689731 -0.2768711079 -0.4106018278 -0.4203806073)
5(-0.1793345974 -0.2311751984 -0.3859289858 -0.4143655643 -0.411788157)
5(-0.2030517492 -0.2852911888 -0.4234100909 -0.4115152987 -0.3969734791)
5(-0.2154756504 -0.290059838 -0.4326291644 -0.4013371661 -0.3758230586)
5(-0.2313842945 -0.4150266707 -0.4314575422 -0.382132683 -0.3488302893)
5(-0.2592175561 -0.4171098783 -0.4215052761 -0.3575390436 -0.3184956302)
5(-0.3843886782 -0.4097080688 -0.4025544419 -0.3250796461 -0.2841197559)
5(-0.4107892026 -0.3919472234 -0.3749692819 -0.2862918817 -0.24527759)
5(-0.3953637334 -0.3624826574 -0.3395756986 -0.2415658983 -0.2030702807)
5(-0.3549159002 -0.3203852757 -0.2931682789 -0.1895921768 -0.1571382276)
5(-0.2826347531 -0.2636003374 -0.2344456523 -0.1300550274 -0.1061617085)
5(-0.1410859648 -0.1842548289 -0.1557160939 -0.05778323225 -0.05878124422)
5(0.07946831875 -0.03284620007 -0.03994544195 0.03234317112 0.001209927366)
5(0.5087444707 0.331666253 0.3485842091 -0.004794692258 0.1007444793)
5(1.005086231 1.055173948 1.112950576 1.345178254 1.108524894)
)


60
(
5(-0.01323988305 -0.02335478986 -0.006919480085 -0.002726453647 -0.004966310346)
5(-0.01547459056 -0.02179370463 -0.02164190928 -0.01974503389 -0.03396593172)
5(-0.01530301205 -0.02081642832 -0.02691061846 -0.02469533357 -0.04443318572)
5(-0.01393985587 -0.01917683795 -0.02365976807 -0.02169959208 -0.04274368169)
5(-0.0117543521 -0.01662477291 -0.01859639986 -0.0161256816 -0.03425782857)
5(-0.008945674649 -0.01372975501 -0.0135675858 -0.0110666159 -0.02572230926)
5(-0.006885955538 -0.01137368155 -0.01100245466 -0.007195344313 -0.02117870902)
5(-0.005696591019 -0.009828781262 -0.009225172981 -0.004849826679 -0.01908269774)
5(-0.004645377291 -0.008611801263 -0.0080522525 -0.003422719697 -0.01738936641)
5(-0.003225590439 -0.007184679341 -0.006411946109 -0.001142984007 -0.0152528162)
5(-0.002174003417 -0.005526368412 -0.004454182748 0.001595856978 -0.01174427634)
5(-0.0006989710821 -0.004051209133 -0.002082152962 0.004381694467 -0.008027760324)
5(0.0006406944899 -0.002438247504 0.0001036031909 0.006911377939 -0.004932243605)
5(0.001901683112 -0.000892018249 0.00212156258 0.009790952598 -0.00148128748)
5(0.003162174334 0.0006436787421 0.004065189258 0.01255322184 0.001705870939)
5(0.00453752758 0.002334925525 0.006335820365 0.01549136984 0.005266831226)
5(0.005979021719 0.004163233787 0.008880657694 0.01879410512 0.009116771429)
5(0.007513538118 0.006188366377 0.01165058779 0.02232094082 0.01331836583)
5(0.009288879539 0.008159876412 0.01450375162 0.0262147212 0.01792607376)
5(0.01114863257 0.01052023675 0.01774199947 0.0305366038 0.02299436194)
5(0.01317634161 0.01313081644 0.02119607229 0.03494603852 0.02808154706)
5(0.01545367852 0.01597412401 0.02500312292 0.04027845111 0.03391409528)
5(0.01805169606 0.01913114752 0.02920625935 0.04563918323 0.04020642115)
5(0.02099684547 0.02276548045 0.03421215554 0.051307533 0.04671797146)
5(0.02421270866 0.02675591498 0.03911323957 0.05790793514 0.05357162321)
5(0.02803939146 0.03119073112 0.04523010937 0.06524112127 0.06136413295)
5(0.03235152083 0.03599539485 0.05151114433 0.07306121375 0.06932486309)
5(0.03696910226 0.04160429215 0.05834991823 0.08140964047 0.07739410453)
5(0.04235870631 0.04796765223 0.0660456131 0.09024075054 0.08674357859)
5(0.04841297063 0.05466938462 0.07412016525 0.09953373455 0.09529144375)
5(0.05513507615 0.06217656219 0.0830670584 0.1093557062 0.1047107672)
5(0.06271489915 0.07050928561 0.09250252717 0.119535661 0.1136356194)
5(0.07111674279 0.07941447539 0.1022276511 0.1298983978 0.12263918)
5(0.08031312004 0.08906828575 0.1127524671 0.1403435824 0.1311410627)
5(0.09041767716 0.09959576695 0.1236215051 0.1505241924 0.1394762652)
5(0.1016554875 0.1104955575 0.1346828092 0.1608377064 0.146307789)
5(0.1130831033 0.121913042 0.1461480766 0.1697917049 0.1526708432)
5(0.1263699577 0.1341603903 0.1568588714 0.1785380259 0.1581905152)
5(0.1400614821 0.1457698612 0.1673945913 0.186562618 0.1610535468)
5(0.1541580998 0.1582461349 0.1770307558 0.192190082 0.1613136877)
5(0.1686692087 0.1689180757 0.1845006503 0.1956794424 0.1560001331)
5(0.1827414435 0.1808560097 0.1921910951 0.196429551 0.1475851774)
5(0.1978563867 0.190746405 0.1974968101 0.1931366347 0.1353640537)
5(0.2118903426 0.1977211345 0.2010680815 0.1859904375 0.1217638161)
5(0.2257851752 0.2053099308 0.2011298237 0.1746496158 0.1076516413)
5(0.2380740232 0.2106754639 0.1993738902 0.1616511313 0.09365774841)
5(0.2504320545 0.2149354066 0.1930636706 0.1478154438 0.0801367912)
5(0.2618494387 0.2168043512 0.1839495166 0.1346452364 0.06863839689)
5(0.2774398613 0.2181554812 0.1722294053 0.1234407082 0.06044097847)
5(0.2888101253 0.2164620605 0.1613830881 0.1160281333 0.05741230131)
5(0.3044416918 0.2124647323 0.1520044176 0.1119679567 0.05964315425)
5(0.3194266444 0.2087135824 0.1449670826 0.111664107 0.06743372665)
5(0.3340561787 0.2070660946 0.1426909324 0.1173229365 0.07998364085)
5(0.344030646 0.2075840684 0.1452485718 0.1293100158 0.1020824039)
5(0.3516342198 0.2160869687 0.1543802827 0.1489231181 0.1285249547)
5(0.3605354788 0.2298810403 0.1706484004 0.1756017505 0.1619398989)
5(0.374521043 0.2542571379 0.1970852336 0.2090637533 0.2005990897)
5(0.4127118339 0.2991027495 0.2400735073 0.256229322 0.2474957858)
5(0.5720267038 0.4268120436 0.3693000991 0.3635182848 0.3288756971)
5(0.9099970455 1.087652487 0.8849269746 0.6516050171 0.684052446)
)


60
(
5(0.003823938879 -0.0005175529127 0.02170290705 0.03710536187 0.03792539113)
5(0.005168957273 0.004819440338 0.01431380378 0.0275576074 0.02105940075)
5(0.0074538734 0.008106955338 0.01228542478 0.02609532191 0.01691301712)
5(0.009754585906 0.01065313074 0.01635764965 0.03033488688 0.02004955713)
5(0.01283583541 0.0137193007 0.02185414305 0.03627101784 0.02814567994)
5(0.0159656346 0.01711635345 0.0269692705 0.04188665339 0.03580234968)
5(0.01850812817 0.01986033901 0.03048846812 0.046205637 0.04069777274)
5(0.02041946799 0.02215168611 0.03291309507 0.04901149482 0.0437215966)
5(0.02227961772 0.02422184592 0.03505252004 0.05176815879 0.0464895317)
5(0.02409532921 0.02639413317 0.03737066423 0.0548235626 0.05041453096)
5(0.02594478903 0.02854410211 0.04028531335 0.05848719002 0.0544965529)
5(0.02793229827 0.03077015814 0.04328969826 0.06200214262 0.05863731515)
5(0.02999526213 0.03320552197 0.04627246731 0.0657376398 0.0629334672)
5(0.03211160076 0.03558355636 0.04930217878 0.06947586719 0.06718787134)
5(0.03419176008 0.03803296809 0.05242849214 0.07342014492 0.07162657017)
5(0.03626888547 0.04054587614 0.0557834209 0.07751943015 0.07634836736)
5(0.03870537242 0.04328376865 0.05936597337 0.08218105478 0.08154353969)
5(0.04129295103 0.04627258604 0.06307207888 0.0873075964 0.08680615886)
5(0.04396171377 0.04945105619 0.067481183 0.09236626172 0.09272879133)
5(0.04699363774 0.05304538473 0.07194700063 0.09811523707 0.0990593637)
5(0.05021905257 0.0568862779 0.07683339952 0.1043618948 0.1061710411)
5(0.05383817285 0.06109389526 0.08223927217 0.1110171831 0.1135164572)
5(0.05768433106 0.06581620335 0.08836206167 0.1185630844 0.1213947805)
5(0.06228162023 0.07107190621 0.09487175271 0.126497456 0.1300638555)
5(0.06718265617 0.07663602248 0.1019357439 0.1351446277 0.1390899466)
5(0.07270775086 0.08306994091 0.1098258861 0.1446020733 0.1487890014)
5(0.07875150923 0.0895746282 0.1182131776 0.1546957449 0.159300614)
5(0.08540697229 0.09738587192 0.1276527609 0.1659302424 0.1700278228)
5(0.09314061991 0.105639487 0.1375507635 0.177147651 0.1816264976)
5(0.1014119378 0.1147032997 0.1483755532 0.1895950244 0.1935453214)
5(0.1107346788 0.1248378345 0.1602202149 0.2025485967 0.2061326949)
5(0.1208672892 0.1355687049 0.1723260721 0.2158490266 0.2190746208)
5(0.1319576391 0.1467977017 0.185513872 0.2300196399 0.2314378323)
5(0.1441271146 0.1597688978 0.1993867072 0.2443893793 0.2441844885)
5(0.1573721542 0.1729975062 0.2133040572 0.2589417488 0.2568554943)
5(0.1711665994 0.1871170109 0.2284218105 0.2732819619 0.2688230108)
5(0.1866241356 0.2019208286 0.2435975762 0.2875601695 0.2803968813)
5(0.2031684002 0.2172317861 0.2589739551 0.3017147868 0.2914926398)
5(0.2204264543 0.2330937277 0.2742176995 0.3148983369 0.3003167032)
5(0.2387983126 0.2488370006 0.28860805 0.3264114659 0.306844752)
5(0.2573942928 0.2649688603 0.3029028512 0.3362100555 0.3112384011)
5(0.2777042421 0.2813826428 0.3157356874 0.3440918298 0.3117585408)
5(0.298437783 0.2969167328 0.3273625928 0.3482619907 0.3091783504)
5(0.3197224574 0.3118731383 0.3368954529 0.3493905727 0.3041017188)
5(0.3416801063 0.3250585311 0.3443686497 0.3478148264 0.2977061437)
5(0.3639628406 0.3386011838 0.3496256378 0.3428882435 0.288903843)
5(0.386307741 0.3516517419 0.3517653409 0.336091095 0.2792621458)
5(0.4096137179 0.3641769065 0.3515327438 0.329052718 0.2700017014)
5(0.4333527635 0.3747515927 0.3497174962 0.3206812118 0.2611281136)
5(0.4599653441 0.38754535 0.3476018016 0.3136487014 0.2551145862)
5(0.4893194257 0.3989034425 0.3460300535 0.3083184887 0.2513665654)
5(0.5204302207 0.4119957592 0.3459179507 0.305847435 0.2518912073)
5(0.5541407092 0.426214349 0.3488850444 0.3077036884 0.2569673921)
5(0.5906171719 0.4450834313 0.3546224018 0.312636566 0.2645552744)
5(0.6309841216 0.4665002638 0.3656498378 0.3238287131 0.2789765277)
5(0.6699750481 0.4932572058 0.3823160193 0.3414291759 0.2983187028)
5(0.7153997521 0.5302991929 0.4077704611 0.3676975832 0.324797664)
5(0.7797835379 0.5884279654 0.4593103922 0.4088336143 0.3603266427)
5(0.996448223 0.8362528347 0.6847909879 0.5572489349 0.4692160508)
5(1.225308365 1.252526469 1.102603369 0.8122206118 1.043214937)
)


60
(
5(0.01884391174 0.01880106463 0.04511120266 0.06876060602 0.07147405554)
5(0.02276970253 0.02631761299 0.0424436983 0.06359775938 0.06182905731)
5(0.02647458474 0.03119466443 0.04271560058 0.06434470333 0.06109038181)
5(0.02965247985 0.03415417735 0.04731980506 0.06924121785 0.06559660786)
5(0.03303824886 0.03735003982 0.05265315787 0.07517631064 0.07277380602)
5(0.03641503329 0.04101582291 0.0577479047 0.08105590318 0.07978564577)
5(0.03925157849 0.04429829902 0.06172744239 0.08544302497 0.08474847895)
5(0.04164822431 0.04688752246 0.06458634794 0.08873795223 0.08842351527)
5(0.04379270282 0.04938054573 0.06735633392 0.0920776186 0.09191275357)
5(0.04605897521 0.05189735908 0.07009631721 0.09571780461 0.09601416665)
5(0.04844980857 0.05452266975 0.07341968487 0.09961750187 0.1003747203)
5(0.05078837728 0.05723390012 0.07669103423 0.1035891561 0.1049519106)
5(0.0532612965 0.05994890612 0.08017451803 0.1078648022 0.1096301748)
5(0.05567378474 0.06272517549 0.08362653304 0.1121297752 0.1140514919)
5(0.05837262378 0.06559224571 0.08732147274 0.1165700652 0.119211687)
5(0.06111144222 0.06876514364 0.09125443305 0.1211575283 0.1243336794)
5(0.06390545247 0.07198949613 0.09531254804 0.1265858022 0.1300406929)
5(0.06712352164 0.07547718071 0.09978339234 0.1318278465 0.1358735175)
5(0.07030600316 0.07933576811 0.1045857725 0.1377879425 0.1423908708)
5(0.07402945164 0.08343017926 0.1096486509 0.1441507779 0.1494313354)
5(0.07796607274 0.08780159421 0.1154471867 0.1512767257 0.1569189571)
5(0.08208684228 0.09282513215 0.1215075787 0.158710819 0.1647847713)
5(0.08688845566 0.09816458207 0.1282763305 0.1669621161 0.1733473526)
5(0.09229503127 0.1039889689 0.1352989052 0.1758428692 0.1825977223)
5(0.09793500139 0.1103305877 0.1434226148 0.185394904 0.1927805501)
5(0.104391668 0.1174025133 0.1521478329 0.1956708005 0.2033822759)
5(0.1114160642 0.1251089911 0.1616402884 0.2067907631 0.2145161127)
5(0.1191274417 0.1336441208 0.1717546246 0.2187441213 0.2265861618)
5(0.1274607215 0.1427915029 0.18267401 0.231224738 0.2388923753)
5(0.1368779501 0.1527208387 0.1946014482 0.2447511309 0.2522806857)
5(0.1472095625 0.163631448 0.2073143099 0.2588873074 0.2659471504)
5(0.1583599403 0.1753537956 0.2202773011 0.2737217994 0.2803741785)
5(0.1705299887 0.1878969624 0.2349187641 0.2889777458 0.2944632349)
5(0.183794122 0.201367931 0.2498869707 0.3049789319 0.3095028381)
5(0.1981966338 0.2155816543 0.2655769458 0.3211903268 0.3238195898)
5(0.2136454922 0.230819445 0.2818958986 0.3380262356 0.3388490893)
5(0.2301201816 0.2468298383 0.2983645794 0.35482289 0.3532260561)
5(0.2479190076 0.2635519242 0.3158158396 0.3712481227 0.3668921814)
5(0.266775091 0.2809010283 0.3332779935 0.3871645713 0.3801080227)
5(0.2869389332 0.2988326507 0.3506095242 0.4025610396 0.3912669882)
5(0.3082146124 0.3172464753 0.3677423143 0.4168491277 0.4008885792)
5(0.3309390744 0.335973763 0.3841644901 0.4287040154 0.4073586648)
5(0.3547242177 0.3549261586 0.3995527743 0.4386562254 0.4111448669)
5(0.3797471025 0.3739838413 0.4139626029 0.4457939814 0.4120229144)
5(0.4052930046 0.3930279038 0.4271697138 0.4494467901 0.4098147754)
5(0.4317875697 0.4117319237 0.4377015431 0.4505835239 0.4054445074)
5(0.4583693696 0.4308496901 0.4473976608 0.4492358375 0.3999623255)
5(0.4872514106 0.4513062383 0.455828826 0.4460456694 0.3918888081)
5(0.5136190917 0.472287484 0.4609162159 0.4418061971 0.3850498071)
5(0.5439326322 0.4941375121 0.4679580048 0.4380611373 0.3776875533)
5(0.5748307242 0.5175360573 0.4769763249 0.4351826087 0.3728908686)
5(0.6083263741 0.5439076899 0.4874862142 0.4350089271 0.3689177684)
5(0.6458883652 0.5755444408 0.5028806498 0.4384645928 0.3685784438)
5(0.6906378483 0.612525239 0.5227849554 0.4452191446 0.371959372)
5(0.7400341927 0.6527818915 0.5460506144 0.4564481046 0.3812420171)
5(0.7991064206 0.7017441285 0.5761788603 0.4751984545 0.3963397059)
5(0.866858327 0.7582119281 0.6208055829 0.5077871132 0.4194356735)
5(0.9539144905 0.838408906 0.6937852848 0.5602060341 0.4593098037)
5(1.217188353 1.136832601 1.05663963 0.8110719574 0.6334219453)
5(1.343481555 1.341574159 1.40211507 1.170731124 1.124131238)
)


60
(
5(0.0321395212 0.03515057371 0.06475390027 0.09448680023 0.09864948569)
5(0.03778296389 0.04420598693 0.06535809363 0.09225638776 0.09358764113)
5(0.04268212451 0.05024578041 0.06714537074 0.09457338503 0.0949607119)
5(0.04651039679 0.05333047757 0.07198475402 0.09974812152 0.09989278789)
5(0.05011896246 0.05656249016 0.07728843101 0.105667167 0.1067427064)
5(0.05361201858 0.060488436 0.08231930107 0.1113813507 0.1133028667)
5(0.05663843097 0.06392511646 0.08645602247 0.1159696834 0.1180495765)
5(0.05931342967 0.06680613793 0.0896151401 0.1196541279 0.122149097)
5(0.06180099709 0.06961862183 0.09268958942 0.1231876942 0.1258992859)
5(0.06438963228 0.07225272177 0.09573729118 0.1270486032 0.1301740645)
5(0.06702049276 0.07523770849 0.09929745897 0.1311808541 0.1346805595)
5(0.06972169685 0.07806286478 0.1027903284 0.1355552821 0.1393812687)
5(0.07244236727 0.08107658292 0.1066384123 0.1399034224 0.144055832)
5(0.07512424754 0.08414616452 0.1102322913 0.1444253219 0.1489854391)
5(0.07812907647 0.0873782429 0.1142689857 0.1491313115 0.1540227358)
5(0.08121894294 0.09073522349 0.1181608235 0.154129068 0.1594139874)
5(0.08443202394 0.09430017455 0.1227940394 0.1595889599 0.1652035667)
5(0.08780247343 0.09812398739 0.1275423452 0.1649917193 0.1714704217)
5(0.0915934376 0.1022373788 0.1325610866 0.1716380222 0.1781438123)
5(0.09553260838 0.1066541728 0.1381333762 0.1781740734 0.1852443334)
5(0.0998265559 0.1113326357 0.1439979521 0.185523669 0.1929776074)
5(0.1046475558 0.1166988082 0.150553567 0.1934141167 0.2011531904)
5(0.1096767252 0.1223191496 0.1574919758 0.201703144 0.2100571691)
5(0.1153470587 0.1284567613 0.1650872936 0.2109912696 0.2196617942)
5(0.1215581609 0.1352084913 0.1735167938 0.2208949569 0.2299653544)
5(0.1282904969 0.1423634388 0.1824178813 0.2314424487 0.240552368)
5(0.1358825564 0.1506726024 0.1921016438 0.242887573 0.2523808632)
5(0.1440030191 0.159449251 0.202610198 0.2550768026 0.2646779911)
5(0.1528379768 0.1688412022 0.2139776082 0.2681550089 0.2775102068)
5(0.1627079881 0.1791257623 0.2261467629 0.2819952886 0.2912435266)
5(0.1734269046 0.1904624773 0.23905275 0.2965759012 0.3056044828)
5(0.1850354176 0.2024175057 0.2526761385 0.3117277256 0.3199391104)
5(0.1975827089 0.2152890435 0.2672286957 0.3278505807 0.3355245083)
5(0.2114449515 0.2289858893 0.2828519367 0.3444312151 0.3513298014)
5(0.2263010518 0.2436881228 0.2990227603 0.3615917711 0.3673542791)
5(0.2420718152 0.2592987256 0.3159459859 0.3793020639 0.3831996627)
5(0.2593910071 0.2755899037 0.3332202657 0.3971645221 0.3993648455)
5(0.2778025142 0.2928069854 0.35138906 0.4150072008 0.4151764633)
5(0.2976521768 0.3110509559 0.3698222446 0.4329566762 0.4306216798)
5(0.3187689238 0.3298510936 0.3886299048 0.4507888457 0.4447497606)
5(0.3412991565 0.349532907 0.4074952778 0.4668481424 0.4568694239)
5(0.364961985 0.3696631531 0.4262321437 0.4824302217 0.4678305535)
5(0.3892988684 0.3903618753 0.4444163919 0.4956669309 0.4760001233)
5(0.4153071016 0.4116838305 0.4622323647 0.5073538759 0.4819467231)
5(0.4419496442 0.4336644441 0.4788140006 0.5160460569 0.4848128521)
5(0.4692180793 0.4560117869 0.495492559 0.5221821677 0.4847947846)
5(0.4973196723 0.4796703097 0.5113755823 0.5261921518 0.4827299282)
5(0.5247553024 0.5039286683 0.5252560565 0.5272129323 0.4777006922)
5(0.55195537 0.5283097175 0.5392297158 0.5287415398 0.4716447437)
5(0.5800802382 0.5554265713 0.5563376055 0.5302463656 0.4652810653)
5(0.6078388017 0.5832179321 0.5754445574 0.5332979471 0.4602614106)
5(0.6385914913 0.6145479162 0.5978570533 0.5379667803 0.456333119)
5(0.6687162925 0.6523361055 0.6270824523 0.5492187607 0.4552625009)
5(0.7037704502 0.6952123609 0.6639271697 0.5631363958 0.4599520605)
5(0.7442349638 0.7476788694 0.7046770516 0.5863646371 0.4687875161)
5(0.7999454957 0.8099310267 0.7556740607 0.6189127954 0.4854472539)
5(0.86543049 0.8843927662 0.8230928795 0.667206858 0.5131946993)
5(0.956213601 0.9806715476 0.9187728072 0.7477650603 0.5670244325)
5(1.225421746 1.29792663 1.30489543 1.068472047 0.7976635624)
5(1.343961757 1.42493884 1.483722376 1.396858081 1.29637449)
)


60
(
5(0.04404664773 0.04927592633 0.08159439637 0.1157846786 0.1212466682)
5(0.0509548318 0.05933541443 0.08441301637 0.1157821608 0.1190705859)
5(0.05688240541 0.066173572 0.08736385629 0.1191717407 0.1218511721)
5(0.06107393811 0.06948043119 0.0922709302 0.1245274742 0.1269276425)
5(0.06477712165 0.07281381649 0.09752274565 0.1302529948 0.1334370569)
5(0.06838681016 0.07666726781 0.1026289745 0.135975614 0.1397037036)
5(0.07169230939 0.08030601324 0.1066127439 0.1405324241 0.1443781463)
5(0.07447757251 0.08339550456 0.1101766004 0.1444761308 0.1485758849)
5(0.07729705918 0.08632144319 0.11322667 0.1480696113 0.1524710959)
5(0.08000169069 0.08928851228 0.1167053762 0.1521547857 0.1568374017)
5(0.0828727327 0.09223338723 0.1201291468 0.1562892125 0.1613274987)
5(0.08572102171 0.0953579902 0.1240149267 0.1608363984 0.1660198227)
5(0.08869591896 0.09848454959 0.1277003068 0.1652364562 0.1707947731)
5(0.09167672659 0.1017288759 0.131740416 0.1699724687 0.1757145434)
5(0.09481875795 0.1050963389 0.1356921707 0.1747034504 0.1808672169)
5(0.09801801823 0.1086363545 0.1400536033 0.1799757339 0.1863895608)
5(0.1015452131 0.1124055896 0.1445530771 0.1853218347 0.1921746982)
5(0.1051491248 0.1163744045 0.1494370845 0.1913596721 0.1984667086)
5(0.1091687723 0.1205869206 0.1546895672 0.197568556 0.2051364741)
5(0.1133323611 0.125265828 0.1603297603 0.204440876 0.2122762284)
5(0.1179144342 0.130090126 0.1663933028 0.2117559736 0.2200653404)
5(0.122921024 0.1356464942 0.1731325499 0.2196900149 0.2282098202)
5(0.128300046 0.14142234 0.1801365271 0.2282520216 0.2372398057)
5(0.1341627444 0.1477042051 0.1878813002 0.2375518531 0.2466560363)
5(0.140519302 0.1547230992 0.1963845245 0.2473030832 0.2569054693)
5(0.1477572137 0.1621692943 0.2052771656 0.2580452289 0.2679446952)
5(0.1553535725 0.1704050909 0.2151863576 0.2696974725 0.2794965227)
5(0.1635095162 0.1791929992 0.2257551612 0.2817926286 0.2918033051)
5(0.1729882219 0.1888013542 0.237067223 0.2948399232 0.3048222826)
5(0.1830447236 0.1994559336 0.2493392627 0.3087575976 0.3186160219)
5(0.1938287028 0.2105366046 0.2621725647 0.3232950291 0.3331462341)
5(0.2056058556 0.2223680818 0.275888714 0.3387945339 0.3478918682)
5(0.2186722116 0.2354961295 0.2907886056 0.3550244701 0.3633393539)
5(0.2328270012 0.2493653378 0.3062436013 0.3716373988 0.3794893738)
5(0.2478076657 0.2640431202 0.3221707663 0.3894153674 0.3960313302)
5(0.2638862228 0.279462243 0.3392877414 0.4073769391 0.4126812199)
5(0.2812579454 0.2958151327 0.3573485553 0.4257364155 0.4299342126)
5(0.3001299398 0.3133948954 0.3757273714 0.4444428213 0.4468434336)
5(0.3201016051 0.3317139451 0.3945997136 0.4635629697 0.4635338176)
5(0.3418354934 0.3509314465 0.4141183765 0.4822343802 0.4795679084)
5(0.364497598 0.3709104102 0.4337471967 0.5002981669 0.4944794803)
5(0.3882801467 0.3917349896 0.4539293123 0.5175255251 0.5076603815)
5(0.4130825191 0.4136788795 0.4739385939 0.5340044838 0.5205510087)
5(0.4379512879 0.4362319736 0.4941334205 0.5490378755 0.5296303758)
5(0.4640372431 0.4598815552 0.5139315402 0.5624366284 0.5370348589)
5(0.4900422074 0.4836501607 0.5340242055 0.5733873053 0.5419034796)
5(0.5165188964 0.5081937667 0.5538021154 0.5831401473 0.5433137311)
5(0.5431226271 0.5326145953 0.5730810597 0.5908557831 0.5421541746)
5(0.568353419 0.5579634981 0.5940569549 0.5984229118 0.5401757741)
5(0.5939815187 0.584014618 0.6162104106 0.6071112647 0.5367412626)
5(0.6182722377 0.6107801059 0.6407337594 0.6167234169 0.5324942921)
5(0.640299474 0.6404462704 0.6702203252 0.6323294326 0.5333153527)