/*--------------------------------*- C++ -*----------------------------------*\
| =========                 |                                                 |
| \\      /  F ield         | OpenFOAM: The Open Source CFD Toolbox           |
|  \\    /   O peration     | Version:  2.3.1                                 |
|   \\  /    A nd           | Web:      www.OpenFOAM.org                      |
|    \\/     M anipulation  |                                                 |
\*---------------------------------------------------------------------------*/
FoamFile
{
    version     2.0;
    format      ascii;
    class       dictionary;
    location    "constant";
    object      PM17;
}
// * * * * * * * * * * * * * * * * * * * * * * * * * * * * * * * * * * * * * //

PM17_table
60
(

60
(
5(-7.182951565 -8.165471348 -7.152636783 -2.758805028 -8.598818073)
5(-11.74377675 0.5197872454 -1.249900194 -1.24575201 -14.30909848)
5(-0.8239505273 2.937361937 0.8601397153 -1.753709692 -0.3581400371)
5(2.231517258 2.922908342 1.454028818 1.257660409 3.536460477)
5(3.180802086 2.158332153 0.1437643835 1.647151565 -0.1003686967)
5(2.849680514 1.101329048 0.4668324968 0.9626467926 0.9781384918)
5(1.145778553 1.112918229 1.583297313 1.203484984 1.393874114)
5(1.392831176 1.608288577 1.536946442 1.045002259 0.19910137)
5(1.640756436 1.494963038 1.341342828 1.070320257 1.334082147)
5(1.499564898 1.55625871 1.444050903 0.9719693889 1.171423262)
5(1.510527986 1.456633337 1.114427854 1.033740423 1.007825606)
5(1.383239781 1.404602177 1.054395968 1.077287641 0.9429802164)
5(1.514289089 1.434311121 1.198463059 1.045312513 0.9723563545)
5(1.455957145 1.340785109 1.142075963 0.9717625793 0.9322660811)
5(1.394082741 1.336087486 1.167988228 1.069206726 0.9357853052)
5(1.448068725 1.356085226 1.201872546 1.02194526 0.9730527181)
5(1.402301507 1.327763011 1.17245381 1.047835113 1.00505923)
5(1.381398468 1.328898337 1.178905247 1.045215957 0.9625393312)
5(1.406177007 1.364336505 1.190134088 1.055614181 0.9478762977)
5(1.417573624 1.340003244 1.167349456 1.041245515 0.8864125542)
5(1.365791173 1.272389052 1.143777629 0.9231537453 0.8432097137)
5(1.378804947 1.302484268 1.119513994 0.919937292 0.904239538)
5(1.35374874 1.31271505 1.123228371 1.031108095 0.9494525556)
5(1.373855715 1.315280822 1.11995406 0.9947613154 0.9062149284)
5(1.370881255 1.278493173 1.153224142 1.025675571 0.9055131478)
5(1.351293767 1.270522628 1.135756324 0.9978511986 0.8472421911)
5(1.315569833 1.24139217 1.117559535 0.983331611 0.8288026435)
5(1.324400207 1.264135753 1.124645615 0.9383482577 0.8092127851)
5(1.318690475 1.249139709 1.069432073 0.9003059061 0.8047608946)
5(1.316298362 1.236037425 1.057136466 0.9033019923 0.8028361705)
5(1.303371432 1.205319803 1.038249001 0.8724399355 0.7008622973)
5(1.260498707 1.164077884 0.9835181013 0.7827903984 0.6790075743)
5(1.25402067 1.167906154 0.9954972197 0.8211447482 0.7469174)
5(1.246190326 1.14331229 0.9418101747 0.7207711107 0.5443719399)
5(1.202072715 1.110623245 0.9360161935 0.7115628298 0.5943381315)
5(1.193982866 1.086085746 0.83675935 0.6084989175 0.5580641622)
5(1.105481005 0.9797243552 0.7292291558 0.6332162107 0.4122389161)
5(1.092713209 0.9632304525 0.7740000693 0.4901941549 0.2504758745)
5(1.041764751 0.9070992622 0.7516670003 0.5428326547 -0.01015923045)
5(0.9615690955 0.8445077612 0.653811442 -0.02032393279 -1.084552239)
5(0.8428055237 0.7400712049 0.5449652666 -0.2463279027 -0.3426773847)
5(0.7814111587 0.6646698249 0.3573125939 -0.723007759 -0.09123564062)
5(0.6783904922 0.5935022459 0.1191628417 -0.3343617769 0.441488852)
5(0.6228339357 0.617578841 0.03583557212 -0.01385370349 0.455291133)
5(0.4917718512 0.5062725191 -0.1805406118 0.02584502749 0.3824060498)
5(0.4495468578 0.3801575748 -0.6405633393 0.06301821494 0.4080786148)
5(0.3291140032 -0.1610538623 -0.4640124037 0.3506110244 0.4136335969)
5(0.0961853436 -0.2000097745 0.05553257638 0.4471761198 0.4110475132)
5(0.06608166553 -0.5568327134 0.1558024411 0.4697984502 0.4184758932)
5(-1.132977698 -0.3286924559 0.4756734205 0.4988084363 0.4478735595)
5(-1.212328367 0.09020962892 0.4932359551 0.4993978447 0.4757543891)
5(-0.04661172246 0.3491857614 0.5190660766 0.5336376132 0.5260043549)
5(0.3292321755 0.4332912473 0.5487388499 0.5755847598 0.6142375564)
5(0.3795522569 0.4652460509 0.5653063784 0.6399462795 0.6667158163)
5(0.3971486512 0.478135844 0.5980004581 0.6725056549 0.7657282409)
5(0.2592732342 0.4652856697 0.6280753648 0.7630780576 0.8870703967)
5(-0.156004125 0.3822361166 0.6558253265 0.8088396016 0.8357904489)
5(-0.939687267 0.1473792391 0.5671810964 0.5059106297 1.145436663)
5(-2.411914736 -0.5595595505 -0.06486775803 1.049847777 1.16576031)
5(-3.560619612 -3.242184756 -2.610526975 -1.912523353 -1.086209192)
)


60
(
5(0.0798373918 3.72044562 -0.3455350995 0.984103024 -1.537196003)
5(1.492420381 2.387469263 0.499231618 1.120984836 -0.5696854282)
5(1.78734144 2.43852292 1.606763353 1.514277149 0.6385065887)
5(1.831561109 2.470344359 2.346116793 1.66847124 1.834664185)
5(2.156237128 2.398646719 2.47103647 1.880726765 2.023161101)
5(2.446225629 2.262893539 2.016145434 1.806605982 1.822356174)
5(2.349028249 2.130481554 1.843954874 1.637172341 1.705727841)
5(2.055084996 2.055726357 1.830396892 1.591876504 1.390020824)
5(2.142068542 2.029249153 1.773776342 1.579585108 1.43263495)
5(2.107987743 2.020487459 1.836385283 1.566261081 1.473255696)
5(2.107819384 1.991322851 1.829836189 1.560184035 1.491564995)
5(2.071643497 1.962950955 1.776794088 1.541040166 1.459814878)
5(2.00113897 1.940203264 1.732829517 1.534145542 1.439566195)
5(2.007065896 1.918291283 1.710331294 1.496074834 1.406360552)
5(1.955692805 1.887366124 1.683546071 1.487520459 1.390458404)
5(1.947732832 1.874780545 1.678283006 1.477117608 1.382246421)
5(1.929716155 1.857558458 1.66327793 1.463582418 1.378159485)
5(1.913358608 1.839737888 1.645833462 1.455206197 1.368993174)
5(1.890745238 1.824322501 1.630279897 1.441180133 1.357456664)
5(1.883954459 1.821165509 1.622911943 1.436800963 1.342128406)
5(1.864306854 1.797373098 1.598653302 1.417124889 1.324341515)
5(1.849732177 1.779046604 1.586171249 1.382388845 1.300287409)
5(1.844740464 1.766686985 1.568982117 1.374983728 1.298037485)
5(1.823031814 1.758601997 1.549913865 1.359503247 1.282960054)
5(1.810147726 1.74165794 1.537911111 1.35260921 1.271931)
5(1.792863527 1.722787341 1.52897802 1.340317755 1.252661262)
5(1.773157114 1.70021512 1.50091551 1.321241082 1.231497342)
5(1.751666069 1.680098145 1.483713158 1.296852164 1.211045052)
5(1.739059494 1.660250523 1.456138367 1.270882496 1.192721899)
5(1.715033307 1.638837468 1.429124191 1.238523957 1.164315526)
5(1.692573968 1.614958432 1.405017114 1.215657019 1.141600282)
5(1.663649923 1.581895442 1.371041127 1.178017198 1.094975548)
5(1.630321734 1.551129509 1.340443158 1.142201973 1.073146047)
5(1.595358156 1.515858964 1.306753904 1.100852584 1.018266451)
5(1.55822637 1.472957528 1.263520155 1.056870572 0.9746055404)
5(1.511251813 1.429179542 1.225149947 1.00774834 0.9296062854)
5(1.459209541 1.369618955 1.159132836 0.9510876361 0.8935142856)
5(1.400533889 1.311410131 1.100109538 0.9003804849 0.8182814647)
5(1.329836025 1.242156581 1.039251225 0.8320439689 0.751809703)
5(1.258031469 1.165792241 0.9645408639 0.7473975559 0.5383010648)
5(1.166595248 1.077757365 0.8832106985 0.6351600048 0.4128368781)
5(1.075234229 0.9872452034 0.7933751922 0.4831059961 0.2858802186)
5(0.9665042821 0.8808796313 0.6908092455 0.3307292541 0.1887159681)
5(0.8396695148 0.7771280001 0.558461065 0.2033684705 0.1259066544)
5(0.7126762474 0.6713742313 0.4145147103 0.1121403699 0.07829476736)
5(0.5863989553 0.5503538458 0.2666991316 0.02023249392 0.04877398094)
5(0.4618157683 0.4237199046 0.1826434378 -0.04119733099 0.02324915954)
5(0.3418099229 0.3091885167 0.09613533174 -0.0782376734 0.003027358615)
5(0.1819475866 0.1433704082 0.01687663633 -0.09926515609 0.001446613691)
5(0.01030644263 0.1518845613 -0.03037607368 -0.09264705189 0.0319829205)
5(-0.1467337929 0.06554141079 -0.05185682949 -0.09025239866 0.07249346896)
5(-0.0851570726 -0.008375994207 -0.05095681201 -0.05577257625 0.1364146475)
5(-0.1185937748 -0.06126219713 -0.03627445286 -0.01024381121 0.2299290514)
5(-0.2055664729 -0.08128560491 -0.02608509594 0.06514554942 0.3178609642)
5(-0.2319995159 -0.08581115757 -0.001572332403 0.1268951873 0.4324584455)
5(-0.365992588 -0.102559677 0.0231414675 0.236367143 0.5693924886)
5(-0.6795025995 -0.1600924924 0.0444079447 0.3230319326 0.6302762229)
5(-1.210374263 -0.3849886608 -0.02231401131 0.2876062377 0.8855599405)
5(-2.370082234 -1.281769627 -0.7934895638 0.5020200807 0.6479319168)
5(-3.169620083 -2.477977161 -1.642002222 -1.967728336 -1.06105437)
)


60
(
5(1.927108926 5.273537151 1.220861175 1.871472321 -0.1517127933)
5(2.744006104 4.099319165 1.545329913 1.88795489 0.2514267237)
5(3.319639783 3.488801804 2.461131847 2.24676661 1.462875523)
5(3.606022931 3.288596106 2.932543941 2.441807238 2.190088262)
5(3.606979518 3.208745518 3.035491137 2.482970013 2.508582159)
5(3.363465396 3.076196498 2.84701901 2.391469722 2.437667868)
5(3.083829036 2.934093211 2.598668008 2.256668827 2.189208504)
5(2.929864576 2.828596589 2.447727029 2.159741757 2.018182803)
5(2.867859802 2.748603721 2.388543478 2.112320164 1.972230724)
5(2.82878581 2.690520683 2.378097103 2.096364962 1.986693029)
5(2.782805145 2.642605316 2.3605134 2.072913473 1.982241285)
5(2.728990235 2.596204072 2.324771784 2.041012074 1.959448167)
5(2.67081675 2.553439868 2.278447413 2.005363439 1.922318795)
5(2.620920835 2.511866993 2.236912355 1.973279161 1.888258274)
5(2.57968786 2.475563106 2.20336386 1.944734468 1.86346454)
5(2.548254746 2.44334221 2.176455169 1.922153857 1.844343602)
5(2.514535964 2.41336674 2.15123272 1.89929124 1.824959779)
5(2.482322672 2.386514009 2.125892894 1.876541241 1.803483862)
5(2.45248687 2.358549454 2.099173182 1.853132356 1.783828544)
5(2.421717046 2.331940953 2.073321471 1.830734422 1.762262417)
5(2.397228923 2.306977659 2.046213842 1.803124701 1.740175956)
5(2.368953619 2.277131539 2.019024531 1.778689342 1.717645955)
5(2.340159783 2.249191812 1.992298064 1.751656016 1.695972816)
5(2.31053857 2.220189334 1.963927334 1.724000411 1.674047361)
5(2.280924363 2.190907727 1.932382589 1.698993347 1.649012423)
5(2.248471477 2.157944375 1.902019062 1.669935048 1.62134969)
5(2.211060371 2.124504143 1.870651999 1.639954298 1.594462065)
5(2.178642187 2.090225634 1.835548085 1.603701112 1.562406402)
5(2.136910142 2.048591539 1.797654899 1.568430188 1.533974459)
5(2.093131558 2.009120063 1.759119617 1.530346809 1.499398997)
5(2.047989266 1.964212117 1.713890424 1.489426794 1.465460979)
5(1.996409441 1.913019821 1.668719658 1.447263593 1.424273342)
5(1.939225424 1.862339123 1.620534503 1.39853556 1.376543916)
5(1.880416673 1.805746465 1.563612294 1.343697206 1.32306713)
5(1.812095815 1.741374087 1.505123522 1.283907688 1.265403467)
5(1.743616102 1.674667836 1.440968047 1.217946273 1.208215233)
5(1.663626968 1.598802458 1.368486921 1.147917204 1.147960722)
5(1.571746082 1.516222386 1.287466448 1.071723131 1.070896693)
5(1.472410557 1.422633217 1.197062295 0.9791716931 0.9559492604)
5(1.360382623 1.321050553 1.099699604 0.8626440677 0.795612664)
5(1.243557374 1.211387996 0.9900782367 0.7127567515 0.6039497055)
5(1.111722854 1.086205669 0.8645071216 0.5299551074 0.4146041126)
5(0.9617679349 0.9520634249 0.7188540737 0.3248547687 0.2581055035)
5(0.7995857206 0.810328197 0.5439905609 0.1231500831 0.143001014)
5(0.6187942269 0.6581473315 0.3440921727 -0.05375328209 0.05495731877)
5(0.4355581702 0.492809543 0.1211067827 -0.2003177948 -0.02122071558)
5(0.2462461636 0.3002574541 -0.1011899236 -0.312543612 -0.08779814931)
5(0.045182815 0.07868153905 -0.2919844791 -0.3977902573 -0.1393687573)
5(-0.1990777705 -0.1523944845 -0.4381696474 -0.459022508 -0.1665848419)
5(-0.4623063726 -0.3719375586 -0.5472345296 -0.4974435729 -0.1695533144)
5(-0.7598813615 -0.558375627 -0.619364814 -0.5105688479 -0.1510769015)
5(-1.042391592 -0.7019127219 -0.661374043 -0.5005721696 -0.1156373653)
5(-1.273064275 -0.8025914286 -0.6834957341 -0.4729244612 -0.0649721835)
5(-1.419157576 -0.8703971785 -0.69033259 -0.4257096587 -0.001911795486)
5(-1.505398089 -0.9215248765 -0.6791257744 -0.3630141751 0.07768020424)
5(-1.547071468 -0.9521160683 -0.6546368046 -0.2849472336 0.1677452969)
5(-1.568691628 -0.9806486707 -0.6219761481 -0.1912168472 0.2671245331)
5(-1.639616107 -1.041316414 -0.5959214639 -0.09620955219 0.36944127)
5(-2.005148178 -1.309789406 -0.7869909193 -0.08654861592 0.4360544714)
5(-2.542089872 -2.066928811 -1.098681328 -0.3283299753 -0.1109920763)
)


60
(
5(3.329767604 6.310597535 2.369835861 2.521700636 0.7886257281)
5(3.640080651 4.847512176 2.331364005 2.409574106 0.9275343669)
5(3.868614104 3.977832911 2.97501471 2.628190707 1.909347535)
5(4.004198781 3.656472325 3.292817304 2.739334688 2.502845442)
5(3.942955395 3.524510963 3.310219535 2.736321243 2.746829965)
5(3.660874893 3.361607005 3.098886929 2.622041127 2.655569076)
5(3.356069188 3.19441942 2.842410016 2.47071304 2.407970275)
5(3.177493566 3.06725141 2.674348199 2.362543199 2.236023203)
5(3.095942706 2.973393005 2.602250119 2.306644985 2.178542918)
5(3.043223175 2.901694317 2.57428382 2.275393232 2.176918968)
5(2.980608522 2.837967757 2.542980062 2.241977549 2.165109786)
5(2.911528918 2.779940682 2.495800817 2.202629521 2.135436943)
5(2.843872053 2.726072172 2.442128693 2.161820008 2.090708094)
5(2.784814298 2.675717205 2.393553625 2.12105918 2.050885036)
5(2.734021224 2.631937999 2.354164127 2.086610786 2.023050403)
5(2.690123734 2.592926339 2.31944679 2.057065498 1.997929257)
5(2.651704854 2.556127481 2.285594151 2.028065359 1.974604949)
5(2.611129993 2.520616735 2.252266775 2.002287873 1.951055788)
5(2.57480322 2.487493847 2.221329897 1.973667224 1.925151073)
5(2.538611961 2.452599359 2.189711998 1.947558946 1.9012154)
5(2.502330457 2.421693605 2.160160582 1.917298054 1.873698397)
5(2.469681384 2.38887062 2.125926955 1.885901889 1.849680199)
5(2.436813173 2.354316869 2.093730395 1.858197556 1.825578167)
5(2.399388776 2.318518887 2.06211975 1.828791155 1.801848221)
5(2.360972075 2.28507163 2.03050774 1.799930807 1.777760597)
5(2.324136246 2.251326867 1.995253595 1.770023647 1.747766526)
5(2.284186458 2.211494929 1.959396058 1.736332563 1.718917341)
5(2.24299097 2.173209604 1.922535529 1.701213814 1.689220109)
5(2.197504624 2.130838053 1.882340667 1.663449279 1.658684221)
5(2.149751505 2.086094162 1.841561692 1.627878739 1.628571005)
5(2.098269683 2.03933665 1.79640615 1.58685784 1.592955377)
5(2.043437328 1.988536013 1.751432624 1.546669747 1.556329644)
5(1.984453711 1.935723881 1.704112364 1.499590059 1.512376622)
5(1.922643893 1.87956257 1.649720056 1.449028712 1.463348347)
5(1.854423701 1.817396608 1.592720466 1.392377681 1.408626537)
5(1.78254175 1.750580551 1.530391734 1.332395033 1.356447088)
5(1.702983977 1.677770717 1.463306994 1.267228225 1.298311943)
5(1.61462213 1.600377525 1.388505436 1.19284367 1.22458775)
5(1.52071008 1.514579832 1.303416339 1.105893166 1.117407594)
5(1.417649806 1.421079532 1.20963846 0.9931649426 0.9621139232)
5(1.305792484 1.316124119 1.103894019 0.8472150453 0.7740139413)
5(1.184075878 1.201247848 0.9822069372 0.667139258 0.5839304838)
5(1.047087444 1.075573759 0.8399838631 0.4613698169 0.4158027064)
5(0.8972346906 0.9413972804 0.6674131525 0.2514908511 0.2856247315)
5(0.7304934904 0.7948727772 0.46009309 0.05651807737 0.175437616)
5(0.5533211059 0.6262465299 0.230736835 -0.110323104 0.07516458025)
5(0.3712970723 0.4305769167 -0.001237832317 -0.2501966027 -0.02279698036)
5(0.1679452162 0.2033161087 -0.2151421031 -0.3681142227 -0.1067088629)
5(-0.06144125441 -0.03905460989 -0.392575981 -0.4624150633 -0.163433303)
5(-0.3511362185 -0.2885825502 -0.5339345493 -0.5329943167 -0.1956151215)
5(-0.6764016378 -0.5115291277 -0.6429529798 -0.574024246 -0.1973885705)
5(-0.9940970638 -0.6997836618 -0.7215889327 -0.5876013141 -0.1794531731)
5(-1.279451069 -0.852134392 -0.7780994315 -0.5789414748 -0.1403093907)
5(-1.515109832 -0.980495718 -0.8126851887 -0.5419726759 -0.07804951744)
5(-1.704964202 -1.082170211 -0.8254337231 -0.4807937963 0.003883378017)
5(-1.842868931 -1.165113777 -0.8171514113 -0.3979137852 0.100749849)
5(-1.963023047 -1.243990397 -0.7949993803 -0.3020558131 0.2042483576)
5(-2.104536565 -1.350647338 -0.7965849544 -0.2034153211 0.3143658842)
5(-2.513118201 -1.794315763 -1.08913362 -0.2371505552 0.3498034015)
5(-2.272199139 -1.813578361 -1.449208785 -0.4660288724 -0.2866741812)
)


60
(
5(4.560498329 7.23573991 3.340736434 3.086466663 1.532016097)
5(4.443382972 5.506093798 3.01455721 2.865985887 1.499729039)
5(4.33833497 4.395149139 3.4081517 2.960068438 2.277605087)
5(4.334683856 3.962623445 3.597134844 2.996313183 2.761770467)
5(4.222536553 3.790036448 3.549074285 2.954053413 2.953071852)
5(3.910362363 3.59707488 3.312591558 2.821877322 2.844472814)
5(3.579885369 3.407868519 3.046979254 2.657684567 2.594103335)
5(3.383138839 3.265257301 2.865616586 2.538016037 2.417484082)
5(3.285032636 3.154497507 2.778736714 2.470068955 2.350836522)
5(3.2138845 3.069903422 2.738595213 2.43013707 2.338604771)
5(3.13987529 2.996648791 2.696181396 2.389181488 2.319117271)
5(3.060157544 2.927345864 2.641404905 2.341906663 2.281055958)
5(2.980163927 2.865937286 2.579462592 2.29268723 2.233690881)
5(2.915336017 2.809785217 2.52291647 2.24905098 2.190090248)
5(2.858424984 2.757816753 2.476061808 2.209344183 2.154814637)
5(2.806850828 2.710880429 2.436367399 2.174521927 2.12678973)
5(2.759248611 2.667971617 2.399651879 2.141092371 2.100657841)
5(2.714029291 2.628529541 2.359997114 2.110277699 2.074585606)
5(2.671017686 2.589053697 2.324290976 2.082115449 2.045306464)
5(2.629013766 2.551139426 2.289438278 2.048876238 2.017672792)
5(2.589275172 2.514504082 2.255083469 2.017961992 1.990082355)
5(2.550130293 2.477454102 2.218663073 1.984231312 1.96315088)
5(2.510038781 2.439665558 2.184460161 1.952919628 1.939289264)
5(2.470521557 2.40324548 2.148846237 1.923045555 1.914263351)
5(2.429679579 2.364361005 2.113798453 1.893616399 1.887678674)
5(2.386765546 2.32755677 2.078348553 1.862150648 1.859732645)
5(2.344244693 2.288257902 2.040912117 1.829008484 1.831886444)
5(2.299029315 2.2454843 2.002769407 1.794640142 1.802495335)
5(2.250969655 2.202617961 1.963136089 1.758090144 1.772422119)
5(2.201617452 2.158056353 1.921330818 1.721552179 1.742078561)
5(2.149352014 2.110774709 1.878386473 1.683942897 1.709019439)
5(2.093514974 2.060995181 1.83252432 1.643589309 1.673399462)
5(2.034981415 2.007524011 1.78636194 1.601327353 1.635609269)
5(1.972161683 1.95242609 1.735638068 1.553175001 1.588653254)
5(1.906840067 1.894615382 1.681927466 1.501141561 1.540688285)
5(1.836979998 1.831968991 1.624040465 1.444493787 1.491098953)
5(1.761432566 1.763727769 1.560408041 1.38428272 1.439990289)
5(1.681111473 1.691994644 1.491417183 1.317717859 1.373794429)
5(1.596193879 1.613776775 1.413069861 1.237587724 1.274736203)
5(1.503264949 1.528046038 1.326822662 1.133630304 1.13087268)
5(1.405290942 1.43437918 1.230583919 0.9950293928 0.9520277488)
5(1.296571464 1.332424466 1.119050417 0.8244426996 0.7695685305)
5(1.179455045 1.222320224 0.9880320521 0.62997889 0.6087897685)
5(1.052147935 1.103059764 0.8248427769 0.4262698161 0.4745049521)
5(0.9180209684 0.9724279716 0.6306692088 0.234819409 0.3578261366)
5(0.7693864528 0.8219189673 0.4113439772 0.06033910635 0.2448711093)
5(0.6199269203 0.6402870084 0.1807534031 -0.09252273101 0.1310823773)
5(0.4382588851 0.4231603332 -0.0386817169 -0.223591747 0.03059191815)
5(0.2342319064 0.1813372148 -0.2236987262 -0.3393810008 -0.05662207343)
5(-0.03045538941 -0.06637105148 -0.3838049186 -0.4387137882 -0.1134958679)
5(-0.3343457353 -0.3052862902 -0.5222021482 -0.5100323683 -0.1472573681)
5(-0.6489377634 -0.5212238852 -0.6370707567 -0.5563380799 -0.1501732045)
5(-0.9450409886 -0.7200433698 -0.7361018516 -0.5738458769 -0.1287510399)
5(-1.211311992 -0.8987785308 -0.8172260597 -0.5621809624 -0.08501210707)
5(-1.447288887 -1.060575103 -0.8757874197 -0.522782056 -0.01914951987)
5(-1.667441431 -1.214946453 -0.9159408803 -0.4592793403 0.06644102366)
5(-1.875071753 -1.364159517 -0.9521207673 -0.3864223645 0.1617765195)
5(-2.108394928 -1.544613846 -1.012629299 -0.3152220563 0.2538222431)
5(-2.6251773 -2.039013782 -1.462050426 -0.4841114988 0.2103345614)
5(-2.424028952 -1.897874073 -1.671278996 -0.842571814 -0.1834554218)
)


60
(
5(5.724562782 8.139451511 4.223335691 3.621248153 2.172472781)
5(5.221136837 6.148104666 3.649365184 3.300380314 2.012133055)
5(4.796727187 4.803108121 3.820425576 3.280924998 2.616065251)
5(4.659272416 4.262958045 3.892944906 3.24781545 3.004600671)
5(4.500923306 4.048617299 3.78552266 3.169160377 3.151722444)
5(4.161174345 3.829099344 3.523957553 3.018674372 3.027657147)
5(3.804348807 3.617652137 3.24784616 2.841650368 2.771628926)
5(3.588226402 3.459053683 3.052484962 2.710376902 2.589301608)
5(3.472959234 3.335019023 2.952467634 2.632417489 2.51388379)
5(3.387985729 3.236500736 2.898955546 2.582540779 2.492480433)
5(3.301399952 3.152929573 2.847737052 2.533943024 2.464822139)
5(3.211150916 3.075654941 2.783679585 2.480133233 2.421636615)
5(3.124395801 3.00473389 2.715483676 2.42512947 2.369288169)
5(3.048096246 2.940586317 2.652224343 2.376056331 2.3222756)
5(2.983337369 2.883248723 2.600947057 2.332143021 2.283447515)
5(2.926187527 2.831138061 2.554722065 2.292755738 2.251576882)
5(2.872828952 2.782702886 2.511421226 2.256690547 2.22136082)
5(2.82223544 2.736784316 2.470525055 2.221467394 2.191584016)
5(2.77279314 2.693779456 2.429710031 2.188838164 2.161058488)
5(2.726326729 2.651963028 2.391076871 2.15463019 2.131049659)
5(2.681854934 2.610686875 2.353508182 2.119992774 2.102042051)
5(2.637398132 2.57132347 2.31539774 2.085597232 2.074734014)
5(2.594963933 2.530479085 2.277004118 2.052798857 2.048803504)
5(2.551538411 2.490539088 2.240367346 2.021023561 2.022525893)
5(2.506888444 2.451746247 2.20322162 1.990110095 1.995734658)
5(2.462292067 2.410815649 2.165428806 1.959401276 1.967830434)
5(2.416317558 2.37004161 2.128449691 1.925566777 1.938194058)
5(2.369507299 2.327405628 2.089277655 1.889579986 1.909594178)
5(2.320627739 2.283308157 2.048586402 1.854996389 1.881876183)
5(2.269567718 2.237010242 2.006670416 1.818985909 1.852083218)
5(2.216079645 2.189154331 1.965063364 1.782581354 1.820624051)
5(2.160075541 2.140422477 1.921410179 1.744201176 1.788091304)
5(2.103450426 2.089840849 1.874478191 1.703654592 1.750180009)
5(2.041880621 2.035507803 1.826068181 1.658354468 1.707292085)
5(1.978220093 1.978849257 1.774085606 1.609357909 1.662448038)
5(1.911029382 1.919611406 1.720739185 1.556516719 1.617809747)
5(1.840630187 1.85732097 1.6621575 1.50128155 1.571138842)
5(1.766475795 1.791542927 1.598134337 1.441810513 1.512082559)
5(1.689345782 1.72118006 1.527947597 1.367702683 1.421945929)
5(1.608756651 1.644880117 1.449068402 1.272351683 1.290551681)
5(1.523349801 1.562945151 1.363155096 1.146624514 1.126763839)
5(1.435115688 1.47569129 1.264920486 0.9904873518 0.9599476723)
5(1.344570654 1.383725695 1.146517007 0.8101367507 0.8060688955)
5(1.242980117 1.286333864 1.001090024 0.6220932918 0.6796939995)
5(1.135957813 1.175911634 0.8267802584 0.4407458308 0.5628489472)
5(1.021317062 1.047475769 0.6251490835 0.2750582464 0.4514810789)
5(0.9018505229 0.8906124142 0.4111624498 0.1247516042 0.3299355837)
5(0.7613680401 0.6951781882 0.210107265 -0.01071260868 0.2169118519)
5(0.5843683669 0.4782115559 0.02724983936 -0.1391211635 0.1197936092)
5(0.3597132565 0.2453761212 -0.1414603216 -0.2532492052 0.04024323175)
5(0.09072377218 0.01362362912 -0.2936667433 -0.3508729288 -0.01726001267)
5(-0.1970867823 -0.203091172 -0.4325693806 -0.4227132785 -0.04702257957)
5(-0.4588837043 -0.4130787768 -0.5684059256 -0.4779413449 -0.05787624676)
5(-0.6920513985 -0.608380736 -0.6993387051 -0.5068458423 -0.04528075101)
5(-0.9122291837 -0.8071919486 -0.8132992205 -0.5139352515 -0.006615656291)
5(-1.133065487 -1.007104089 -0.9221419516 -0.5018262353 0.04972565986)
5(-1.369708006 -1.221420446 -1.031226891 -0.4779331312 0.118734205)
5(-1.641608628 -1.458270548 -1.164981204 -0.4769564717 0.1710246189)
5(-2.26649347 -2.004162061 -1.646766158 -0.7346779787 0.03985103273)
5(-2.103826663 -1.824814338 -1.697142126 -1.021309828 -0.4419992921)
)


60
(
5(6.868624241 9.05750491 5.063411275 4.144750672 2.752545972)
5(5.998929331 6.800841011 4.263420348 3.729544618 2.488350383)
5(5.262495724 5.21924578 4.230569667 3.602357052 2.941290507)
5(4.994809587 4.570607088 4.193793703 3.503766539 3.244747809)
5(4.792257752 4.317082853 4.02955089 3.389045544 3.349900086)
5(4.423399401 4.069237492 3.744662185 3.220764246 3.210225591)
5(4.039104462 3.835502051 3.453779976 3.029882132 2.948205852)
5(3.804004462 3.661423137 3.24662508 2.887259367 2.75807791)
5(3.671210971 3.521759572 3.130275681 2.798710328 2.675459724)
5(3.572542264 3.412819359 3.068353696 2.7403886 2.644303098)
5(3.474085192 3.317576611 3.004929873 2.683055568 2.610057076)
5(3.37485313 3.232033213 2.934640639 2.623385482 2.560781588)
5(3.277958616 3.15305848 2.857983548 2.562461413 2.504306042)
5(3.193949645 3.082246298 2.789814951 2.508253487 2.452896545)
5(3.122129025 3.017749466 2.73115782 2.459611541 2.410988519)
5(3.058389797 2.959853314 2.681293235 2.416573901 2.375370363)
5(2.998928784 2.906080942 2.632769718 2.37612308 2.342256371)
5(2.942224188 2.856262599 2.587658606 2.339088239 2.309231201)
5(2.888404292 2.808335223 2.543093592 2.301761307 2.276766585)
5(2.837015342 2.763300197 2.501677338 2.265994794 2.244962066)
5(2.788670421 2.718314817 2.459853185 2.228680204 2.214109531)
5(2.740667839 2.675012893 2.419952147 2.192910081 2.184841458)
5(2.693405607 2.632068955 2.37976076 2.157566734 2.157313337)
5(2.646642817 2.589572501 2.339804502 2.124844794 2.130362318)
5(2.600761846 2.547940132 2.301932596 2.09311707 2.103266994)
5(2.551965568 2.505557616 2.262992782 2.060561852 2.07505811)
5(2.505338818 2.462918512 2.223997123 2.027364667 2.045089804)
5(2.456101816 2.418440624 2.184610666 1.991162412 2.016226114)
5(2.404856539 2.373682056 2.143118417 1.955836687 1.987686509)
5(2.352038686 2.32802003 2.101835239 1.920616414 1.958104984)
5(2.300925786 2.279737942 2.059517281 1.885068015 1.928996191)
5(2.244886603 2.230691038 2.016726519 1.84740615 1.896672066)
5(2.18553359 2.181085781 1.970928886 1.807438769 1.861270284)
5(2.125982086 2.128455986 1.923975907 1.764781888 1.821609532)
5(2.065258259 2.074438777 1.874770491 1.71875644 1.78044976)
5(2.002298089 2.018439543 1.824137144 1.670007143 1.738586152)
5(1.937085035 1.961064397 1.768954157 1.618722371 1.695051165)
5(1.869243926 1.900768211 1.709186131 1.563796574 1.64080401)
5(1.801366984 1.837874105 1.645668053 1.496644576 1.560454019)
5(1.731035964 1.771345031 1.576264806 1.410243332 1.442479206)
5(1.66141995 1.702500285 1.50144292 1.297573009 1.291039344)
5(1.58863262 1.629989607 1.416035268 1.156262943 1.137447346)
5(1.515331734 1.554332422 1.313801994 0.992619 0.9947866021)
5(1.442650166 1.475989892 1.187393677 0.8215626878 0.8813665814)
5(1.359050886 1.388019314 1.03418916 0.6577035947 0.7765351275)
5(1.275028792 1.282902407 0.8569990378 0.5080683366 0.6689718081)
5(1.180528363 1.150223348 0.6708925417 0.3696320735 0.5540329479)
5(1.069288834 0.9875568768 0.4903469793 0.2399180019 0.440521992)
5(0.9262129922 0.7963943923 0.3170179391 0.1146727277 0.334446328)
5(0.7334627692 0.5904832147 0.1596229347 -0.002243702649 0.2482685793)
5(0.5065875985 0.3831013111 0.01150698989 -0.1058144728 0.1794080901)
5(0.2759947252 0.184244448 -0.1334629039 -0.2024640059 0.1189323461)
5(0.05080457767 -0.004879597574 -0.2782290677 -0.2813686256 0.08307525189)
5(-0.1515560376 -0.1876746633 -0.4190917996 -0.3541363922 0.05777968519)
5(-0.3370860633 -0.3779322694 -0.5683347632 -0.4135264392 0.05199690349)
5(-0.515791769 -0.5706100588 -0.7241709452 -0.4669474474 0.0597964967)
5(-0.7054900118 -0.7765342553 -0.8875257096 -0.516945121 0.06899628608)
5(-0.9353671647 -1.031442756 -1.091177067 -0.5918816444 0.04428089039)
5(-1.543931443 -1.589706747 -1.566397037 -0.920401128 -0.240829044)
5(-1.609745345 -1.37285788 -1.28591781 -1.004865614 -0.4461209356)
)


60
(
5(8.005512352 10.00535902 5.886077365 4.668016825 3.300057368)
5(6.785330375 7.476819773 4.871080234 4.162214763 2.945330991)
5(5.744061639 5.650864736 4.647014055 3.931039317 3.26089695)
5(5.343303823 4.888581931 4.506716791 3.768508451 3.487670742)
5(5.093826189 4.596845423 4.285458668 3.618688973 3.554451406)
5(4.69657945 4.32185754 3.975788211 3.431935825 3.398967191)
5(4.286465593 4.064618243 3.671560618 3.226488162 3.127520604)
5(4.030693377 3.873719826 3.448549314 3.072201124 2.93126027)
5(3.881897795 3.720463906 3.319036882 2.972940553 2.838748944)
5(3.768627093 3.598443684 3.245579 2.90659257 2.800223224)
5(3.659113707 3.493569796 3.173803487 2.841042359 2.757962695)
5(3.549240453 3.398547479 3.094988858 2.774810851 2.704405132)
5(3.443933485 3.311775771 3.011211332 2.707751952 2.642443255)
5(3.350890299 3.233745241 2.937413743 2.649345548 2.587799618)
5(3.272798495 3.162875201 2.872682563 2.595119191 2.541332555)
5(3.201531729 3.099503447 2.817817994 2.548713363 2.502764215)
5(3.137005506 3.040693838 2.764989245 2.503537133 2.466204175)
5(3.074046745 2.985771941 2.715066509 2.464145785 2.43143021)
5(3.015766429 2.934171157 2.667234555 2.42347211 2.395981528)
5(2.95975317 2.884013371 2.621672002 2.385899582 2.362121831)
5(2.90740077 2.836644728 2.577607133 2.345392592 2.329032469)
5(2.855946233 2.789322938 2.534415011 2.308176359 2.299433081)
5(2.804788179 2.743640783 2.492202207 2.270946788 2.269206012)
5(2.756229477 2.698697738 2.451188245 2.23665726 2.242254999)
5(2.704757187 2.654045192 2.41012578 2.2035411 2.212783381)
5(2.654785584 2.610546683 2.370322362 2.169908949 2.184307187)
5(2.606045636 2.565717779 2.329439316 2.135701041 2.155540483)
5(2.554997637 2.520406268 2.289201788 2.100484491 2.124855899)
5(2.50321886 2.474475617 2.247817237 2.064222436 2.097431876)