/*--------------------------------*- C++ -*----------------------------------*\
| =========                 |                                                 |
| \\      /  F ield         | OpenFOAM: The Open Source CFD Toolbox           |
|  \\    /   O peration     | Version:  2.3.1                                 |
|   \\  /    A nd           | Web:      www.OpenFOAM.org                      |
|    \\/     M anipulation  |                                                 |
\*---------------------------------------------------------------------------*/
FoamFile
{
    version     2.0;
    format      ascii;
    class       dictionary;
    location    "constant";
    object      PM19;
}
// * * * * * * * * * * * * * * * * * * * * * * * * * * * * * * * * * * * * * //

PM19_table
60
(

60
(
5(-0.0006116606187 -0.001314569962 -0.001020923844 -0.001153055538 -0.0009879870787)
5(0.005457986703 -0.001556093484 -0.001482665558 -0.001591863523 -0.001184374635)
5(0.005096010713 -0.001994633889 -0.001535823502 -0.001824792626 -0.00220124547)
5(0.004946003994 -0.003254735947 -0.001504207982 -0.001976845348 -0.00106677133)
5(0.003831130031 -0.004843969665 -0.001902178737 -0.002081771428 -0.00227460739)
5(-0.001734354105 -0.005741784246 -0.002468048118 -0.002543714347 -0.002976091726)
5(-0.007057262158 -0.002510721358 -0.002938128978 -0.003158805389 -0.003744854473)
5(0.00532583048 -0.00299064254 -0.003236106914 -0.003754358543 -0.00433108594)
5(0.008632764684 -0.007080123084 -0.003633872658 -0.004596251736 -0.005828887165)
5(0.003160602328 -0.008611003054 -0.004721908523 -0.005513048398 -0.007033783284)
5(-0.004926917747 -0.01089313674 -0.006119419546 -0.006856382299 -0.008605433249)
5(-0.01298413804 -0.009645799753 -0.007372829735 -0.008386217582 -0.01033883065)
5(-0.008962099501 -0.00740381917 -0.008992713227 -0.01008782271 -0.01301095135)
5(-0.005539366493 -0.008897001502 -0.0108351579 -0.0122400882 -0.01562778896)
5(-0.006113170268 -0.009727989956 -0.01268185525 -0.01449857919 -0.01869569419)
5(-0.006612756599 -0.01131340096 -0.01514518147 -0.01737829232 -0.02258346296)
5(-0.009431978343 -0.01529088892 -0.01906751251 -0.02145423595 -0.02684283563)
5(-0.01200448287 -0.01877470028 -0.02339620298 -0.02494456615 -0.03063264045)
5(-0.01439937138 -0.02244095609 -0.02682759171 -0.02892093813 -0.03519912607)
5(-0.01712437438 -0.02621536579 -0.03123944289 -0.03357851911 -0.04163450975)
5(-0.02045838256 -0.03071063268 -0.0366131964 -0.03930512519 -0.04860285417)
5(-0.02434591057 -0.03598881841 -0.04264020773 -0.04589060881 -0.05547034957)
5(-0.02862468014 -0.04171071056 -0.0494172869 -0.0522349522 -0.06248516475)
5(-0.0336515933 -0.04794312028 -0.05674515264 -0.05922596421 -0.0702134968)
5(-0.03931365646 -0.05470021686 -0.06456292856 -0.06643551491 -0.07829062159)
5(-0.0456545821 -0.06279493943 -0.07315613879 -0.07407319269 -0.08706701217)
5(-0.05322850288 -0.07259186799 -0.08285742597 -0.08269188561 -0.0963410128)
5(-0.0619430022 -0.08267270115 -0.09281429259 -0.09209202719 -0.1060419709)
5(-0.07129642817 -0.09288829791 -0.1042868385 -0.1027465507 -0.1162689682)
5(-0.08186563586 -0.1042442075 -0.1164458313 -0.1141908527 -0.1271424821)
5(-0.09380320151 -0.1168307662 -0.1291393067 -0.1253574346 -0.1391573303)
5(-0.1074659678 -0.131301512 -0.1437100493 -0.1391343229 -0.1524190384)
5(-0.1229558322 -0.1464201261 -0.1582216976 -0.1519692698 -0.1621709964)
5(-0.1402228931 -0.1628760078 -0.1735235602 -0.1662593902 -0.1790701467)
5(-0.1597761986 -0.1814499829 -0.19039753 -0.1806884924 -0.1919401967)
5(-0.181843035 -0.2006173979 -0.2071906045 -0.1955923069 -0.2023673966)
5(-0.2067519231 -0.2247607386 -0.230798743 -0.2113930647 -0.213399332)
5(-0.2343715731 -0.2468455646 -0.2500989852 -0.2244588836 -0.2295056161)
5(-0.2644618377 -0.272063369 -0.2683384185 -0.2408343843 -0.2452816856)
5(-0.2968072803 -0.2986622198 -0.2878875173 -0.2505639413 -0.2458376486)
5(-0.333249454 -0.328186498 -0.3115852246 -0.2643431338 -0.2764450455)
5(-0.3717612641 -0.3565534896 -0.3299137584 -0.2698088348 -0.278554997)
5(-0.4109131024 -0.3849971862 -0.3386248709 -0.2987669606 -0.2671281266)
5(-0.450510918 -0.4069653952 -0.3427685195 -0.3143422443 -0.2574665968)
5(-0.4887999308 -0.4301214056 -0.3558739735 -0.3098707935 -0.2486788652)
5(-0.5262090056 -0.4446528632 -0.3425228959 -0.3014690356 -0.2325599241)
5(-0.5515026431 -0.4404839393 -0.3409811061 -0.2863511987 -0.2143266874)
5(-0.5659214183 -0.4464839535 -0.3654801309 -0.2657192007 -0.1937777045)
5(-0.5828273237 -0.3979028909 -0.3548485799 -0.2414561969 -0.170919063)
5(-0.4620850575 -0.3696631625 -0.3390922299 -0.2135088163 -0.1468136218)
5(-0.4085370333 -0.3937760683 -0.3080050069 -0.1839882253 -0.1218875953)
5(-0.4648375536 -0.3725883492 -0.2708668407 -0.1508377819 -0.09639364155)
5(-0.4770661704 -0.3291023811 -0.2301317755 -0.1149641343 -0.06943188574)
5(-0.4326167917 -0.2745508404 -0.1856955932 -0.0765554204 -0.04267148557)
5(-0.3654494632 -0.2151586676 -0.1358868259 -0.03557499028 -0.01478353633)
5(-0.2796718663 -0.145877247 -0.07849145429 0.008347625595 0.01329973897)
5(-0.1492883811 -0.06263911109 -0.0101399124 0.05772099527 0.0379451146)
5(0.0601300872 0.07126926814 0.07797480854 0.1320924893 0.0617457921)
5(0.3809582808 0.3089111043 0.2494676975 0.04296453573 0.07676935554)
5(0.4292215563 0.5390949423 0.4450663647 0.4080762284 0.3564793019)
)


60
(
5(-0.000293446573 -0.0004761682712 -0.0006093496637 -0.0006834244352 -0.0009926351327)
5(-0.0005177587965 -0.0009305957385 -0.001001107586 -0.001016980987 -0.001480773111)
5(0.0006191966113 -0.0007746955211 -0.001016559228 -0.001101795301 -0.001728967392)
5(0.003002214605 -0.0007220185679 -0.0008812274697 -0.001160652818 -0.001063260045)
5(0.004273689711 -0.0007740797648 -0.0009291744754 -0.001095149273 -0.001352439431)
5(0.003588385512 -0.0008545885768 -0.001108398018 -0.001196686926 -0.001520512498)
5(-0.0005889697547 -0.0009631224573 -0.001219955499 -0.001387033467 -0.001731179655)
5(-0.0006765032455 -0.001098702248 -0.001386715623 -0.001592948847 -0.002031589467)
5(0.004076380356 -0.001276960611 -0.001537642118 -0.001881774891 -0.002445169892)
5(0.005913431939 -0.001290684774 -0.001781373754 -0.002229626119 -0.002909072279)
5(0.006193550454 -0.001437105559 -0.002176650942 -0.002653605596 -0.003540042564)
5(0.00207417725 -0.002136389532 -0.002709356792 -0.003251893632 -0.004215646671)
5(-0.001517965418 -0.002570412865 -0.003316042478 -0.003933013156 -0.005194448354)
5(-0.001860040426 -0.00310590105 -0.004045870417 -0.00483786911 -0.006360660352)
5(-0.002277244556 -0.00380616682 -0.00497542924 -0.005902597371 -0.007783073129)
5(-0.002357291923 -0.004100716081 -0.005889277859 -0.007058124596 -0.009368495631)
5(-0.003031334662 -0.005233556077 -0.007151236928 -0.00870192236 -0.01147617542)
5(-0.004152370054 -0.006638703609 -0.009098165843 -0.01066383894 -0.01393975592)
5(-0.005410734236 -0.008371354541 -0.01116008095 -0.01298352672 -0.01664823641)
5(-0.006733967109 -0.01029887178 -0.01356046448 -0.01558146476 -0.02005651837)
5(-0.00834345557 -0.0125733393 -0.01648046973 -0.01881386872 -0.02414954788)
5(-0.01042954316 -0.01526786539 -0.01985350828 -0.0229633921 -0.02898168594)
5(-0.01280501881 -0.0183310982 -0.02389430684 -0.0270345973 -0.03384057531)
5(-0.01566383392 -0.02184116599 -0.02852935572 -0.0319828262 -0.03965964107)
5(-0.01910759875 -0.02598370755 -0.03376632588 -0.03730160336 -0.04573413019)
5(-0.02316652375 -0.03069266203 -0.03948126307 -0.04305597756 -0.05266552319)
5(-0.02793221145 -0.03641492996 -0.04635247151 -0.04961815998 -0.06030733497)
5(-0.03344130377 -0.04292168554 -0.05357090225 -0.05702056696 -0.06861206527)
5(-0.03976553409 -0.04991979389 -0.06200524393 -0.06547300459 -0.07749181935)
5(-0.04709659576 -0.05760322342 -0.07132625333 -0.07523309112 -0.0875440178)
5(-0.05538184826 -0.06635517952 -0.081144252 -0.0846685734 -0.09794481962)
5(-0.06505974532 -0.07671895857 -0.09292617829 -0.09691512982 -0.1118094423)
5(-0.07632986235 -0.08797139072 -0.1051935139 -0.1091000738 -0.1218417192)
5(-0.0890216289 -0.1003699474 -0.118300367 -0.1229169798 -0.1385890109)
5(-0.1035110675 -0.1150106848 -0.1338146751 -0.1376758065 -0.1532705488)
5(-0.1201302501 -0.1301193997 -0.1482898311 -0.1532993962 -0.1687033516)
5(-0.1395597549 -0.1500730902 -0.1707434254 -0.1725957631 -0.1839936772)
5(-0.1610448873 -0.1692629255 -0.1911413429 -0.1900444744 -0.2102396083)
5(-0.185572191 -0.1923841689 -0.2117202639 -0.2110855542 -0.2198032976)
5(-0.2119020477 -0.2167363892 -0.2329212375 -0.230816493 -0.2746364858)
5(-0.2425828823 -0.2459124788 -0.2617579476 -0.2551751456 -0.2946273806)
5(-0.2774080875 -0.2758828053 -0.2893194961 -0.2944210933 -0.3133042987)
5(-0.3140920198 -0.3106708595 -0.3197629568 -0.3467218027 -0.3252503257)
5(-0.3535058491 -0.3405351953 -0.3328610423 -0.3692835878 -0.3291595015)
5(-0.3943225926 -0.374473925 -0.3659941994 -0.3830636127 -0.3312672167)
5(-0.4394672004 -0.4039519129 -0.4020894187 -0.3913524063 -0.325218495)
5(-0.4813422832 -0.4396147496 -0.465096645 -0.3899095302 -0.312204834)
5(-0.5205596893 -0.4876342198 -0.4886848498 -0.3795672087 -0.2933998688)
5(-0.5518678522 -0.5019687538 -0.4899290147 -0.3605794251 -0.2689145321)
5(-0.5760479547 -0.5602136845 -0.4749801581 -0.3324218421 -0.2401235298)
5(-0.5936556136 -0.549912231 -0.4462256348 -0.2983636165 -0.2093341627)
5(-0.6374641556 -0.5196289543 -0.405661532 -0.258113344 -0.1767250718)
5(-0.6236388624 -0.4704705359 -0.3556191598 -0.2140359008 -0.1427756704)
5(-0.5734370969 -0.4046650583 -0.2987372864 -0.1665777909 -0.1082749244)
5(-0.487072831 -0.3249900612 -0.2343411575 -0.1166186286 -0.07419791614)
5(-0.3702604693 -0.2339523451 -0.1627151784 -0.06484149489 -0.04045728505)
5(-0.1990932777 -0.1282355302 -0.08159307034 -0.01051292904 -0.0102433406)
5(0.02133612728 0.01910975314 0.0151858781 0.04646809395 0.01872598754)
5(0.3237255677 0.2535217627 0.2061334038 0.04083490982 0.05103772904)
5(0.4964603765 0.4600195433 0.3329803574 0.3385489191 0.2698407572)
)


60
(
5(-5.065059415e-05 7.116700744e-06 -0.0002370417918 -0.0002165868852 -0.0005339344042)
5(-0.0001689057071 -7.07494858e-05 -0.0004104757513 -0.0003474242435 -0.0007916303357)
5(-0.0001440623084 -1.238442943e-05 -0.0003632279949 -0.0002850948167 -0.0006849231761)
5(-8.499879983e-05 7.756605282e-05 -0.0002649370766 -0.0001767206625 -0.0005490347309)
5(-1.797505959e-05 0.0001834484513 -0.0001458523868 -4.711737624e-05 -0.0004037624331)
5(5.959978054e-05 0.0003045675101 -2.229643334e-05 8.085399349e-05 -0.0002786221726)
5(0.0001379482036 0.0004382772044 7.010600864e-05 0.0002062499489 -0.0001844215039)
5(0.0002062678541 0.0005766023433 0.0001555283706 0.0003319956585 -0.0001245424096)
5(0.0002828606049 0.0007303646044 0.0002312868463 0.0004466295739 -8.715914819e-05)
5(0.0003736786548 0.0009186178408 0.0003219222373 0.0005820328431 -6.520755143e-05)
5(0.0004820006789 0.001151803743 0.0004305421274 0.0007446545418 -1.892790679e-05)
5(0.000616409926 0.001409936862 0.0005694927311 0.0009272127287 3.402939152e-05)
5(0.0007653909079 0.001726227997 0.0007174783026 0.001111082721 4.195133913e-05)
5(0.0009567125367 0.002088082087 0.0008686410239 0.001305930713 5.043479526e-05)
5(0.001156228546 0.002491750365 0.0009966326121 0.001490026687 -1.224979868e-05)
5(0.0013638442 0.002933969218 0.001112435367 0.00163095558 -0.0001575424631)
5(0.001588181924 0.003412401106 0.001199220594 0.00173086688 -0.0003834843841)
5(0.00184817125 0.003922258182 0.001238712024 0.001757065923 -0.0007612875543)
5(0.00209296783 0.004401645902 0.001207399431 0.001678227286 -0.001273261261)
5(0.002323990058 0.004890858665 0.00107337776 0.001479716023 -0.001985661936)
5(0.002520045203 0.005352707516 0.0008067104566 0.001085584198 -0.002914270793)
5(0.002575744599 0.005756446293 0.0003757143778 0.0005577656698 -0.004156661776)
5(0.002627445146 0.006071371386 -0.000285466299 -0.0003106822889 -0.005682021482)
5(0.002623357362 0.006283873683 -0.001074769901 -0.001474339856 -0.007542310965)
5(0.002419980953 0.006328744227 -0.002232584267 -0.002847403184 -0.009755669972)
5(0.002150099486 0.00621440666 -0.003517834312 -0.004518765637 -0.01225562456)
5(0.001713695048 0.005836773672 -0.005273456897 -0.006593284443 -0.0152142534)
5(0.001007334565 0.005281171276 -0.007344197558 -0.009059598095 -0.01872754781)
5(0.0001283679042 0.004476805545 -0.009692519141 -0.01197369676 -0.02230218046)
5(-0.001059102251 0.003200868703 -0.01260091817 -0.01543119909 -0.02690865318)
5(-0.002483760589 0.001580000192 -0.01594897096 -0.01947905742 -0.03190945641)
5(-0.004238093657 -0.0005303123701 -0.0199713014 -0.0241410266 -0.03777919674)
5(-0.006494715379 -0.00332037888 -0.02467195231 -0.02981011321 -0.04441833574)
5(-0.009225029511 -0.006880162206 -0.03023277832 -0.03622137808 -0.05201386063)
5(-0.01261780599 -0.01109165393 -0.03674580767 -0.04380216963 -0.06061704029)
5(-0.01640683014 -0.01662556638 -0.04430119689 -0.052600318 -0.07036526926)
5(-0.02139927868 -0.023153045 -0.05316551667 -0.06292463858 -0.0812048892)
5(-0.02672109792 -0.03080866526 -0.06353576493 -0.07455762532 -0.09335462326)
5(-0.0328827646 -0.04058228508 -0.07565520858 -0.08762802024 -0.1074673342)
5(-0.04023356113 -0.0512996944 -0.08965935173 -0.1024984728 -0.1236680749)
5(-0.04860978999 -0.0650119017 -0.1060099566 -0.1192982681 -0.1426975704)
5(-0.05821940725 -0.07959204063 -0.1234180131 -0.1384490052 -0.1630781521)
5(-0.06813785462 -0.0969186212 -0.1427324722 -0.1603452943 -0.1836946443)
5(-0.07904153259 -0.1173051194 -0.1635915647 -0.1844716868 -0.2028811866)
5(-0.09106740898 -0.13785201 -0.1867588502 -0.2097611155 -0.2203072703)
5(-0.1041648502 -0.1594111513 -0.2114249457 -0.233261413 -0.2350904023)
5(-0.1168883042 -0.1801408658 -0.2382197998 -0.2533316536 -0.245952473)
5(-0.1285858572 -0.2017037606 -0.2631605564 -0.2689723452 -0.2515400577)
5(-0.1337151016 -0.2209643836 -0.2840639189 -0.2784595896 -0.2508156705)
5(-0.1375433633 -0.2374181111 -0.2974488785 -0.280276907 -0.2433578586)
5(-0.1314303025 -0.2481309758 -0.3007557391 -0.2737029364 -0.2305826339)
5(-0.1194517564 -0.2489026553 -0.2945104256 -0.2594223288 -0.2128936642)
5(-0.1012534418 -0.2370998095 -0.2771276528 -0.23762224 -0.1913939363)
5(-0.07909395948 -0.2139452202 -0.2497242879 -0.2102168068 -0.1655290922)
5(-0.05133044289 -0.1766754393 -0.213569208 -0.1772093052 -0.1382149817)
5(-0.01421224122 -0.1307358871 -0.1705492121 -0.1405416127 -0.1097169622)
5(0.03175050258 -0.07640997802 -0.121367724 -0.1019789648 -0.08024657473)
5(0.09402096498 -0.01220350929 -0.06671583159 -0.06059413129 -0.05041105587)
5(0.2077939665 0.07423824587 0.0004784686559 -0.01223086952 -0.01825419198)
5(0.424208112 0.333130308 0.1529925446 0.08075333968 0.05585576779)
)


60
(
5(6.950688241e-05 0.000192466176 -3.95694936e-05 2.274439825e-05 -0.0002708128263)
5(7.136988492e-06 0.0001706471758 -0.0001084161925 -1.65903952e-05 -0.0003787650253)
5(8.044013318e-05 0.0003074828786 2.474405194e-05 0.0001469075246 -0.0001683717384)
5(0.0001904900554 0.0004867945654 0.0002069010012 0.0003633129329 6.929297509e-05)
5(0.0003268968893 0.0006954816124 0.0004298894378 0.0006293259461 0.0003504120752)
5(0.000488808938 0.000944053723 0.0007007967554 0.0009441968611 0.0006773393291)
5(0.0006798731814 0.001235826976 0.0009983523417 0.0012929808 0.001013382413)
5(0.0008886266297 0.001575118973 0.001315783986 0.001665898389 0.001360100287)
5(0.001133718497 0.001978948535 0.001673562739 0.002092773225 0.001721416449)
5(0.001428062371 0.002462381969 0.002086620227 0.0025854239 0.002143474021)
5(0.00177551564 0.00303524988 0.002590338372 0.003167393912 0.002606658287)
5(0.002211784206 0.00371829052 0.00318929942 0.00382606912 0.003149115917)
5(0.00273196322 0.004529590287 0.003878583657 0.004574231209 0.003743437586)
5(0.003355707157 0.005463099862 0.004654533686 0.005388934073 0.004357290052)
5(0.004072066311 0.006523779937 0.005520265322 0.006281193357 0.005012191765)
5(0.004886761646 0.007733213883 0.006483737162 0.007233444567 0.005657009613)
5(0.005814283827 0.009095008846 0.007531602221 0.008250907758 0.006285064714)
5(0.006905989154 0.01059562126 0.008614339336 0.009302404692 0.00685100789)
5(0.008046118813 0.01220029211 0.009794069096 0.01029227583 0.007352811073)
5(0.00936292259 0.01398773968 0.01095590284 0.01126843021 0.007721182996)
5(0.01081427383 0.0158351245 0.01208804816 0.01218774069 0.008015482444)
5(0.01227124886 0.01773376816 0.01323594906 0.01303080218 0.008087000652)
5(0.01373664333 0.01977562924 0.01438089517 0.01373420011 0.007847885533)
5(0.01552543998 0.02189906646 0.01537924516 0.01427499656 0.007456859983)
5(0.01723635418 0.02390233065 0.01625169175 0.01461545269 0.006791126403)
5(0.01905161868 0.02597531481 0.01705273399 0.01482736908 0.005850027515)
5(0.0208263217 0.02793946495 0.01766245332 0.01472209741 0.00461795155)
5(0.02265997909 0.0300115548 0.01815893895 0.01447645349 0.002953913161)
5(0.02458475408 0.03190511808 0.01837580782 0.01372082495 0.001035061146)
5(0.0264879642 0.03364367309 0.0184170113 0.01277645251 -0.00130347313)
5(0.02840720538 0.03529480121 0.01813193485 0.01135101194 -0.00411403097)
5(0.03025206529 0.03668603904 0.01741228942 0.009401100267 -0.007522305241)
5(0.03207889452 0.03759367545 0.01628950051 0.006931202094 -0.01179400028)
5(0.03392018409 0.03854951777 0.01461025068 0.003728687894 -0.01665854056)
5(0.035671813 0.03882393475 0.01226043574 -0.0001846290383 -0.0224383767)
5(0.03697407 0.03853444233 0.00927635352 -0.005139169554 -0.02930557403)
5(0.03880266605 0.03776904089 0.005355830598 -0.01107073947 -0.03707787311)
5(0.04043962602 0.03626648495 0.0004687979894 -0.01825875449 -0.04607501468)
5(0.04219545217 0.03389543487 -0.005776683272 -0.02680293247 -0.05707667259)
5(0.04416667562 0.0307003229 -0.01313659325 -0.03677685733 -0.06996806027)
5(0.04591711738 0.02640313523 -0.02188632366 -0.0484382064 -0.08497229677)
5(0.04917094952 0.02186535506 -0.03226418727 -0.06194938244 -0.1018712695)
5(0.0528912361 0.01585490425 -0.04373807673 -0.07841292555 -0.1203540637)
5(0.0578421109 0.008611822185 -0.05659885995 -0.0973396146 -0.1392177564)
5(0.06401402556 0.0002513501528 -0.07159977328 -0.1181402821 -0.1577904822)
5(0.07055722849 -0.007347227624 -0.08828889186 -0.1401051608 -0.1757030274)
5(0.07788929169 -0.01427522739 -0.1070393997 -0.1606818517 -0.1916325813)
5(0.08634708223 -0.02009609316 -0.1261710495 -0.1788420045 -0.2038185277)
5(0.09766079979 -0.02656164964 -0.1431643832 -0.1941590869 -0.2112008367)
5(0.1149551502 -0.02856254854 -0.156166933 -0.2030337357 -0.2118740854)
5(0.1380898965 -0.02836745882 -0.1620673899 -0.2042367656 -0.2056496588)
5(0.1662986111 -0.02226382914 -0.1586769447 -0.1970916347 -0.1936028066)
5(0.1986624946 -0.00839221805 -0.1460895721 -0.1815340919 -0.1758797464)
5(0.2347212908 0.01596038266 -0.1238650733 -0.1587874702 -0.153478765)
5(0.2740868495 0.04742805652 -0.09244950524 -0.1290760366 -0.1267252848)
5(0.3133722883 0.08700160753 -0.0528792725 -0.09382771653 -0.0975058326)
5(0.3552279146 0.1339984174 -0.007295870326 -0.05420411456 -0.06567287122)
5(0.406424757 0.1895843527 0.04656541992 -0.0101981448 -0.03189430871)
5(0.5182520632 0.3012280854 0.1358153376 0.04802554752 0.008418706521)
5(0.6342921531 0.4479186049 0.286482813 0.154061649 0.1181831775)
)


60
(
5(0.0001393700139 0.0002785503098 7.619475333e-05 0.0001583235412 -0.0001083765472)
5(0.0001229934659 0.0003013397021 8.746409779e-05 0.0001947045974 -0.0001008966002)
5(0.0002482331823 0.0005098564597 0.0002990397638 0.0004567288157 0.0002052698278)
5(0.0004052451358 0.0007632413168 0.0005701286481 0.0007736449461 0.0005399366009)
5(0.0006047531498 0.0010594271 0.0008972921748 0.001155318795 0.0009414091586)
5(0.0008491605844 0.001412800124 0.001293949061 0.001608014616 0.001413235002)
5(0.001136971535 0.001836064468 0.001753006243 0.002127187015 0.001934045878)
5(0.001469977055 0.002322800495 0.002258586466 0.002697382206 0.002497130578)
5(0.001847026643 0.00290104662 0.002836420252 0.003347434402 0.003098883957)
5(0.002311618734 0.00359711171 0.003504771851 0.004089918502 0.003764984294)
5(0.002867707887 0.004422549161 0.004303117224 0.004953727201 0.004527413607)
5(0.00353606245 0.005402545826 0.005229821508 0.005933139587 0.005368754486)
5(0.004340303987 0.00654143747 0.006306272771 0.007049033519 0.006320833719)
5(0.005271710582 0.007853127782 0.007519188143 0.008271960949 0.007307714941)
5(0.006366304816 0.00934411148 0.00888061535 0.009625474249 0.008404097051)
5(0.007638369763 0.01105131535 0.01040088716 0.01107241233 0.00950472914)
5(0.009044728837 0.01295663394 0.01204836355 0.01265269721 0.01063697273)
5(0.01067532054 0.01507245091 0.01384816106 0.01424806302 0.01174062424)
5(0.0124773236 0.0173872092 0.0157582849 0.01593909004 0.01285207158)
5(0.01446722732 0.01988391316 0.01775349345 0.01764639832 0.01390558307)
5(0.01663296953 0.02254664902 0.01985248706 0.01935859474 0.01483124383)
5(0.01893783437 0.02541850336 0.02194967321 0.02100961706 0.01558436863)
5(0.02147497739 0.02843079142 0.02408905476 0.0226212427 0.01619258559)
5(0.02419149455 0.03152848353 0.02619120654 0.02416623376 0.01666095051)
5(0.02694615906 0.03471124807 0.02835228042 0.02553434108 0.01684195098)
5(0.02995135363 0.03799251197 0.03043479998 0.02679976004 0.01692074099)
5(0.03303104401 0.04130189647 0.03249813466 0.02793892806 0.01665239885)
5(0.03620619757 0.04473228179 0.03441622317 0.0289059016 0.01620806962)
5(0.03940273917 0.04816081757 0.03627939826 0.02963366524 0.01535406563)
5(0.04292997505 0.05159655416 0.03804930995 0.03017996939 0.01431442051)
5(0.04654264364 0.05500775564 0.03964877866 0.03042918855 0.01286205421)
5(0.05021632447 0.05842185481 0.04087878307 0.0303668013 0.0110570842)
5(0.05407151496 0.0616205735 0.04215242344 0.02985964036 0.008463992164)
5(0.05809339508 0.06492194212 0.04294173078 0.02885285136 0.005658219647)
5(0.06239875012 0.06793300503 0.04347812757 0.02739823033 0.001815159722)
5(0.06685755587 0.0708876983 0.0435269035 0.02544156628 -0.002554737571)
5(0.07169814326 0.07359706486 0.04300125411 0.02262159459 -0.007860092613)
5(0.07712403673 0.07613533111 0.04210893758 0.0189720206 -0.01433691127)
5(0.08314548629 0.07850049024 0.04053473177 0.01432803901 -0.02194361298)
5(0.09014420471 0.08093448162 0.03826087253 0.008811299955 -0.03142165453)
5(0.09841771484 0.08341527391 0.03538520382 0.002217706697 -0.04222142855)
5(0.1082508625 0.08611320675 0.03151114664 -0.005824242778 -0.05560496262)
5(0.1200444275 0.08912235707 0.02756797153 -0.01591179416 -0.07059004842)
5(0.1336596839 0.09193728134 0.02276536843 -0.02870811521 -0.08730375035)
5(0.1487208741 0.09571117856 0.01759316786 -0.04390045847 -0.1050980164)
5(0.1651303654 0.1001675826 0.01072177086 -0.060868962 -0.1235374116)
5(0.1821116915 0.1059657646 0.003615335291 -0.07869084877 -0.1412904605)
5(0.2013657498 0.1150364183 -0.004648864162 -0.09528648878 -0.1573604942)
5(0.2200062861 0.126041295 -0.01337618451 -0.1101810938 -0.169596298)
5(0.2469972207 0.139104012 -0.01825470043 -0.1210145311 -0.1764892431)
5(0.2763021392 0.1525949588 -0.01841952341 -0.1253552514 -0.1762477261)
5(0.3106173903 0.1714323675 -0.01188372758 -0.121197166 -0.169571563)
5(0.3489799844 0.1942780098 0.003933865077 -0.1087253965 -0.1553571606)
5(0.39268022 0.2246197515 0.02757513454 -0.08732791646 -0.1346407181)
5(0.4373295561 0.2592540467 0.05872252196 -0.05876326115 -0.1074747422)
5(0.4866400503 0.3003366278 0.09693331014 -0.02313647561 -0.07512870326)
5(0.5367737755 0.3451456044 0.1427307827 0.01998402273 -0.03989681039)
5(0.5936348625 0.3984874605 0.1964079182 0.0677690941 -0.0007339720036)
5(0.7082862671 0.5103073979 0.3137278422 0.1459166427 0.05353833093)
5(0.7466771948 0.5896816583 0.4482782127 0.2620710113 0.1664666297)
)


60
(
5(0.0001836835924 0.0003104620037 0.0001452544699 0.0002274064638 -2.012512053e-05)
5(0.0001980859385 0.0003747045109 0.0002295286633 0.0003285222744 8.089899205e-05)
5(0.0003759106233 0.0006502997309 0.0005165531926 0.0006820346527 0.0005023053697)
5(0.0005882357811 0.0009667237971 0.0008599121558 0.001103326314 0.0009608588839)
5(0.0008327298593 0.001326463316 0.001275559942 0.001590535023 0.00144450367)
5(0.001146303783 0.001759879497 0.001784864515 0.00215146258 0.00203047847)
5(0.001507911418 0.002274594946 0.002370794053 0.002796192732 0.002685359724)
5(0.001933667372 0.002872863275 0.003023343651 0.003511058464 0.003387378126)
5(0.002422855914 0.003575000248 0.003765036526 0.004319863429 0.004164347114)
5(0.003009310739 0.004402127629 0.004613219106 0.005240857671 0.00500354134)
5(0.003703655434 0.005385720824 0.005612648513 0.006299526406 0.00596923541)
5(0.004546212577 0.006531561325 0.006771129353 0.007505226412 0.007021458464)
5(0.005534399812 0.007862832241 0.008109283801 0.008846036481 0.008172381944)
5(0.006665033443 0.009385877735 0.00960387875 0.01033277835 0.009446249261)
5(0.007969174743 0.01111494946 0.01127900289 0.01195534348 0.01078593612)
5(0.009468889963 0.01305878292 0.01309951308 0.01371437767 0.01219460435)
5(0.01118194826 0.0152259437 0.01511978062 0.01560732062 0.01364191174)
5(0.01306236252 0.01760710261 0.01730202733 0.01756257623 0.01511629547)
5(0.01514782209 0.02019724699 0.01962095394 0.01967473658 0.01661332325)
5(0.01746603837 0.02300169838 0.02207776038 0.02175498018 0.01797683911)
5(0.01988243308 0.02594860646 0.02459846668 0.02389790263 0.01938421471)
5(0.02257238198 0.02912871922 0.0272244822 0.02605069644 0.02061132839)
5(0.02538132717 0.03240252622 0.02987391604 0.02811870727 0.02169663681)
5(0.0283000374 0.03580237395 0.03255046414 0.03016896866 0.02271367231)
5(0.03140585331 0.03928557172 0.03526127861 0.03214789843 0.02349950737)
5(0.03459476463 0.0428711224 0.03793555172 0.03396509511 0.02400185066)
5(0.03793211134 0.04654080222 0.04057937375 0.03573915927 0.02450056466)
5(0.04133534221 0.0502505583 0.04311642325 0.03738776608 0.02475431282)
5(0.0448582077 0.05392383658 0.04574083487 0.03896184999 0.02473437814)
5(0.04850998912 0.05770139582 0.0482340435 0.04022730248 0.02449469667)
5(0.05225937999 0.06153342249 0.0506253595 0.04149079271 0.02401022262)
5(0.05608823673 0.06524177662 0.05280292894 0.04243338015 0.02312576006)
5(0.06008506084 0.06904415888 0.05497002479 0.0431909971 0.0219631768)
5(0.06439365489 0.07274977298 0.0570886666 0.04358533726 0.02043415094)
5(0.06892990022 0.0765050694 0.05874891555 0.04376772273 0.01840617153)
5(0.07364699077 0.08043928695 0.06049426594 0.04353649089 0.01560447916)
5(0.07913001681 0.08403651281 0.06183037094 0.04267581573 0.01222595858)
5(0.08508044505 0.0879920857 0.06303216462 0.04143357088 0.008117473988)
5(0.09204787848 0.09236053351 0.06409044466 0.03981694012 0.003255892456)
5(0.1001496104 0.09681999451 0.0647666701 0.03775954299 -0.002945037619)
5(0.1095904312 0.102138873 0.06555641059 0.03481431708 -0.01063332949)
5(0.1205213595 0.1078759515 0.06631741949 0.03149853993 -0.01967266375)
5(0.1328276529 0.1147133004 0.0669570847 0.02653655233 -0.03090248303)
5(0.1471224461 0.1224830894 0.06845738823 0.02016940693 -0.04376066774)
5(0.1625625984 0.1311106379 0.07031012302 0.01144301024 -0.05870283051)
5(0.1793690215 0.1411346397 0.07276792732 0.0008283407852 -0.07499189288)
5(0.1963269651 0.1542271371 0.07513498701 -0.01105078491 -0.09175125746)
5(0.2139329174 0.1684645736 0.07611549524 -0.02326857293 -0.1082364659)
5(0.2328633312 0.1848657474 0.07765021369 -0.03397399615 -0.122611597)
5(0.255525904 0.2033082197 0.08198031937 -0.04173596717 -0.133381654)
5(0.2808764373 0.2217192399 0.08934521817 -0.04458015241 -0.1377677495)
5(0.3107243429 0.2426581153 0.1013858116 -0.04074106172 -0.1352839824)
5(0.3387091791 0.2678689644 0.1217759079 -0.02777294134 -0.1246095515)
5(0.369084791 0.2984797805 0.1485884292 -0.006586992598 -0.1049339213)
5(0.4023645283 0.3354369917 0.182028322 0.02370926058 -0.07816024328)
5(0.4439422425 0.3771984503 0.2201569525 0.06111313487 -0.04433179723)
5(0.4914373927 0.4238293772 0.264733778 0.1054784761 -0.005206424597)
5(0.5491886239 0.4772689 0.3153066833 0.1565851741 0.04010042207)
5(0.6694621141 0.584382766 0.4263731236 0.2447967015 0.1065562528)
5(0.7084659679 0.632579162 0.5102733294 0.3423961523 0.2258537464)
)


60
(
5(0.000213042379 0.000313864951 0.0001788113344 0.0002595569767 2.215507286e-05)
5(0.000257644752 0.000414693291 0.0003307475782 0.0004241657217 0.0002118346697)
5(0.0004797163923 0.0007491274314 0.0006977447406 0.0008659238004 0.0007149597052)
5(0.0007422073664 0.001124784178 0.001119552847 0.001367912991 0.001270191916)
5(0.001033163122 0.001543243117 0.001611019725 0.001942672844 0.00186560265)
5(0.001403649178 0.002038344789 0.002201821789 0.002602058633 0.00254696206)
5(0.001842633797 0.00262430109 0.002883940044 0.00335637412 0.003327366256)
5(0.002337820377 0.00330345222 0.003653643837 0.004186019563 0.00413471684)
5(0.002919134434 0.004089397181 0.004512186063 0.005110448027 0.005048415068)
5(0.003594366641 0.005006910289 0.005502476878 0.00616751278 0.006031318451)
5(0.004383632632 0.006076200323 0.006637471806 0.007357660092 0.007120352326)
5(0.005325847346 0.007330419107 0.007956555738 0.008715262364 0.00835397839)
5(0.00644554525 0.008769065642 0.009451072329 0.01022141853 0.009681594478)
5(0.007714549995 0.01039456847 0.01112565113 0.01187806386 0.01113329678)
5(0.009144996815 0.0122228358 0.0129710402 0.01369063427 0.01270779614)
5(0.01076145189 0.01425889934 0.0150075103 0.0156531373 0.01433487531)
5(0.01254889319 0.01652077854 0.0172147789 0.01774484649 0.01603725753)
5(0.01460735676 0.01899614417 0.01958317219 0.01996030252 0.01773901614)
5(0.0167578994 0.02163495556 0.02210794682 0.02224293476 0.01949853095)
5(0.01916025018 0.02447424184 0.02474469912 0.02461472044 0.02123577281)
5(0.02174206009 0.02744673407 0.02749232337 0.0269909588 0.02287731027)
5(0.02434002583 0.03059827176 0.03031393573 0.02939562647 0.02449946493)
5(0.02722225697 0.03385618384 0.03314031209 0.03175717822 0.02596027641)
5(0.03003915863 0.03713393661 0.03600579368 0.03410943215 0.02730900933)
5(0.03300363811 0.04051920907 0.0388540301 0.03634216315 0.02852796398)