/*--------------------------------*- C++ -*----------------------------------*\
| =========                 |                                                 |
| \\      /  F ield         | OpenFOAM: The Open Source CFD Toolbox           |
|  \\    /   O peration     | Version:  2.3.1                                 |
|   \\  /    A nd           | Web:      www.OpenFOAM.org                      |
|    \\/     M anipulation  |                                                 |
\*---------------------------------------------------------------------------*/
FoamFile
{
    version     2.0;
    format      ascii;
    class       dictionary;
    location    "constant";
    object      PM20;
}
// * * * * * * * * * * * * * * * * * * * * * * * * * * * * * * * * * * * * * //

PM20_table
60
(

60
(
5(0.001689716268 0.0007685884059 0.001869280277 0.001680399749 0.002026984341)
5(0.005273598069 0.0008620750676 0.001223048399 0.001091450467 0.000234657997)
5(-0.000476609346 0.002448711531 0.001442725317 0.0006863058856 0.0005315179101)
5(-0.003298431681 0.003843608689 0.001927429314 0.001392522518 0.003474297678)
5(-0.004691498607 0.003974282342 0.001577902181 0.002067061634 0.001386897785)
5(-0.0003660972169 0.003098222191 0.001273619716 0.002010213763 0.001796766261)
5(0.004773478633 0.002010189183 0.002260417477 0.002347406027 0.003124738509)
5(-0.00218098768 0.002733088648 0.002951653228 0.002916028836 0.001887627191)
5(-0.008652932749 0.004907953536 0.003102202286 0.003692613922 0.004213279465)
5(-0.005962142605 0.006071465744 0.004395726937 0.004252630643 0.005005825142)
5(-0.001203055262 0.007292985678 0.005057391509 0.005410217701 0.005851592344)
5(0.007035006112 0.007426506133 0.005765059149 0.0067983597 0.006731258804)
5(0.007948070994 0.007154361434 0.007303205284 0.008434451586 0.00873522081)
5(0.006508499626 0.00855376871 0.008874040481 0.009717744177 0.01027419718)
5(0.007103105049 0.009738906072 0.0105426179 0.01235550417 0.01248752281)
5(0.008079496556 0.01134389532 0.01292257925 0.01468686704 0.015418503)
5(0.01069850639 0.01458249344 0.01587396404 0.01824233559 0.01904970873)
5(0.01357560748 0.01799401494 0.01968997509 0.02193234057 0.02210393453)
5(0.0165989267 0.02214804877 0.02330623052 0.02586767478 0.02568723931)
5(0.02025206585 0.02672091639 0.02773660148 0.03103035052 0.02979325609)
5(0.02383766461 0.03059085196 0.03209860811 0.0348578807 0.03443710199)
5(0.0286722629 0.03640791143 0.03778291126 0.03902866246 0.03961867812)
5(0.03417317911 0.04312746868 0.04407311539 0.04806769148 0.04724152925)
5(0.04017724292 0.05104917762 0.05127718335 0.05454324502 0.05281186121)
5(0.04749401249 0.05837682079 0.06020422132 0.06359413811 0.06040912211)
5(0.05512320886 0.06705030378 0.06965277885 0.07263042333 0.06675690111)
5(0.06393381072 0.07668319958 0.07798624284 0.08212859611 0.0746533998)
5(0.07418928986 0.08884386935 0.08971127724 0.09143812652 0.0828039666)
5(0.08675559092 0.1014041563 0.09908812545 0.1006856285 0.09209845522)
5(0.09975720074 0.1158995644 0.1112581963 0.1110312784 0.1013336461)
5(0.1150535594 0.1309675599 0.1256233646 0.1239233591 0.1083507639)
5(0.1301333294 0.1457636668 0.1369517896 0.1309018987 0.1140501179)
5(0.1479652681 0.1652216408 0.1546469701 0.1464097222 0.1322362961)
5(0.1687913314 0.1854919581 0.1711851963 0.1554619488 0.1294165718)
5(0.1901566018 0.2055602629 0.1887321061 0.1700687016 0.144803695)
5(0.2148006857 0.2309747571 0.2081172619 0.1804330031 0.153942869)
5(0.2376577418 0.2446240533 0.2102873189 0.1928951543 0.1546462624)
5(0.2666689515 0.2749941299 0.2363691567 0.2028561063 0.1441585543)
5(0.2981029991 0.2982558707 0.261020144 0.2192809991 0.1533244031)
5(0.3316285913 0.3244514767 0.2810430616 0.2049919519 0.06443339393)
5(0.3566238806 0.3413989835 0.2845969134 0.1967292047 0.1205768056)
5(0.386989513 0.3644078898 0.2888228363 0.1429079165 0.1478071324)
5(0.4189069283 0.3835941314 0.2908361924 0.1345213466 0.2014572911)
5(0.4586598303 0.4277972356 0.3394355727 0.1855662364 0.2194727145)
5(0.4874477055 0.4428273353 0.3129670608 0.2051767506 0.2274240102)
5(0.516918859 0.4621624263 0.2472199941 0.2296339538 0.241840794)
5(0.5381630151 0.3956043501 0.1769906191 0.2779622011 0.2576596162)
5(0.5394459676 0.3704597049 0.2413224718 0.3071647371 0.2754142772)
5(0.5867406543 0.3295002698 0.2794867363 0.3286161917 0.2933717741)
5(0.4827413732 0.2238711737 0.3473642077 0.3496534754 0.3112715457)
5(0.3990919666 0.3386802999 0.3726332727 0.3753003541 0.3303256334)
5(0.3645110821 0.4177360025 0.3982485222 0.401723017 0.3501490468)
5(0.4778683481 0.4701961753 0.4273221084 0.4315310524 0.3716905835)
5(0.5513077808 0.5112238876 0.4635440866 0.4645063893 0.3976299709)
5(0.6174449152 0.5592207963 0.5072061978 0.5067378507 0.4245774063)
5(0.7265215512 0.6170702672 0.5620233591 0.5513600155 0.4561796739)
5(0.9152981965 0.7004532528 0.6366370005 0.6115803875 0.492121682)
5(1.233924987 0.8846452933 0.7512082804 0.7185862687 0.5211901404)
5(1.631191425 1.234859082 0.986481941 0.5569608739 0.60504451)
5(0.9493797534 1.141196069 0.8319790629 0.8612809525 0.8475978661)
)


60
(
5(0.002591136594 0.002392185142 0.002992002214 0.002718102983 0.00319956797)
5(0.001795910813 0.00147930139 0.002011861388 0.002075179481 0.002016178798)
5(-0.0004285750887 0.001791775035 0.001893836513 0.001858219001 0.001161697887)
5(-0.002132765936 0.002053097151 0.002321885823 0.001754228365 0.00293447112)
5(-0.003930978881 0.002170951234 0.002484314529 0.002360248785 0.002604839584)
5(-0.004945818102 0.002324710897 0.002014089632 0.002694419667 0.002478564238)
5(0.002224382109 0.002605250046 0.002416265498 0.00284057812 0.003614227146)
5(0.002086375792 0.003084118944 0.003336396132 0.003618051629 0.003142506804)
5(-0.005343459451 0.003783356684 0.003758893333 0.004522833354 0.004447845008)
5(-0.007939169201 0.004372700075 0.004983828045 0.005384539337 0.005658807121)
5(-0.008220875679 0.005144972506 0.006101521891 0.006613709008 0.007005918833)
5(-0.0007235694316 0.006878420629 0.007134076741 0.008158211436 0.008182326216)
5(0.005729725797 0.008412652718 0.008619401649 0.01022843975 0.01024688447)
5(0.00738748249 0.01030828108 0.01063038417 0.01201563523 0.01221842473)
5(0.008620817505 0.01231665919 0.01274710975 0.01488697879 0.01479964813)
5(0.009943512471 0.01420788538 0.01544395783 0.01786576995 0.0178351486)
5(0.0122734089 0.01745795774 0.0186192202 0.02165241827 0.02181173272)
5(0.01554063303 0.02137856891 0.0229141978 0.02632707206 0.02617252987)
5(0.01915375673 0.02611958455 0.02754725424 0.03123617707 0.03084696987)
5(0.02353568527 0.03207088927 0.03330109473 0.03772461535 0.03626504191)
5(0.02817531135 0.03759815353 0.03894497151 0.04408716109 0.04254851065)
5(0.03393006227 0.04440577808 0.04621889566 0.04964033309 0.04851191778)
5(0.04104240964 0.05255501495 0.05407587801 0.05900438592 0.05717076598)
5(0.04831852356 0.06242652252 0.06319041008 0.06815926011 0.06544666683)
5(0.0574308567 0.07263950504 0.07378273966 0.07912454112 0.07521011779)
5(0.0674939884 0.08368018472 0.08631337155 0.09149930305 0.08520075107)
5(0.0791800504 0.0960694851 0.09764037026 0.1042636753 0.09620931994)
5(0.09161260945 0.1105301952 0.1121709624 0.1177981017 0.1078108747)
5(0.1073593872 0.1269251185 0.1263037752 0.1315460341 0.1206024152)
5(0.1238554893 0.1453599116 0.1420917867 0.1451154115 0.1333017875)
5(0.1430345595 0.1653949283 0.1610811231 0.1629985258 0.1476843298)
5(0.1634408754 0.1857225648 0.1785128833 0.1775746354 0.1576959241)
5(0.1855528455 0.209247523 0.1997681396 0.1957278378 0.1773565014)
5(0.2109148132 0.2351309293 0.2236739892 0.2137417357 0.1876025893)
5(0.2388941453 0.261173217 0.2459391431 0.233347806 0.2041781802)
5(0.2689441991 0.2930895905 0.276736491 0.2545643648 0.2207214118)
5(0.3018898903 0.3180528213 0.2918003236 0.2712536977 0.237701374)
5(0.3361363986 0.3534867772 0.3179815521 0.2949576301 0.2388113425)
5(0.3750070313 0.386044752 0.3481687709 0.3138128517 0.2688122573)
5(0.4197748863 0.4224058682 0.3818923775 0.3371831369 0.2351699596)
5(0.4615997311 0.4535014225 0.4020480269 0.3535988543 0.2504509127)
5(0.5032811198 0.4892965904 0.4270234284 0.3456358604 0.2654007295)
5(0.5490910173 0.5192453037 0.4481353763 0.3092770494 0.2833349939)
5(0.598903022 0.5630879753 0.5029003369 0.3288078677 0.3058656063)
5(0.6511079691 0.5990266065 0.5163253942 0.3495746725 0.3244790264)
5(0.6969535372 0.6424692837 0.5215180443 0.3752554075 0.3451622178)
5(0.7475053167 0.6666070061 0.4497760043 0.4026995035 0.3667657655)
5(0.7930064401 0.6585362915 0.4468308233 0.4300970015 0.389758253)
5(0.8521878908 0.7027304885 0.4745774824 0.4597100213 0.4139745524)
5(0.9023363853 0.5859975557 0.5081344532 0.4901775982 0.4379575282)
5(0.9284738279 0.621797852 0.5447486005 0.5251035354 0.4637556665)
5(0.8015831431 0.6691829768 0.5848418492 0.5616900809 0.4901003823)
5(0.7954900926 0.7225478944 0.6280542669 0.6010882057 0.5170590697)
5(0.8551063058 0.7798582705 0.6780717126 0.6430158525 0.5489832824)
5(0.9342742042 0.845792842 0.7340584449 0.6919600755 0.5814165919)
5(1.065813331 0.924837221 0.8005154985 0.7424415315 0.6174647822)
5(1.278285678 1.028270237 0.8832391334 0.8032461306 0.6580881046)
5(1.540684046 1.206040751 0.9995375019 0.8814180247 0.6974556535)
5(1.840001939 1.520623241 1.272066791 0.8569874 0.7760227214)
5(1.210437436 1.084792355 0.6809708187 0.8662634987 0.982103998)
)


60
(
5(0.003415678378 0.003414310277 0.004039780526 0.003956152849 0.004618620391)
5(0.002766101368 0.00312873004 0.003326775293 0.003578012189 0.00368314915)
5(0.00261984294 0.003209331073 0.003232868723 0.0036508853 0.003613348476)
5(0.002773286834 0.003551980186 0.003539890947 0.00406338431 0.004038280362)
5(0.003151449691 0.00410534995 0.00416517751 0.004801024207 0.004870973448)
5(0.00375725562 0.00486429073 0.005067910288 0.005794364592 0.006021871115)
5(0.004511589426 0.00587056427 0.006155254572 0.007102672641 0.007344331529)
5(0.005417666387 0.007120031605 0.007493234806 0.008677250399 0.008875899066)
5(0.006522796672 0.008652927564 0.009111282023 0.01055526874 0.01071872021)
5(0.007982989134 0.01058331002 0.01115205836 0.01290337312 0.0129646131)
5(0.009739456106 0.0129651809 0.01364428345 0.01573559432 0.0157380447)
5(0.01198705152 0.01582613775 0.01671478179 0.01909178498 0.01901738058)
5(0.01470928774 0.01927944209 0.0203690366 0.0230135134 0.02277915854)
5(0.0179277827 0.02338276049 0.02464870236 0.02765414784 0.02710530632)
5(0.02185702187 0.02820894487 0.02966970518 0.0329609226 0.0320757263)
5(0.02662130207 0.03395366521 0.03559754978 0.03911976813 0.03773987919)
5(0.03221968993 0.04069754701 0.04251295524 0.04619744334 0.04413727099)
5(0.0387969636 0.04856964273 0.05047971928 0.05423741665 0.05143432763)
5(0.04668704315 0.05752422858 0.05949984906 0.06331973035 0.05956163567)
5(0.05562818848 0.06786637644 0.0697875566 0.07351155372 0.06866268205)
5(0.06609198055 0.07964596982 0.0813042423 0.08467467297 0.07849893968)
5(0.07840566078 0.09285541066 0.09411015726 0.0972330958 0.08962436337)
5(0.09223727817 0.107635843 0.108440418 0.1108568675 0.1014787032)
5(0.1074446157 0.1241696071 0.1243604395 0.1255520103 0.1143811863)
5(0.1249051948 0.1424693927 0.1414783597 0.1417582587 0.1281524376)
5(0.144410759 0.1624291517 0.1605596033 0.1592584946 0.1429777848)
5(0.1659450539 0.184020556 0.1809944735 0.1779907895 0.1588072186)
5(0.189520337 0.2078000043 0.2028796882 0.1978461495 0.1755222238)
5(0.2155380278 0.2335430466 0.2264347241 0.2188801424 0.1932379186)
5(0.244118212 0.2610766928 0.251495404 0.2411527203 0.211797815)
5(0.2747115237 0.2905019283 0.2780794742 0.2645376597 0.2315751407)
5(0.3079543167 0.3218939348 0.306158343 0.2891665124 0.2520072765)
5(0.3439288795 0.3553874158 0.3356686239 0.31488209 0.273145468)
5(0.3824300787 0.3908207149 0.3666542228 0.3414433954 0.295000433)
5(0.4236462568 0.428152729 0.3991431918 0.3689975806 0.317944635)
5(0.4676814352 0.467400092 0.4327996814 0.3975635516 0.340749838)
5(0.5141719197 0.5082295485 0.4678481044 0.4264012518 0.3645248335)
5(0.5648047822 0.5512188621 0.5035710031 0.4561248303 0.3885471763)
5(0.6176296872 0.5953009926 0.540474159 0.4865354805 0.4113530453)
5(0.673805292 0.6419966175 0.5783484039 0.516782858 0.4333180097)
5(0.7339524868 0.689585147 0.6162898402 0.5469543313 0.4535125632)
5(0.797378486 0.7408922351 0.6563482819 0.5764721456 0.4735182111)
5(0.8667646272 0.793165563 0.6975088963 0.6044100911 0.4936084397)
5(0.9401256088 0.8464450406 0.7396841444 0.6314906699 0.5146023917)
5(1.020057895 0.9049014393 0.7816800453 0.6583343441 0.5365380219)
5(1.10426982 0.9673762684 0.8238599266 0.6859807712 0.5590703402)
5(1.197062656 1.033472048 0.8639489304 0.7149245197 0.5814286639)
5(1.293530063 1.100706493 0.9044750185 0.7451724052 0.6048982174)
5(1.40341466 1.169120343 0.9450945551 0.7765201282 0.6287803582)
5(1.50951766 1.234119076 0.9865618982 0.8089272492 0.6539373177)
5(1.621064774 1.294784618 1.027641172 0.8418133119 0.6802676054)
5(1.726165276 1.352964985 1.06916005 0.8749114477 0.707595624)
5(1.819522864 1.408408356 1.11098366 0.9093294197 0.7353000941)
5(1.89169583 1.459175494 1.152014996 0.9455354705 0.7659351601)
5(1.944919983 1.510255176 1.194954561 0.9840466696 0.797545155)
5(1.985081756 1.558749339 1.238168033 1.023965478 0.8318581664)
5(2.0157719 1.608238459 1.283570935 1.065151152 0.8685494517)
5(2.050306932 1.664654776 1.335749261 1.112143901 0.9103980007)
5(2.120160233 1.755942848 1.413858613 1.169784044 0.9615729671)
5(2.182161409 1.750010488 1.621637468 1.3781482 1.141605647)
)


60
(
5(0.003971135386 0.003993289758 0.004775163709 0.004845248165 0.005647583887)
5(0.003298479335 0.003700645296 0.004124944604 0.004488712843 0.0048445872)
5(0.003199504321 0.003832630955 0.004060172102 0.004602776439 0.004815809104)
5(0.003395678757 0.004253421591 0.004417763921 0.005106733475 0.005252902781)
5(0.003853066486 0.004917331738 0.005169094148 0.005963740696 0.006166081968)
5(0.004580170003 0.005842389887 0.006231904009 0.007140176157 0.007411022382)
5(0.005518832655 0.007043283262 0.007572699477 0.008670512409 0.008964565145)
5(0.006661411149 0.008550998667 0.009212355728 0.01052136927 0.01075407259)
5(0.00808106386 0.01039214529 0.01118189455 0.01274192544 0.01288685955)
5(0.009830023124 0.01265283385 0.01357936183 0.01538133101 0.01541398383)
5(0.01204363835 0.0153904969 0.01650977466 0.01854180441 0.01844933642)
5(0.01469470062 0.01867937145 0.02001998047 0.02223190606 0.02192207582)
5(0.01794164285 0.02263973566 0.02415877276 0.02656156965 0.02595914634)
5(0.02183609167 0.02727957895 0.02897473783 0.03153258166 0.03053707563)
5(0.02639997505 0.03271242092 0.03453877443 0.03723443771 0.03570197885)
5(0.03172920284 0.03896133325 0.04095467198 0.04374838859 0.04158752016)
5(0.0382689726 0.04625194367 0.04833549289 0.05113637351 0.04823647683)
5(0.04571762475 0.05465798339 0.05673755007 0.05949698376 0.05558262423)
5(0.05441929523 0.06426768445 0.06631840994 0.06877805506 0.06385170075)
5(0.06441683876 0.07517427327 0.07702983755 0.07921326685 0.07302575988)
5(0.07579584533 0.08748249031 0.08904392028 0.09070710151 0.08314037919)
5(0.08878055332 0.101224815 0.1023002626 0.1031920314 0.09402044504)
5(0.1034096765 0.1165190064 0.1169820952 0.1169557156 0.1058904224)
5(0.1197459271 0.1335164973 0.1330029183 0.1317918057 0.1189782782)
5(0.1381680244 0.1521297385 0.1504757192 0.1478310148 0.1325994138)
5(0.1579784512 0.1724039787 0.1693786647 0.165010462 0.1473192675)
5(0.1801325466 0.193768186 0.1895732699 0.1834191117 0.1630534927)
5(0.2041262409 0.2173222157 0.2114148994 0.2031109624 0.1796459401)
5(0.2309360849 0.2424055974 0.2344275316 0.2236996666 0.1971842229)
5(0.2585828725 0.269406085 0.2589299483 0.2455800505 0.2153522025)
5(0.2895723004 0.2983932865 0.2850206516 0.2685288315 0.2349212406)
5(0.3226916113 0.32876813 0.312342276 0.2925959174 0.255540503)
5(0.3575591773 0.3608262725 0.3413841011 0.3178523891 0.2765442964)
5(0.394916916 0.3955009976 0.3717449315 0.3442864514 0.298533145)
5(0.4350309547 0.4316943658 0.4032243188 0.371730993 0.3216818106)
5(0.4775088247 0.4700155586 0.4366765726 0.4000544445 0.3453682611)
5(0.5227752887 0.5101399262 0.4716031578 0.4294860148 0.3696743744)
5(0.5727713158 0.5524426771 0.5081105956 0.4600957804 0.3949561695)
5(0.6249737836 0.5970983737 0.5461189971 0.4917815384 0.4202666766)
5(0.6816700158 0.6440100687 0.5852635165 0.5243646093 0.445056973)
5(0.7427532888 0.6944190909 0.6266273679 0.5580235226 0.4705528563)
5(0.8087872808 0.7482017394 0.670006725 0.5925078701 0.4950163395)
5(0.8819697106 0.805220707 0.7162840283 0.6268036111 0.5200606118)
5(0.9596591352 0.8671038886 0.7653101113 0.661253654 0.5455506644)
5(1.045967305 0.9330862307 0.8175749129 0.696674438 0.5718636597)
5(1.138155337 1.006236177 0.8717463763 0.7332811185 0.5987005478)
5(1.236925074 1.087813096 0.9277339466 0.7710689468 0.6263733212)
5(1.344051829 1.175261203 0.9859826541 0.8109773976 0.6552240129)
5(1.462050868 1.266603755 1.045917863 0.851169118 0.6853562926)
5(1.591598195 1.362882001 1.106569179 0.8923626944 0.7169526277)
5(1.73124348 1.457368526 1.166812419 0.9339419281 0.7483808795)
5(1.873622708 1.550418875 1.225788244 0.9762175694 0.7812491346)
5(2.013159009 1.63637904 1.283518 1.019830669 0.815627019)
5(2.139331723 1.716741287 1.337927618 1.061655364 0.8487312983)
5(2.247767965 1.788013477 1.390987666 1.105018965 0.8845054254)
5(2.326829383 1.851772873 1.441633368 1.148776389 0.921418401)
5(2.38432959 1.910215281 1.491614036 1.193091496 0.960291561)
5(2.42487139 1.968258802 1.548537399 1.241142721 1.003074352)
5(2.436586598 2.051102492 1.644250909 1.311769836 1.061955689)
5(2.13642208 1.748125774 1.76880712 1.499191538 1.190671952)
)


60
(
5(0.004386956379 0.004440851323 0.005331008954 0.00555594852 0.00644637409)
5(0.003696617645 0.004106097939 0.00472600886 0.005180991133 0.005722179922)
5(0.003562182234 0.004236688682 0.004662226432 0.005269396133 0.005645177812)
5(0.003804073029 0.004697044242 0.005022344727 0.005786267118 0.006131215689)
5(0.004295629139 0.005397360642 0.005786902144 0.006686180491 0.007026099172)
5(0.005084888054 0.006375776162 0.006926542393 0.00794088626 0.008257110936)
5(0.006152289781 0.007663179137 0.0083776695 0.009514653436 0.009872090799)
5(0.007415319776 0.009279721254 0.01014057729 0.01143530008 0.01170411638)
5(0.008992612769 0.01126175378 0.01225788612 0.01373441347 0.01387292456)
5(0.01089573085 0.01365439056 0.01478919743 0.01644677137 0.01641881067)
5(0.01327792044 0.01652525486 0.01783704798 0.01964770487 0.01941382419)
5(0.01612357528 0.01994125806 0.02143160013 0.02337769878 0.02292236901)
5(0.01957512592 0.02396413594 0.0256341333 0.02769346377 0.02681679241)
5(0.02373199 0.02867696514 0.03050193357 0.03263936552 0.03131644014)
5(0.02855664115 0.03417875437 0.03612119028 0.03826997038 0.03640026278)
5(0.03413021324 0.04055082532 0.04255842203 0.04460073689 0.04211971777)
5(0.04063887426 0.04779228764 0.04983567734 0.05176236497 0.0485486024)
5(0.04840364353 0.05604878822 0.05803222983 0.05973084465 0.05562208616)
5(0.05699115645 0.06549056666 0.06733648884 0.06869799914 0.06368406934)
5(0.06720816522 0.07611491356 0.07770768782 0.07862462833 0.07236731608)
5(0.07871248083 0.08794814466 0.08932383565 0.08964443653 0.0820585644)
5(0.09077440337 0.1012629277 0.1021081973 0.1016065745 0.09245535248)
5(0.1051521976 0.1159167945 0.1161812185 0.1146898731 0.1039421465)
5(0.1217260078 0.1319764124 0.1313625229 0.1288765518 0.116274252)
5(0.1390731149 0.1494060133 0.1480579264 0.1441314678 0.1297500108)
5(0.1584387505 0.1685285327 0.1660169515 0.1604252801 0.1436162481)
5(0.1796254973 0.1892559063 0.1851952884 0.1777780746 0.1586007571)
5(0.202809446 0.2115444638 0.2057111152 0.1962623227 0.1744531757)
5(0.2276442315 0.2352337343 0.2274942383 0.2157337123 0.1914215331)
5(0.2542957583 0.2605165816 0.2506368388 0.236405733 0.2089659327)
5(0.2836627106 0.2874540568 0.2751114789 0.2581369705 0.2275965191)
5(0.3142967466 0.3160648561 0.3006607931 0.2809404558 0.2473039261)
5(0.3469467634 0.3463911676 0.3281148297 0.3048211833 0.2677411004)
5(0.3821646578 0.3782853019 0.3567126638 0.3300634796 0.2892704221)
5(0.4193318171 0.4120012262 0.3868487703 0.3563917704 0.3118458279)
5(0.46021093 0.4478925356 0.418594872 0.3840572407 0.3357296012)
5(0.5026947265 0.4861555608 0.4517484451 0.4130021619 0.3600469473)
5(0.5490608453 0.5269319456 0.487288978 0.4430639871 0.3852868426)
5(0.5988180469 0.5702433851 0.5246385823 0.4745869489 0.4121124409)
5(0.6533238165 0.6164066818 0.5641196414 0.5083160135 0.43926941)
5(0.7112404319 0.6659954805 0.6061360989 0.5439713715 0.4665367728)
5(0.775954069 0.7192909768 0.650802999 0.5807735729 0.4952023767)
5(0.8448610821 0.7772348549 0.6988225683 0.6192985744 0.5233885193)
5(0.9190994755 0.840560996 0.7518139666 0.6591192569 0.5531795269)
5(0.9965337037 0.9088119573 0.8102456622 0.7002568059 0.5826841599)
5(1.080995573 0.9832558061 0.8721752917 0.7438618414 0.613483362)
5(1.167382924 1.066188494 0.9394946203 0.789839741 0.6465920606)
5(1.268641782 1.158692172 1.012433108 0.8383432825 0.6798038244)
5(1.371908103 1.260128755 1.086548727 0.8891179528 0.7156259058)
5(1.493272968 1.369888917 1.16570259 0.9416324294 0.7524154726)
5(1.630656125 1.485545324 1.247521715 0.9952603875 0.7917315599)
5(1.778299975 1.602891837 1.328127203 1.048731129 0.8290643452)
5(1.935081848 1.722889107 1.407228276 1.102829771 0.8688686096)
5(2.092918634 1.835802642 1.482614764 1.155357527 0.9091171189)
5(2.24109909 1.935899297 1.550285567 1.206136312 0.9508850443)
5(2.369053585 2.024806318 1.61320624 1.25657376 0.9940188881)
5(2.474079548 2.096851018 1.672637526 1.308665683 1.038298581)
5(2.548974636 2.161336338 1.730559602 1.362409676 1.088304476)
5(2.530424872 2.179821482 1.787463301 1.437795046 1.159464384)
5(2.1711491 1.964779243 1.730845128 1.509663303 1.272748373)
)


60
(
5(0.004717589942 0.004811364684 0.005780393709 0.006157610339 0.00709701522)
5(0.003999923327 0.004395131827 0.005161025988 0.005744200248 0.006390025751)
5(0.003839326617 0.004512563928 0.005079215302 0.005777634298 0.006262457679)
5(0.004061147118 0.004976106637 0.00543905635 0.006250134025 0.006642007319)
5(0.004615314965 0.005677193893 0.006207747227 0.007114019805 0.007484805129)
5(0.005416568465 0.006664432617 0.007333779242 0.008333688482 0.008653774823)
5(0.006550088684 0.007972518309 0.008791469937 0.009906129315 0.01024866294)
5(0.007886036908 0.00962141972 0.01057102962 0.01182074915 0.01207609927)
5(0.009516094668 0.01165552171 0.01271009562 0.01407502355 0.01416411705)
5(0.01151236304 0.01405587249 0.01523467174 0.01672690388 0.0166909137)
5(0.01394534874 0.0169043827 0.01823955317 0.01982107276 0.01948345721)
5(0.0168045033 0.02024441914 0.021741331 0.02342386331 0.02282152733)
5(0.02033412104 0.02417636175 0.02586114123 0.02754160899 0.02660345882)
5(0.02447493799 0.02877664882 0.03057132869 0.03225236914 0.03084146707)
5(0.0293315194 0.03409077671 0.03598277955 0.03757384572 0.03569835801)
5(0.03493005547 0.04018824517 0.04207898943 0.04351490884 0.0410933657)
5(0.04127789374 0.04709155158 0.04905298491 0.05025804361 0.04711835467)
5(0.04872389783 0.0549528371 0.05688032727 0.05775012983 0.05396333536)
5(0.0574031635 0.06389250335 0.06562489085 0.06619812444 0.06134906006)
5(0.06683974987 0.07389852269 0.07533903298 0.07541410615 0.06974916862)
5(0.07779777199 0.08504588141 0.08608202859 0.0856017072 0.07857230483)
5(0.09003525704 0.09745075991 0.09802242304 0.09678162584 0.0884815484)
5(0.1034387306 0.1110854728 0.1111481133 0.1089210858 0.09927179539)
5(0.1189479299 0.1259851385 0.1254330657 0.1221410499 0.1105727047)
5(0.1348537122 0.1421517827 0.1408645882 0.1363736939 0.1231769638)
5(0.1533154725 0.1595683523 0.1573472581 0.1515997574 0.1364233119)
5(0.1734852244 0.1789840231 0.1752037987 0.1677585967 0.1507081897)
5(0.1953068561 0.1997359059 0.1944012588 0.184839892 0.1656403723)
5(0.2169502292 0.2217013736 0.2146462152 0.2030633847 0.1814085626)
5(0.2424040416 0.2449584797 0.2360042973 0.2223296343 0.1980604782)
5(0.2683266673 0.2698560564 0.2586672572 0.2424487923 0.2162387482)
5(0.2973464 0.2962945555 0.2825793174 0.2634851582 0.2341030635)
5(0.3272119608 0.3241998374 0.3077553091 0.2859375247 0.2542729739)
5(0.3598500777 0.35368388 0.3345222702 0.3096193495 0.2746917625)
5(0.3950735842 0.384990402 0.3627741822 0.3346454574 0.2968355195)
5(0.4321326831 0.4182538178 0.3925334966 0.3611381957 0.3197265523)
5(0.4716749769 0.4539568881 0.4237853651 0.3888876594 0.3440779926)
5(0.5150141248 0.4920116955 0.4574494788 0.4177837935 0.3691081878)
5(0.5614626368 0.5328246629 0.4934073861 0.4485004814 0.3953287642)
5(0.6107703673 0.5770247582 0.5318722512 0.4818567828 0.423910682)
5(0.6652337097 0.6248084341 0.5728625427 0.5172278766 0.4522314178)
5(0.7222854842 0.6761303543 0.6171660828 0.5550470636 0.4819056316)
5(0.7810800983 0.7309802462 0.6655942281 0.5950059439 0.5133764565)
5(0.8465112333 0.7895609164 0.7185793167 0.6376256541 0.5452377441)
5(0.9128390936 0.8526946843 0.7758335581 0.6824951888 0.5796264622)
5(0.9821667934 0.9202843449 0.8404929128 0.7307061909 0.6149143783)
5(1.057876528 0.9945795268 0.9110339687 0.7830786075 0.6530503682)
5(1.137912257 1.078273133 0.9863855016 0.8389174119 0.6927415297)
5(1.225826321 1.171333842 1.068125237 0.9001457215 0.7348922798)
5(1.325124599 1.277946053 1.1587701 0.9660498023 0.7791657868)
5(1.440387706 1.393113364 1.255151298 1.03484174 0.8258363775)
5(1.571034857 1.517587438 1.355664163 1.10406666 0.8734657905)
5(1.706889438 1.651464098 1.458192632 1.17414814 0.9199305997)
5(1.854561952 1.785618152 1.559116025 1.240402767 0.9696551393)
5(2.006520183 1.916974958 1.648775986 1.305342856 1.018152287)
5(2.171355048 2.039970988 1.729205962 1.366953388 1.068113745)
5(2.317628364 2.145284176 1.800962663 1.426449467 1.120693815)
5(2.44785952 2.230121684 1.859202873 1.483890614 1.177855788)
5(2.49295711 2.215228881 1.846634179 1.526884011 1.250086068)
5(2.14234767 1.915697135 1.761620745 1.516451517 1.326231003)
)


60
(
5(0.00498912451 0.005134458058 0.006158703353 0.006662099109 0.007647854338)
5(0.004224186546 0.004636791652 0.005505047317 0.006190616623 0.006917369775)
5(0.004054987155 0.004720637309 0.005375057433 0.00615847554 0.006767689182)
5(0.004257896246 0.005156826247 0.005682702307 0.006564445254 0.006976298405)
5(0.004802727353 0.005844134738 0.006415794361 0.007355432388 0.007706108043)
5(0.005624079063 0.006821048782 0.007531710705 0.008501485939 0.008797912812)
5(0.006730465334 0.008130826918 0.008975553945 0.01002083484 0.01025095229)
5(0.008125257009 0.009742756361 0.01074612779 0.01187812592 0.01210473828)
5(0.00974668137 0.01169602651 0.01283348245 0.01404162945 0.01409835693)
5(0.01176335839 0.01404302235 0.01528225508 0.0165618487 0.01646507718)
5(0.01418850031 0.01682107653 0.01815297596 0.01947365148 0.01907505062)
5(0.01715916783 0.02007154948 0.02153355256 0.02285069735 0.02215769622)
5(0.02052251459 0.02383836822 0.02540319035 0.02669644995 0.02572743104)
5(0.02446359384 0.02821987719 0.02987127381 0.03108499528 0.02966572256)
5(0.02914215805 0.03319539816 0.0348988709 0.0360080567 0.03413316092)
5(0.03452796211 0.03889479491 0.04062321393 0.04159148455 0.03913090842)
5(0.0410073225 0.04541572606 0.04711815689 0.04781862249 0.04470113492)
5(0.04783060276 0.05276944191 0.05439655387 0.05476120368 0.05121010136)
5(0.05622125695 0.06105402733 0.06247291523 0.06237888268 0.05802696642)
5(0.06507278918 0.07030044804 0.07144188248 0.07088623035 0.06564592863)
5(0.07483940474 0.08046509388 0.08140880343 0.08022824106 0.07400188779)
5(0.08659354059 0.09187437828 0.0924828552 0.09052391341 0.08301765337)
5(0.09922941234 0.1044158857 0.1044786324 0.1017665974 0.09335721713)
5(0.1133180962 0.1180901029 0.117589839 0.11394162 0.1039658571)
5(0.1284633207 0.1331080636 0.1318604337 0.1269792479 0.1153407731)
5(0.1458896067 0.1494710597 0.1470859552 0.1409457232 0.1278903563)
5(0.1637738915 0.1672581193 0.1635163414 0.1558750044 0.1411409453)
5(0.1831017374 0.1860601369 0.1809652766 0.1717398025 0.155472644)
5(0.2044048461 0.2059915274 0.1994587826 0.1886552705 0.1703976899)
5(0.2279220975 0.2273818181 0.2192034744 0.2063882706 0.1862491408)
5(0.2512881816 0.2502066782 0.2400803829 0.2249540138 0.2029184663)
5(0.2774089029 0.2742263131 0.2621694714 0.2446898629 0.2200000432)
5(0.3054217218 0.2998912951 0.2856104562 0.2655821204 0.2386840301)
5(0.3352940233 0.3272133285 0.3102700529 0.2875503343 0.2580430975)
5(0.3677758361 0.3561236652 0.3361872272 0.3110095197 0.2784891022)
5(0.4009671753 0.3868147283 0.3640782028 0.3356346585 0.3004818576)
5(0.4380602092 0.4196977692 0.3940353665 0.3615328482 0.3236588373)
5(0.4769953582 0.4550187517 0.4258804496 0.3892074235 0.3488671149)
5(0.5187702532 0.4930426964 0.4597414965 0.4191623369 0.374219906)
5(0.5638677215 0.5340214137 0.4958796701 0.4511708784 0.4016479273)
5(0.6102438247 0.5773422839 0.5347121328 0.4853683192 0.4322930425)
5(0.6594314248 0.6239412045 0.5772006074 0.5225145932 0.4619271509)
5(0.7106246793 0.6735703487 0.6234872535 0.5628207042 0.495582894)
5(0.7601553009 0.7250892986 0.6732664813 0.6059351052 0.5288984116)
5(0.8179248086 0.7801375008 0.7271793549 0.6522311908 0.5650005729)
5(0.8748217047 0.8368695949 0.7867029694 0.7013964731 0.6044261221)
5(0.9373985261 0.8991424998 0.8513850279 0.7558339448 0.6461732864)
5(1.002414321 0.9679418597 0.9204262886 0.8158453175 0.6921152478)
5(1.073323796 1.046747247 0.9991757918 0.8822707939 0.7423668373)
5(1.154291915 1.136926422 1.085798314 0.9554854308 0.7966488816)
5(1.241565873 1.236861031 1.181588901 1.034382383 0.8515984753)
5(1.335403381 1.347545101 1.288355206 1.119137563 0.9124098921)
5(1.43934878 1.466405458 1.402088587 1.204792875 0.9709423085)
5(1.55847368 1.5970722 1.51871052 1.290898566 1.029949858)
5(1.686415588 1.739264926 1.634952662 1.370777273 1.089212548)
5(1.830532784 1.879975443 1.742038402 1.445864467 1.146717792)
5(1.982315581 2.018786527 1.832966322 1.511675469 1.207185166)
5(2.13961032 2.140163385 1.902420824 1.567049238 1.267980326)