/*--------------------------------*- C++ -*----------------------------------*\
| =========                 |                                                 |
| \\      /  F ield         | OpenFOAM: The Open Source CFD Toolbox           |
|  \\    /   O peration     | Version:  2.3.1                                 |
|   \\  /    A nd           | Web:      www.OpenFOAM.org                      |
|    \\/     M anipulation  |                                                 |
\*---------------------------------------------------------------------------*/
FoamFile
{
    version     2.0;
    format      ascii;
    class       dictionary;
    location    "constant";
    object      PM21;
}
// * * * * * * * * * * * * * * * * * * * * * * * * * * * * * * * * * * * * * //

PM21_table
60
(

60
(
5(-0.0002638353989 -0.0004806750145 -0.0003196017342 -0.0004488745677 -0.0002636964125)
5(0.002181634923 -0.0005685196842 -0.0004641911178 -0.0005923147382 -0.0002956226233)
5(0.002303559223 -0.0008136301003 -0.0005294901545 -0.0006929826207 -0.0006967542032)
5(0.002349446047 -0.001364200186 -0.0005490651243 -0.0008105996448 -0.0003713466307)
5(0.001822456436 -0.001990236122 -0.0007083193933 -0.0008842529997 -0.0008033311423)
5(-0.001062132868 -0.002304475361 -0.0009280151958 -0.001068559851 -0.001074578243)
5(-0.003515353905 -0.0009945511826 -0.001114341937 -0.001335528993 -0.001349651407)
5(0.002793180986 -0.001214452509 -0.001228689779 -0.001594581205 -0.001540999237)
5(0.004278087569 -0.002964181619 -0.001391437202 -0.001979417412 -0.002131691667)
5(0.001327778117 -0.003677885737 -0.001857368762 -0.002397049738 -0.002606019642)
5(-0.003011073795 -0.004713688325 -0.002444978906 -0.00303049365 -0.003228899046)
5(-0.007093495447 -0.004191237868 -0.002975501117 -0.003752197556 -0.003920617884)
5(-0.004690761011 -0.003218053649 -0.003682763217 -0.004562871782 -0.005001114729)
5(-0.002801102766 -0.003913733559 -0.004490809801 -0.005577821702 -0.006067669588)
5(-0.003096547774 -0.004312685756 -0.005318601153 -0.006704067441 -0.00734414463)
5(-0.003383122144 -0.005107191763 -0.006458845705 -0.008134364499 -0.009005675639)
5(-0.004963704934 -0.007028082021 -0.008282993058 -0.01019357249 -0.01084071771)
5(-0.006392041834 -0.008757009086 -0.01031098046 -0.01197783464 -0.01248106688)
5(-0.007736580801 -0.01062664605 -0.01195605913 -0.01403278482 -0.01450097013)
5(-0.009300912417 -0.01258439406 -0.01410044536 -0.01648431018 -0.01737048591)
5(-0.01122060621 -0.01487817075 -0.01673421963 -0.01942526399 -0.02052753886)
5(-0.01348978371 -0.01768595143 -0.0197436703 -0.02289900626 -0.02372707051)
5(-0.01599456556 -0.02077460302 -0.02318428983 -0.02648053944 -0.02705940851)
5(-0.01897308398 -0.024187444 -0.02695087641 -0.03029273502 -0.03072747736)
5(-0.02231538983 -0.02786419935 -0.03104588933 -0.0343646918 -0.03464968255)
5(-0.02605669512 -0.03232460772 -0.03556004331 -0.03863680213 -0.03892667643)
5(-0.03051547734 -0.03767727784 -0.04066255468 -0.04346220194 -0.04352467545)
5(-0.03567181429 -0.04329123836 -0.04597112544 -0.04868701625 -0.04838905699)
5(-0.04105798237 -0.04894800522 -0.05202706013 -0.05460968369 -0.0535923726)
5(-0.0470957695 -0.05520893461 -0.05850554343 -0.06105719609 -0.05919793715)
5(-0.05371701511 -0.06202194738 -0.06521623653 -0.0673076177 -0.065408038)
5(-0.06115630705 -0.06969011198 -0.0728776507 -0.07484424233 -0.07247989545)
5(-0.06938861161 -0.07767252406 -0.08047760707 -0.0821577112 -0.07770586684)
5(-0.07814833035 -0.08606231832 -0.08824822171 -0.08992523658 -0.08690368504)
5(-0.08765425459 -0.09523793804 -0.09684500958 -0.09799364261 -0.09419046427)
5(-0.09793889095 -0.1043070199 -0.1047876759 -0.1061005532 -0.1003062534)
5(-0.1090118631 -0.1156724235 -0.1172124743 -0.1152248603 -0.1072649124)
5(-0.1205679612 -0.125190729 -0.1265910594 -0.1223377715 -0.1179750581)
5(-0.1320181545 -0.1361622922 -0.1350093243 -0.1320742531 -0.1280236771)
5(-0.1431487425 -0.1471607993 -0.1438672004 -0.1372683239 -0.132167009)
5(-0.1567651661 -0.1601013651 -0.1571288787 -0.1466092206 -0.1505649655)
5(-0.1706275557 -0.1722500875 -0.1681129971 -0.1538930881 -0.1537502385)
5(-0.1835069507 -0.1854077219 -0.1740671939 -0.1784151468 -0.1504444066)
5(-0.1955110126 -0.1938173791 -0.1720257759 -0.1890578023 -0.1501450655)
5(-0.2089581597 -0.2068465986 -0.1836551617 -0.1907103319 -0.1517377443)
5(-0.2252738469 -0.2162198216 -0.1851563016 -0.1926088943 -0.1494144243)
5(-0.2393833782 -0.2251997476 -0.2081167612 -0.1919358534 -0.1464564473)
5(-0.2529008917 -0.2416862347 -0.2331161982 -0.189305804 -0.1428001317)
5(-0.2598128721 -0.2242549638 -0.2356457015 -0.1853814666 -0.1379273841)
5(-0.181600331 -0.2487123717 -0.2379654934 -0.1799378162 -0.1322681999)
5(-0.1835318229 -0.2738828619 -0.2344245581 -0.1744894507 -0.1261446012)
5(-0.3128145247 -0.2786578682 -0.227897635 -0.1663723932 -0.1193153178)
5(-0.3353677378 -0.2723820311 -0.2197731238 -0.1567664079 -0.1112589006)
5(-0.3238808594 -0.2602465836 -0.2100843983 -0.1458602369 -0.1038138946)
5(-0.3056716636 -0.2459402703 -0.1970131109 -0.1330160649 -0.09431434502)
5(-0.2724177149 -0.2242868515 -0.1789246892 -0.1166555645 -0.08394566858)
5(-0.196565682 -0.1920771557 -0.1526922638 -0.09552759406 -0.07573310389)
5(-0.0426503023 -0.1211186051 -0.1106036276 -0.04798135831 -0.06000587744)
5(0.2675785427 0.04815792691 0.01517884295 -0.1409169856 -0.0706390813)
5(0.6322834974 0.6373327765 0.6090499419 0.5279758649 0.426155286)
)


60
(
5(-0.0001595810311 -0.0002803181932 -0.0002158033987 -0.0003081561683 -0.0002974043484)
5(-0.0002087858075 -0.000372897354 -0.000316996341 -0.0004005680851 -0.0004250475251)
5(0.0002791245309 -0.0003147683811 -0.0003375512105 -0.0004338618397 -0.000551629042)
5(0.001371288746 -0.0002966567932 -0.0002935163038 -0.0004583422226 -0.0003307521684)
5(0.001993585175 -0.0003126799592 -0.0003072707736 -0.0004333783706 -0.0004423121774)
5(0.001676488552 -0.0003374806037 -0.0003668592911 -0.0004638250583 -0.0004916041323)
5(-0.0002076414713 -0.0003743894964 -0.000389404054 -0.0005244171236 -0.0005306501138)
5(-0.0002353525822 -0.0004250940895 -0.0004289203966 -0.0005951370746 -0.0006243761995)
5(0.001944253253 -0.0004959517185 -0.0004679094067 -0.0007009274106 -0.0007409430201)
5(0.002844614336 -0.0004978123582 -0.0005345978742 -0.0008289347973 -0.0008792718173)
5(0.003036443211 -0.0005508191902 -0.0006587253878 -0.0009865669634 -0.001077602684)
5(0.001155308111 -0.0008410358975 -0.0008348305332 -0.001214578253 -0.00128807468)
5(-0.000496419875 -0.001018137903 -0.00103098013 -0.00147598782 -0.00159869613)
5(-0.0006081366822 -0.001239620161 -0.001268882747 -0.001830056986 -0.001987016773)
5(-0.0007552164034 -0.001527538843 -0.001589256579 -0.002258022232 -0.002468799394)
5(-0.000721665491 -0.00163623619 -0.001892670971 -0.002723216802 -0.003012494937)
5(-0.000968598944 -0.002120192797 -0.002336279651 -0.003410815681 -0.003762198071)
5(-0.001425165716 -0.002730271265 -0.003066318025 -0.004249971287 -0.004663729712)
5(-0.001940263426 -0.003496990235 -0.003847865238 -0.005258129963 -0.005671844714)
5(-0.002469172251 -0.00436688945 -0.004770702917 -0.0064021809 -0.006983026459)
5(-0.003133920827 -0.005380654897 -0.005937910955 -0.007851300686 -0.008597690024)
5(-0.004028723462 -0.006604135667 -0.007302226796 -0.009773256216 -0.01058971179)
5(-0.005039809898 -0.008009113993 -0.008984017978 -0.01165464406 -0.01255783361)
5(-0.006287350665 -0.009634562871 -0.01093907334 -0.01399373695 -0.01500902017)
5(-0.007809208313 -0.01155143572 -0.01316821958 -0.01651659036 -0.01757040051)
5(-0.009614191913 -0.01372891978 -0.01559348909 -0.01922744683 -0.02056051941)
5(-0.01173016208 -0.01637158547 -0.01860602301 -0.02233431185 -0.02389336127)
5(-0.01418227488 -0.01936578228 -0.02171647182 -0.02584398176 -0.02756637644)
5(-0.01691222443 -0.02253089824 -0.0254190377 -0.02987995486 -0.03150412577)
5(-0.0200544729 -0.0259241195 -0.02948336183 -0.03459741424 -0.03605281658)
5(-0.0234740317 -0.02970940055 -0.03363189521 -0.03896769629 -0.04074737571)
5(-0.02742586689 -0.03413304713 -0.0387825876 -0.04488781513 -0.04747135385)
5(-0.0319484352 -0.03872857608 -0.04390072816 -0.0505511416 -0.05167929785)
5(-0.03674015117 -0.04357834368 -0.04911258648 -0.05701989187 -0.05998013876)
5(-0.0419775056 -0.04921191317 -0.05549550295 -0.0637706038 -0.06688343945)
5(-0.04776467355 -0.05439359235 -0.06045188388 -0.07073361556 -0.07429692595)
5(-0.05427112957 -0.06207856191 -0.0706830443 -0.080012675 -0.08169713324)
5(-0.06115703636 -0.06813604148 -0.07863390107 -0.08751760915 -0.09672425747)
5(-0.06839317757 -0.07584619675 -0.08597515701 -0.09728923713 -0.09890113309)
5(-0.07502291833 -0.08327815579 -0.09268452658 -0.1054067576 -0.1333772577)
5(-0.08361503885 -0.09336687296 -0.1051664693 -0.1164157679 -0.1417958858)
5(-0.09374804655 -0.1028958616 -0.1165933031 -0.1395217122 -0.1504645067)
5(-0.1036590593 -0.1156880575 -0.1302367613 -0.1744249824 -0.1571702721)
5(-0.1138958554 -0.124143687 -0.1281898081 -0.1842101104 -0.161323239)
5(-0.1245692328 -0.1370537599 -0.1442783295 -0.1911512989 -0.1667795277)
5(-0.1399813404 -0.1473112908 -0.1635795307 -0.1978180317 -0.1688113297)
5(-0.1547023645 -0.1662501588 -0.2202666597 -0.2017406637 -0.1680584542)
5(-0.1736160985 -0.2002465206 -0.2421825901 -0.2030290731 -0.1651118902)
5(-0.1844750358 -0.2057310171 -0.2497160849 -0.2011932239 -0.1598237577)
5(-0.1972645738 -0.2851689101 -0.2518037749 -0.1956217528 -0.1524753327)
5(-0.2175153939 -0.2886557196 -0.2493821402 -0.1877245375 -0.1437766269)
5(-0.3059999635 -0.2863270595 -0.2422594081 -0.1764382766 -0.1336802081)
5(-0.326764671 -0.277619597 -0.2306360329 -0.1624565344 -0.1220991948)
5(-0.3181246171 -0.2614807497 -0.2148286512 -0.1459402699 -0.1093696006)
5(-0.2920058929 -0.2371892797 -0.1933511866 -0.1263112429 -0.09559353754)
5(-0.2426666696 -0.2033689405 -0.1651719136 -0.1034164058 -0.08019167702)
5(-0.142251535 -0.154779641 -0.1260717299 -0.07479126092 -0.06614997614)
5(0.01680483544 -0.05994346534 -0.06652492341 -0.03769667589 -0.04772331517)
5(0.3283342472 0.1702519052 0.1366340104 -0.06314611061 -0.01479618721)
5(0.7209319373 0.6608327704 0.5752550194 0.5866595781 0.3974278132)
)


60
(
5(-5.126457279e-05 -0.0001066015965 -7.542374686e-05 -0.0001172480504 -0.0001370435648)
5(-4.453463782e-05 -7.621978879e-05 -9.451385908e-05 -0.0001276068506 -0.0001830313158)
5(-1.057117301e-05 -2.545582846e-05 -5.886813851e-05 -7.711717895e-05 -0.0001403791297)
5(3.251835178e-05 2.346952207e-05 2.016590604e-06 -6.15781677e-06 -7.023368915e-05)
5(8.420714055e-05 7.764584947e-05 8.271911505e-05 8.158939999e-05 2.753223491e-05)
5(0.0001483036169 0.0001416051569 0.0001775718689 0.0001790956402 0.0001412376111)
5(0.000218648709 0.0002134201667 0.0002712711366 0.0002868949415 0.0002579513574)
5(0.0002923739073 0.0002927923574 0.0003757206793 0.0004085442095 0.0003752388653)
5(0.0003813042181 0.0003859960398 0.0004928879051 0.0005426215711 0.0005033451091)
5(0.0004922450935 0.0005029294244 0.0006397058784 0.0007089947863 0.000651631885)
5(0.0006275351661 0.000650793673 0.0008210437603 0.000914155034 0.0008439710243)
5(0.0007968728429 0.0008237488133 0.00104927558 0.001159628787 0.001075672075)
5(0.0009973250334 0.001040354462 0.001319068836 0.001439920369 0.001326972834)
5(0.00124807168 0.001299815211 0.001633269712 0.001767642978 0.001622613038)
5(0.001539648335 0.001606212216 0.001987659549 0.002137964752 0.001938857446)
5(0.001877411437 0.001961359669 0.002396961265 0.002543404621 0.002272453848)
5(0.002270873857 0.002375366356 0.002861177822 0.002991873305 0.002632279354)
5(0.002741460317 0.002852193173 0.00338161877 0.003472791147 0.002995071314)
5(0.003274477589 0.003369208379 0.003950933381 0.003984730753 0.003369281447)
5(0.003867995167 0.00395871059 0.004573128664 0.004522922178 0.003730085933)
5(0.004534436929 0.004618968143 0.005234759942 0.005052524884 0.004068637082)
5(0.005232018796 0.005340394724 0.005930515297 0.005635235722 0.004371403634)
5(0.006051403265 0.006129633326 0.006652710822 0.006154041948 0.004614171387)
5(0.006949233337 0.006990603596 0.007472823541 0.006646572354 0.004814850952)
5(0.007909117889 0.007934020206 0.008252955421 0.007192105353 0.004950055812)
5(0.009018939579 0.008967853365 0.009189725081 0.007744990757 0.005070231894)
5(0.01024982396 0.01006936168 0.01008784723 0.008284690389 0.005102352761)
5(0.01155705345 0.01133057853 0.01105055996 0.008828087717 0.005015964917)
5(0.01308413369 0.01276827323 0.01216266361 0.009377927086 0.005069847164)
5(0.01477357431 0.01429033581 0.01329444455 0.009902246512 0.004792379951)
5(0.01670127941 0.01602530699 0.01452493778 0.01039686566 0.004523334999)
5(0.01892459701 0.01794508365 0.01581981178 0.01089650597 0.004042730241)
5(0.0213785869 0.01999803974 0.01713574026 0.01126114626 0.003386705696)
5(0.02410539609 0.02225545316 0.01850883102 0.01151770373 0.002536492361)
5(0.02713075908 0.024730969 0.01988788582 0.01161979058 0.001450964322)
5(0.03062594398 0.02725535372 0.02121942346 0.011608378 -4.582203725e-05)
5(0.03398944335 0.02983203671 0.02256528408 0.01113065891 -0.001772986352)
5(0.03823741019 0.03273338511 0.02353799509 0.01050766266 -0.003821232786)
5(0.04260482943 0.03517915126 0.02434838402 0.009700750782 -0.006519199946)
5(0.04704591317 0.03790651007 0.02488666738 0.008334040631 -0.009822367656)
5(0.05174517226 0.03993029112 0.02460239366 0.00650707653 -0.01448611604)
5(0.05619145107 0.04238260002 0.02442038829 0.004085480343 -0.01983432025)
5(0.06129497438 0.04398013276 0.0236083719 0.0004902645084 -0.0259399159)
5(0.06601759119 0.04424842678 0.02228765835 -0.004236742555 -0.03209128589)
5(0.07084171903 0.04497816523 0.01991463665 -0.0102438832 -0.03808029433)
5(0.07512590988 0.04494158762 0.01683141297 -0.01663776941 -0.04368663736)
5(0.0798170993 0.04463251926 0.01200291055 -0.02295992231 -0.04897635115)
5(0.08454995339 0.04353339515 0.00620834877 -0.0286447895 -0.05323465042)
5(0.09267012831 0.04271659043 -0.0001341774985 -0.03316966203 -0.05605937335)
5(0.09961605758 0.04093173439 -0.005583787503 -0.03588401952 -0.056839618)
5(0.1106423843 0.03863679547 -0.009608617053 -0.03692145806 -0.05556855384)
5(0.1229821355 0.03744634245 -0.01185773316 -0.03616293672 -0.05225206228)
5(0.1365612123 0.03841282924 -0.01136117471 -0.03281709171 -0.04717825805)
5(0.1483186924 0.04158745911 -0.008165367949 -0.02684546105 -0.03896422204)
5(0.1593092408 0.05016158609 -0.001400832102 -0.01775844262 -0.02925377979)
5(0.1719935137 0.06272194761 0.009097066063 -0.005716211447 -0.01708147138)
5(0.1888459299 0.08226224023 0.02500915926 0.009321550954 -0.002922674016)
5(0.2234454086 0.1151999323 0.04989312837 0.03061708679 0.01464140618)
5(0.3438383088 0.1986911635 0.1124854998 0.07187410343 0.04270663825)
5(0.649977299 0.6802359973 0.4402468087 0.2483545859 0.2200887314)
)


60
(
5(2.626836251e-05 6.528460163e-07 3.394980213e-05 2.707881088e-05 1.062668083e-06)
5(6.146874591e-05 5.48748714e-05 5.47685526e-05 5.594139712e-05 7.919198143e-06)
5(0.0001261158798 0.000140735495 0.000139617682 0.0001632984971 0.0001153371361)
5(0.0002011582482 0.000232511872 0.0002524528008 0.0002990137747 0.0002529718823)
5(0.0002942788624 0.0003394067034 0.0003948315153 0.0004673997979 0.0004352680908)
5(0.0004072814208 0.0004690856754 0.0005686038004 0.000670600588 0.0006574265714)
5(0.0005414587966 0.0006221543026 0.0007682216053 0.0009032612769 0.0008979006705)
5(0.0006971614874 0.0008051381832 0.0009958971405 0.001166120479 0.001161672023)
5(0.0008887971812 0.001027820101 0.001265852099 0.00147931779 0.001462845655)
5(0.001123599112 0.001300374165 0.001591299181 0.001853275731 0.00182549277)
5(0.001407931893 0.001630400911 0.001992196102 0.002302862091 0.002246774798)
5(0.001760287448 0.002030777218 0.00247522413 0.002825077546 0.002740935963)
5(0.002186349924 0.002514727603 0.003042244616 0.003432977993 0.003303655005)
5(0.002703504291 0.003085018694 0.003700113278 0.004120561881 0.00392396925)
5(0.003309803466 0.003749959502 0.004457610057 0.004904126295 0.004620035957)
5(0.00401500462 0.004526187384 0.005330267953 0.005779731935 0.00537713915)
5(0.004844980683 0.005427062587 0.006319681054 0.006757800836 0.006197476608)
5(0.005825837449 0.006451896387 0.00740926308 0.007831244203 0.007057201552)
5(0.00690318853 0.007592337046 0.008641336712 0.008955204197 0.007964532547)
5(0.008164940563 0.008903991142 0.009966351857 0.01016055282 0.008893331491)
5(0.009601579803 0.01032812549 0.01138708365 0.01143669206 0.009881172432)
5(0.01113309164 0.01187328265 0.0129386423 0.01277603782 0.01084223412)
5(0.01278200373 0.01360706442 0.01462159408 0.01415692924 0.01174177631)
5(0.01476720735 0.01552335041 0.01636607576 0.0155681332 0.01269870735)
5(0.01686315357 0.01750971133 0.01820646706 0.01702056087 0.01359248115)
5(0.01915007971 0.01971639605 0.02019810653 0.01853234348 0.01447717622)
5(0.02161605174 0.02199760807 0.0222629068 0.0200612556 0.01533979187)
5(0.02433848673 0.02460572687 0.02449215789 0.02168311767 0.0161120322)
5(0.02737634594 0.02732327528 0.02678537553 0.023223292 0.01689774625)
5(0.03058584473 0.03025725082 0.02922416003 0.02487198253 0.01761750647)
5(0.03417985583 0.03348378132 0.03181527808 0.02650806956 0.01829863358)
5(0.03805098295 0.03684020611 0.03440222949 0.02811020892 0.01887700156)
5(0.04219515902 0.04030462876 0.03718374913 0.02970762543 0.01914975391)
5(0.04675934922 0.04427115338 0.04000042833 0.03120633191 0.01935957695)
5(0.05163643498 0.04823689549 0.04270250149 0.03264179337 0.01935704809)
5(0.05667921711 0.05240038916 0.04559099328 0.03379675254 0.01893858542)
5(0.06229326352 0.0566759492 0.04837468362 0.03478380034 0.01833893311)
5(0.06826854913 0.0609955 0.05106224381 0.03559769804 0.01744878848)
5(0.07444771206 0.06538806455 0.05358881845 0.03603451796 0.01588117971)
5(0.0810447334 0.06965607335 0.05567908876 0.03603092511 0.01369170862)
5(0.08764889727 0.07395749108 0.05761169899 0.03566761793 0.01092840279)
5(0.09512579631 0.07831030996 0.05910581343 0.03484877858 0.007188018835)
5(0.102839614 0.08224911622 0.06028170153 0.03295828882 0.002764076992)
5(0.1109624154 0.08606841717 0.06084584893 0.03016111896 -0.001945957967)
5(0.1197494483 0.08922203176 0.0607919927 0.02661637534 -0.006718269423)
5(0.1291271424 0.09277964282 0.06005167042 0.02227823546 -0.01183176738)
5(0.1389920174 0.09670063566 0.05822320899 0.01761525016 -0.01693182905)
5(0.1503755435 0.1008343563 0.05567619498 0.01353100763 -0.0214991927)
5(0.1631680276 0.104645355 0.05306777319 0.009418276282 -0.02535343611)
5(0.1791436868 0.1102958812 0.05101353779 0.006368796752 -0.02748845216)
5(0.1988036258 0.1163657302 0.05016671941 0.004871656647 -0.02802510975)
5(0.2218988478 0.1246840902 0.05116607845 0.00526378211 -0.02655574695)
5(0.2490510377 0.1350390421 0.05467891878 0.008050832298 -0.02282866083)
5(0.2805743683 0.1496798361 0.06057725488 0.01266638164 -0.01786639973)
5(0.3169935879 0.1675773783 0.07001977071 0.0201954705 -0.01032066612)
5(0.3544594514 0.1902439544 0.08310157738 0.03074870321 -0.0007797842308)
5(0.3982153839 0.2207345678 0.1016140697 0.04537929618 0.01163636497)
5(0.4581345629 0.2665294128 0.1345930222 0.06718119186 0.02796303987)
5(0.6282934011 0.4273590504 0.2509675355 0.1292941092 0.06634037897)
5(0.8796526722 0.784127292 0.5699841283 0.3058161785 0.3449135296)
)


60
(
5(9.11798285e-05 8.573821789e-05 0.0001295006137 0.0001524583408 0.0001287839317)
5(0.0001480419228 0.0001581190975 0.0001800025814 0.0002124625627 0.0001762145614)
5(0.0002391554454 0.000275290801 0.000305567241 0.0003707531152 0.0003356704625)
5(0.00034168018 0.0004033457078 0.0004673563922 0.0005637841479 0.0005352813427)
5(0.0004710467961 0.0005568197391 0.0006666127407 0.0008007628508 0.0007905865448)
5(0.0006303999062 0.0007433296568 0.0009079263825 0.001085491364 0.001093611832)
5(0.0008201739221 0.0009673587188 0.001192125492 0.001415326349 0.001431885048)
5(0.001047530525 0.001232575003 0.001519309779 0.001791695124 0.001807909374)
5(0.001320342629 0.001553822589 0.001909132859 0.002236380475 0.002238588115)
5(0.001658507011 0.001946716508 0.002375562755 0.002759451686 0.002740164396)
5(0.002069453379 0.002420365449 0.00293932265 0.003377666523 0.003326711758)
5(0.002563943781 0.002989545343 0.003601359827 0.004090024553 0.003991255723)
5(0.003163731393 0.003661995988 0.004376959918 0.004912599124 0.004744554573)
5(0.003873057067 0.004449330307 0.005268895702 0.005837965954 0.005570466113)
5(0.004714440344 0.005362905838 0.006294358005 0.006888408969 0.00650665463)
5(0.005702376668 0.006428188817 0.007466416674 0.008046129444 0.007511629153)
5(0.006823235218 0.007641743287 0.008772992829 0.009341510936 0.008600146378)
5(0.008144659749 0.009019344878 0.01023318808 0.01071903782 0.009739165508)
5(0.009626025948 0.01056565261 0.01184454663 0.01222543999 0.01097373075)
5(0.01131528183 0.01227988882 0.01359360737 0.0138235995 0.01224320591)
5(0.0131976241 0.01416126488 0.01550419489 0.01551542564 0.01354286485)
5(0.01522627521 0.01624677033 0.01751580143 0.01725858838 0.01482515446)
5(0.01753922969 0.01851233804 0.01967347963 0.01907611556 0.01613756469)
5(0.0201116199 0.02094021896 0.02192201271 0.02097665889 0.01747184204)
5(0.02279224878 0.02351907332 0.0243513332 0.02288708974 0.01874245893)
5(0.02580280372 0.02630198553 0.02688549896 0.02484978397 0.02004403284)
5(0.02899841232 0.02926493089 0.02954229499 0.02686078469 0.02126437592)
5(0.03244892435 0.03246333549 0.03229832659 0.02891418209 0.02248572092)
5(0.0360540848 0.03581829806 0.03518718018 0.03097273698 0.02364950273)
5(0.04010121257 0.03941772172 0.0382223887 0.03309033359 0.02479292906)
5(0.04446734991 0.04321204216 0.04135371243 0.03520890495 0.02588310899)
5(0.04899971765 0.0471996465 0.04448026767 0.0373533659 0.02691414592)
5(0.05389217077 0.05141710145 0.04790752058 0.03933755698 0.02760602579)
5(0.05915563943 0.05584208192 0.05126759763 0.04134051271 0.02839301063)
5(0.06477688837 0.06040563454 0.05464887956 0.0432249272 0.02878477548)
5(0.07074115994 0.06513095557 0.05805342914 0.04502876066 0.02910515647)
5(0.07684961752 0.06999063392 0.06132922317 0.04664443724 0.02907828597)
5(0.08344826782 0.0750297852 0.06471463144 0.04794320786 0.0286256529)
5(0.09037050113 0.08007108431 0.06786107068 0.04892652481 0.0279220279)
5(0.09767914739 0.08514963344 0.07083003084 0.04974030709 0.02652418383)
5(0.1053879851 0.09030567306 0.07362858144 0.05027179632 0.02461074101)
5(0.1137257994 0.09549101127 0.07612107951 0.05003611638 0.02179059326)
5(0.1225245942 0.1007978038 0.07826550849 0.04922561893 0.01830700652)
5(0.1322218062 0.1062903678 0.08020129629 0.04754234731 0.0142840643)
5(0.1423447832 0.1118966003 0.0818623609 0.04479455797 0.009520357367)
5(0.1533922534 0.1176846108 0.08262045807 0.04142479634 0.004402846973)
5(0.165156257 0.1242332908 0.08320668292 0.03758917899 -0.000743221209)
5(0.1792403271 0.1319893332 0.08372474457 0.03359735854 -0.00639060612)
5(0.1928826519 0.140760692 0.08337525997 0.02973707687 -0.01121148011)
5(0.2102419082 0.1509565915 0.08459701245 0.02678441312 -0.01506747798)
5(0.2300851766 0.1633530182 0.08785237737 0.02522615494 -0.01716470842)
5(0.2537988865 0.1786189657 0.09314629959 0.02580475894 -0.01783007377)
5(0.2828124849 0.1991098911 0.1023126235 0.02922541519 -0.01609383605)
5(0.3194602619 0.2247452566 0.115431874 0.03489461009 -0.01234619704)
5(0.3627232589 0.2546561309 0.1318089601 0.04358902884 -0.005526082837)
5(0.4158131821 0.2925685749 0.1534955792 0.05632788334 0.004092323117)
5(0.4788278247 0.3377685843 0.1843139727 0.07604838755 0.01718199118)
5(0.559746081 0.4012825113 0.2322333131 0.1061072237 0.03750565069)
5(0.767904376 0.6016072274 0.4245206315 0.2145509534 0.09883622794)
5(0.9640538629 0.8404991584 0.7179112443 0.4664376818 0.3536535924)
)


60
(
5(0.000149125008 0.0001569147377 0.0002163480467 0.0002635917324 0.0002434788899)
5(0.0002207649945 0.0002460990472 0.0002928908482 0.0003492412196 0.0003229288084)
5(0.0003375519052 0.0003935044038 0.0004554518656 0.0005522134859 0.0005385384118)
5(0.0004691845132 0.0005542080889 0.0006575920609 0.0008012719511 0.0008032161246)
5(0.0006285857554 0.000745472418 0.0009066409512 0.001099295509 0.001110965229)
5(0.000828415427 0.0009805764008 0.00120839704 0.001448887258 0.001479374188)
5(0.00106500185 0.001262296365 0.001561917069 0.001854696226 0.001892057198)
5(0.001352708781 0.001599579327 0.001971042713 0.00231939695 0.002346483428)
5(0.001699941438 0.002004786884 0.002456382053 0.002862747165 0.002874864958)
5(0.002124694462 0.002490383204 0.003030258872 0.003499438678 0.003483409069)
5(0.002634397385 0.00307538354 0.003715185876 0.004240851963 0.004184345011)
5(0.00325099726 0.003767047697 0.004514958726 0.005095474906 0.004971746647)
5(0.003989758575 0.004582833883 0.005448453798 0.006060548028 0.005846778881)
5(0.004852316737 0.00553341708 0.00651071529 0.007151856263 0.006832040983)
5(0.005866113475 0.006633755192 0.007728005761 0.008370414217 0.007914016644)
5(0.007049336509 0.007895315812 0.009084482949 0.009718558842 0.009094032335)
5(0.008416672456 0.009330756989 0.01062171077 0.01121097678 0.01035723451)
5(0.009965312469 0.01094492369 0.01232014718 0.01280763465 0.01171452131)
5(0.01173120178 0.01274995917 0.01418490769 0.01457058609 0.01314365568)
5(0.01371394851 0.01475103987 0.01621209027 0.01638365389 0.01458804346)
5(0.01587895199 0.01692148479 0.0183710988 0.01831798626 0.01611700621)
5(0.01833124184 0.019323977 0.02070400304 0.02033754482 0.01764651984)
5(0.02097874729 0.02189121722 0.02316281758 0.02239861778 0.01918198416)
5(0.02386925995 0.02464014642 0.02574918282 0.02455357801 0.02074402064)
5(0.02696183825 0.02757799034 0.028489183 0.02675191905 0.02228008808)
5(0.03033862428 0.03068058067 0.03131166847 0.02895417363 0.02371177273)
5(0.03398733646 0.03405290354 0.03426045686 0.03121887625 0.02523691134)
5(0.03786658623 0.03757552799 0.03734407812 0.0334981171 0.0266984854)
5(0.04188878976 0.04125247827 0.04054004116 0.03583763405 0.02810279313)
5(0.04634640961 0.04515168451 0.04383749244 0.03817743928 0.02945710078)
5(0.05096563564 0.04927227712 0.04723051754 0.04052190642 0.03083936536)
5(0.0559183918 0.05357437123 0.05068619995 0.04281545061 0.03195622659)
5(0.06114635616 0.05804257178 0.05422489694 0.04513029723 0.03310722628)
5(0.066744128 0.06267736636 0.05790389437 0.0473402603 0.0340876519)
5(0.07269614913 0.06752901587 0.06156762776 0.0495324377 0.03500540933)
5(0.07875496871 0.07248427672 0.06523820497 0.05160744176 0.03550569892)
5(0.08533853436 0.07761268249 0.06880065433 0.05345514237 0.03584420895)
5(0.092189517 0.08280741755 0.07240123266 0.05504003283 0.03587807903)
5(0.09946680978 0.08819298333 0.07590904098 0.05644174063 0.03557562744)
5(0.1070160496 0.09367876925 0.07931859606 0.05767617396 0.03468521995)
5(0.1151584112 0.09933845959 0.08252784851 0.05830205848 0.03295487206)
5(0.1236331574 0.10505278 0.08558242505 0.05870295803 0.03097630876)
5(0.1323338471 0.1109737909 0.08851657405 0.05835950082 0.02812987864)
5(0.1421638512 0.1172360367 0.0913411979 0.05745470048 0.0247822307)
5(0.1524823549 0.1239817654 0.09380287402 0.05556438771 0.02056109465)
5(0.1634605487 0.1312095835 0.09654839066 0.05304052489 0.01571723094)
5(0.1759075852 0.1395703742 0.09926477049 0.0501018082 0.01030179245)
5(0.1884847769 0.1487833474 0.1016233644 0.04649096793 0.004152016154)
5(0.2019832406 0.1589625224 0.104617634 0.04352080666 -0.001853827089)
5(0.2173444404 0.1717346349 0.1098502408 0.0413064225 -0.007304002049)
5(0.2341198235 0.1859327455 0.1170499608 0.04075617487 -0.01105817644)
5(0.2543449025 0.2038163566 0.127501696 0.0421947849 -0.01326610056)
5(0.2766633334 0.2273063361 0.142769968 0.04802838048 -0.01295776165)
5(0.3048911766 0.2562162751 0.1644599179 0.05670375808 -0.008840757372)
5(0.3396098863 0.2935692716 0.1903939458 0.07120539429 -0.002053468801)
5(0.3898677353 0.3408073066 0.2240419687 0.09140683291 0.009001103173)
5(0.4503487625 0.3990728021 0.2696033988 0.1206690971 0.02551527489)
5(0.5340663045 0.475961335 0.3332008736 0.1667293146 0.0537020233)
5(0.743819834 0.6935611477 0.5464659705 0.3137757326 0.1424316343)
5(0.9393867682 0.8964476566 0.7798425954 0.5834343825 0.4373687209)
)


60
(
5(0.0002022360549 0.000219855452 0.0002938840131 0.000366188162 0.0003482302543)
5(0.0002882650993 0.0003240994279 0.0003948595731 0.0004758975464 0.0004574027701)
5(0.0004273245198 0.000499002448 0.0005942723044 0.0007201601636 0.0007136191677)
5(0.0005854538173 0.0006907319558 0.0008365028202 0.001010929139 0.001022785763)
5(0.000773519289 0.0009185981728 0.001127748578 0.001357938339 0.001390151075)
5(0.001010102311 0.001195863176 0.00147736478 0.001764939106 0.001812384836)
5(0.001293402242 0.001528912139 0.001888344083 0.002237224717 0.002287422884)
5(0.00163378669 0.001926503031 0.002368344226 0.002773557763 0.002806450673)
5(0.002046935529 0.002398212493 0.002927923884 0.003392311564 0.003411860864)
5(0.002544376108 0.002961876471 0.00359296513 0.004116982416 0.004101636714)
5(0.003135924135 0.003631743117 0.004369715752 0.004946290653 0.004874783297)
5(0.003852514345 0.004427872066 0.005279802254 0.005900841199 0.005761227518)
5(0.004701943123 0.005356412176 0.006321355657 0.006974724139 0.006737176574)
5(0.005690028907 0.006430485721 0.007512937141 0.008179476787 0.007819201808)
5(0.006841250696 0.007660974532 0.008854528062 0.009522442928 0.009025491366)
5(0.008171742032 0.009064756731 0.01037152216 0.01101288615 0.01032120526)
5(0.009705148682 0.01066428972 0.0120592849 0.01263818619 0.01171968797)
5(0.01145521869 0.01246019595 0.01392074495 0.01440724388 0.01320106265)
5(0.01341153941 0.01443787228 0.0159534079 0.01627631375 0.01475609968)
5(0.01559935354 0.01663198528 0.01815232416 0.01828438361 0.01637790627)
5(0.01802198558 0.01899896929 0.02052172359 0.02036179518 0.01800918176)
5(0.02066050929 0.02160608088 0.02305472159 0.02254215001 0.01970459904)
5(0.02361732472 0.02440833036 0.02569611284 0.02478912727 0.02140663085)
5(0.02671722298 0.02735715565 0.02848445812 0.02710940175 0.02308744659)