/*--------------------------------*- C++ -*----------------------------------*\
| =========                 |                                                 |
| \\      /  F ield         | OpenFOAM: The Open Source CFD Toolbox           |
|  \\    /   O peration     | Version:  2.3.1                                 |
|   \\  /    A nd           | Web:      www.OpenFOAM.org                      |
|    \\/     M anipulation  |                                                 |
\*---------------------------------------------------------------------------*/
FoamFile
{
    version     2.0;
    format      ascii;
    class       dictionary;
    location    "constant";
    object      PM23;
}
// * * * * * * * * * * * * * * * * * * * * * * * * * * * * * * * * * * * * * //

PM23_table
60
(

60
(
5(14.33538191 8.315535963 12.11693282 8.342255305 10.93707889)
5(6.302901621 4.127938411 6.258711118 5.434034045 2.703955111)
5(2.859740876 4.964684325 5.145581343 4.098645604 2.65626898)
5(3.187607913 5.012387674 5.600218384 3.705986232 4.355715301)
5(3.887015131 4.765353138 5.121823221 4.20453312 4.254076027)
5(4.778773417 4.458038079 3.609966165 4.017013269 3.599375196)
5(5.035917056 4.247614937 3.842539734 3.624671562 3.946700874)
5(4.211784888 4.195307942 4.140207997 3.742858896 3.110615917)
5(4.630664988 4.201561317 3.970947716 3.749856716 3.494510724)
5(4.447193715 4.20431425 4.163985894 3.650894246 3.522840689)
5(4.4474099 4.139172641 4.077506626 3.630820214 3.486011044)
5(4.349961776 4.088194451 3.86369013 3.591841451 3.366539425)
5(4.184544321 4.052774399 3.784747696 3.611079535 3.375718293)
5(4.285297143 4.026920866 3.766742445 3.488354393 3.293649142)
5(4.108436686 3.935436278 3.682311397 3.502340023 3.26590108)
5(4.110623963 3.90766835 3.676349838 3.476168457 3.246843668)
5(4.061300706 3.854459295 3.635514203 3.445404551 3.248817355)
5(4.007492552 3.806929881 3.596585717 3.44075775 3.235228731)
5(3.948160046 3.769825966 3.562193879 3.402198917 3.208047417)
5(3.93959654 3.773137362 3.553664185 3.422048201 3.180584003)
5(3.87938008 3.699099255 3.482617434 3.375890292 3.150153439)
5(3.84169406 3.650107748 3.46500201 3.253283465 3.072155765)
5(3.831464353 3.624955567 3.418676654 3.277304904 3.094992768)
5(3.760440912 3.617360622 3.38767839 3.251203903 3.06749176)
5(3.733025086 3.580156037 3.36789712 3.247350272 3.062745296)
5(3.686901585 3.529776953 3.360826994 3.254460145 3.042931022)
5(3.649095983 3.475575406 3.292733957 3.233889236 3.024476926)
5(3.589056208 3.427511276 3.274524851 3.21099722 3.001744427)
5(3.572604217 3.3978483 3.220501808 3.164688877 2.977715983)
5(3.520885045 3.370977146 3.176289265 3.098691347 2.937206822)
5(3.485633937 3.335544914 3.153362896 3.090083457 2.922417169)
5(3.430736644 3.275746352 3.090880461 3.02197184 2.824970186)
5(3.360798024 3.221447431 3.050589433 2.971088422 2.839209201)
5(3.298760718 3.169441288 3.025280409 2.933998882 2.757315475)
5(3.235290565 3.095567908 2.954892516 2.883448607 2.720110085)
5(3.144379904 3.035891829 2.954575686 2.857044763 2.693604323)
5(3.072191218 2.939327373 2.81859825 2.757636976 2.673528409)
5(2.961089466 2.863601391 2.74006431 2.764080008 2.542566809)
5(2.866168879 2.764396952 2.6835327 2.666124461 2.599857337)
5(2.77939314 2.666402055 2.646892464 2.777759433 1.937481898)
5(2.671128769 2.567292538 2.553583392 2.700818075 2.191765626)
5(2.529985488 2.460562875 2.529148436 2.393292526 2.196164788)
5(2.418681803 2.351136611 2.550036483 2.028492123 2.126180839)
5(2.279442755 2.21205706 2.597315646 2.116462899 2.182404241)
5(2.187716892 2.151484803 2.542744954 2.150310464 2.232089558)
5(2.041372142 2.128561773 2.470615625 2.19411359 2.299180387)
5(1.990627839 2.337292304 2.035180801 2.15030417 2.376615836)
5(2.040732865 2.240772227 1.988800025 2.169133521 2.459494514)
5(1.930259935 2.333765185 2.036406014 2.239128116 2.55182522)
5(2.471501295 1.96842508 1.957110196 2.322386515 2.646614454)
5(2.413567067 2.023484877 2.037056861 2.414045681 2.743493922)
5(1.96279829 1.965441485 2.140948969 2.517974916 2.837889564)
5(1.803697795 2.006808551 2.255203584 2.622576424 2.928856053)
5(1.857294655 2.124321936 2.37878553 2.713964035 2.986532588)
5(1.976305245 2.256886066 2.503922854 2.786394034 3.042098518)
5(2.132952632 2.429489675 2.630672644 2.83793001 3.047716063)
5(2.25601647 2.615127945 2.729403228 2.807004403 3.009769319)
5(1.711560582 2.607287327 2.724047407 2.663436684 2.985195245)
5(-0.7585272991 1.593236772 2.346298751 2.99382901 2.098379031)
5(-5.634254305 -5.196521416 -4.868348775 -4.043729562 -3.415371331)
)


60
(
5(13.29609605 8.692168358 10.70977868 8.074247227 9.357152758)
5(8.819152111 5.964611777 7.440511388 6.391898607 6.587628261)
5(5.404630453 6.320705331 6.239673963 5.456435162 3.994129032)
5(4.483192571 6.318199513 6.246883471 4.878251391 5.783941257)
5(5.030570785 5.993237538 5.902378101 5.181971372 4.989602449)
5(6.053596872 5.69414596 5.007037299 5.038056292 4.543075212)
5(6.278002599 5.495868585 4.982591801 4.725771735 4.795533925)
5(5.612939645 5.403422246 5.201074841 4.766274438 4.218892647)
5(5.850216905 5.364080789 5.042233094 4.748194743 4.395717749)
5(5.699535326 5.33283284 5.138656759 4.648741355 4.397445256)
5(5.656462683 5.251274616 5.047317425 4.605072052 4.347348304)
5(5.55934867 5.179076508 4.87767361 4.55285884 4.241242269)
5(5.386588895 5.122389829 4.790674706 4.545343221 4.226352588)
5(5.424733823 5.072293887 4.751828623 4.440216808 4.155661904)
5(5.268468278 4.978933303 4.666576921 4.427418136 4.113811836)
5(5.237461449 4.93174643 4.637845126 4.389120037 4.082524224)
5(5.173221061 4.868241181 4.58756374 4.348747976 4.067331008)
5(5.105920412 4.809285241 4.540571893 4.326076922 4.041228879)
5(5.034993989 4.757299103 4.493172973 4.281553324 4.008001736)
5(5.002257873 4.734632338 4.467147088 4.275869081 3.970241563)
5(4.935282489 4.659031356 4.398007865 4.228659194 3.936140637)
5(4.879141847 4.602118384 4.36315759 4.12775019 3.870127202)
5(4.846243935 4.559174612 4.311642799 4.127282102 3.867920593)
5(4.77520228 4.531010697 4.269229747 4.08840836 3.829962719)
5(4.729149656 4.480535799 4.233442755 4.066091075 3.807883544)
5(4.671108814 4.422929927 4.20961705 4.04819252 3.772963082)
5(4.618446166 4.3587932 4.142072598 4.015510353 3.73937413)
5(4.550229816 4.300254606 4.104209332 3.97407795 3.700702633)
5(4.506768219 4.250296763 4.041270252 3.918547878 3.661858963)
5(4.444303704 4.200412552 3.979856876 3.848349171 3.613019111)
5(4.387828983 4.140129912 3.932514773 3.808293944 3.568298813)
5(4.315535657 4.061711906 3.853049553 3.72641148 3.477228697)
5(4.232335903 3.987445826 3.787391291 3.663052329 3.459347884)
5(4.151108755 3.906342471 3.721398982 3.58839861 3.361113382)
5(4.060305305 3.808410044 3.631978527 3.513634885 3.30181067)
5(3.958872075 3.716384285 3.563089499 3.438003742 3.238922696)
5(3.844227598 3.586578507 3.427264889 3.336756015 3.172945203)
5(3.720070751 3.472761556 3.322922409 3.254807562 3.042233628)
5(3.59045164 3.338700737 3.217516424 3.15793562 3.034175714)
5(3.454359831 3.201870972 3.111413048 3.076838042 2.741597881)
5(3.301558931 3.053098016 2.978401965 2.988661812 2.717827651)
5(3.13089826 2.901073866 2.8581492 2.856296905 2.703018424)
5(2.967281162 2.750879486 2.747653294 2.638457352 2.70790221)
5(2.806551469 2.603004905 2.660686327 2.611569802 2.727637424)
5(2.642546778 2.464778905 2.578387138 2.601033863 2.731020734)
5(2.479158518 2.339803022 2.507689686 2.610346631 2.749396108)
5(2.32504438 2.248088068 2.407996931 2.627007619 2.779202612)
5(2.204451326 2.193623449 2.357392621 2.647688439 2.817017578)
5(2.078354183 2.138826872 2.364661786 2.674550296 2.853117704)
5(1.998825431 2.172392403 2.390323488 2.705390846 2.884899958)
5(1.991644179 2.184109316 2.426933088 2.735296539 2.909728011)
5(2.119067301 2.216204788 2.472012009 2.760265089 2.919912148)
5(2.140935559 2.261015424 2.521262214 2.779629597 2.917929177)
5(2.168746174 2.310254067 2.568381629 2.776259184 2.881041673)
5(2.206670164 2.35612363 2.604637182 2.731138118 2.819640447)
5(2.181658268 2.381328008 2.607862376 2.646210093 2.712097007)
5(1.921898951 2.331574568 2.543353614 2.473606645 2.539142084)
5(1.182143184 2.010410968 2.300543063 2.141390235 2.326287088)
5(-1.11997271 0.4515904976 0.8626661318 2.37460394 1.790800308)
5(-5.712794013 -5.736961222 -5.21471566 -4.335829911 -2.593930316)
)


60
(
5(14.13820671 9.67834859 10.9538201 8.704981348 9.436662837)
5(10.75795019 8.615615852 9.062254291 7.795429427 7.913044375)
5(9.311684561 8.191402768 7.814787795 7.119155239 6.721671172)
5(8.680686113 7.914850098 7.226000818 6.746968389 6.147386263)
5(8.371070048 7.679763803 6.982654882 6.546039069 5.867858189)
5(8.245839457 7.505367786 6.90836421 6.437705687 5.784556162)
5(8.150810529 7.377884627 6.849734411 6.373766458 5.788643877)
5(7.994284501 7.244960761 6.76668811 6.297891091 5.75853282)
5(7.810464842 7.111930246 6.645116518 6.196880041 5.674134603)
5(7.650436246 6.986783081 6.51990073 6.095789695 5.568688293)
5(7.500610489 6.87243188 6.407550046 6.007323994 5.48748655)
5(7.380042249 6.760395665 6.317329726 5.930768847 5.419710008)
5(7.266613118 6.659115107 6.234782745 5.856756221 5.360026712)
5(7.155094796 6.561103957 6.154426935 5.789664881 5.30405528)
5(7.04371643 6.46642504 6.071983392 5.719969905 5.242228562)
5(6.935248248 6.373266143 5.99199188 5.64991407 5.181434241)
5(6.832294525 6.282983896 5.914066599 5.58215312 5.122508523)
5(6.731670375 6.194866187 5.838309032 5.51452542 5.065518219)
5(6.634243496 6.104601687 5.761618009 5.448945921 5.00739869)
5(6.538562716 6.017988122 5.687714886 5.384344339 4.94989516)
5(6.43786632 5.932338417 5.611938348 5.317294348 4.890357376)
5(6.33959448 5.847181804 5.536294004 5.252643908 4.830946039)
5(6.24344276 5.7584628 5.457097478 5.182539058 4.769400578)
5(6.14816134 5.668463838 5.380483252 5.110446118 4.704001289)
5(6.046860655 5.576117941 5.295394397 5.034946537 4.635803324)
5(5.946331348 5.482089143 5.211375273 4.95624365 4.565182571)
5(5.844583593 5.381280125 5.118921009 4.872113331 4.4880723)
5(5.732378749 5.276567723 5.021655806 4.785702803 4.408277623)
5(5.620428792 5.169131833 4.919904088 4.691441649 4.320228641)
5(5.501419874 5.051180061 4.809324994 4.588679951 4.22752555)
5(5.375352011 4.929236719 4.695758977 4.479957745 4.126214446)
5(5.243534336 4.801297021 4.571605442 4.362601069 4.021095848)
5(5.104172779 4.660647953 4.436887243 4.238245505 3.912740292)
5(4.954506246 4.511278765 4.296396024 4.108495376 3.797822106)
5(4.799513024 4.355732699 4.145386951 3.970495028 3.675665748)
5(4.630872289 4.188379713 3.986976911 3.825797468 3.547122367)
5(4.459020321 4.015572427 3.822411044 3.67162573 3.4091621)
5(4.279022526 3.835108748 3.649280213 3.512397479 3.272922324)
5(4.095974116 3.649284173 3.473332739 3.353886605 3.156302459)
5(3.910319919 3.46157508 3.293332417 3.207261123 3.06631351)
5(3.71599305 3.264118339 3.114394375 3.080499015 3.002925572)
5(3.526082451 3.07017223 2.941796642 2.973630568 2.949659004)
5(3.33548913 2.875845861 2.778292101 2.883228447 2.885648901)
5(3.147252506 2.684199873 2.638110724 2.800969946 2.798455967)
5(2.958379431 2.496658321 2.518224447 2.718434817 2.707445426)
5(2.763560793 2.319720769 2.420462443 2.631564484 2.628015021)
5(2.55248136 2.169723747 2.339010767 2.538111846 2.561121202)
5(2.34121508 2.043879123 2.264399625 2.445548383 2.502602969)
5(2.140065099 1.935158635 2.177282403 2.361098752 2.443482742)
5(1.959069276 1.83415119 2.086448195 2.280223749 2.375862297)
5(1.789520507 1.738546817 1.992744453 2.196216484 2.307054933)
5(1.615424581 1.633623493 1.904146692 2.103815976 2.225905053)
5(1.411279541 1.520157886 1.816277576 2.007752528 2.133976684)
5(1.184165127 1.405697851 1.728841916 1.904568409 2.014800591)
5(0.9502946848 1.282441108 1.635965947 1.780720493 1.873998695)
5(0.7007560531 1.150764171 1.528948718 1.629678432 1.706496217)
5(0.425740714 0.992675704 1.383102109 1.447390192 1.491814456)
5(0.05991373092 0.7411913789 1.166841065 1.200626548 1.227624283)
5(-0.9001190177 0.1571473163 0.816234496 0.885965117 0.9258852628)
5(-3.299616657 -4.388741185 -2.434692209 -0.9429417899 -1.066300503)
)


60
(
5(13.93533654 9.362930724 10.50944373 8.568962833 9.065222089)
5(10.94331578 8.512444241 9.112096409 7.85757694 8.00321776)
5(9.619317213 8.271058428 7.980905758 7.241537208 6.905546648)
5(8.969087179 8.050155213 7.369743502 6.868594028 6.283468617)
5(8.618155404 7.808216455 7.088408912 6.653198272 5.950599964)
5(8.462529045 7.625980179 7.004347786 6.540631526 5.845069463)
5(8.365217503 7.494939314 6.962293205 6.478567006 5.859078199)
5(8.212346146 7.362947323 6.884900227 6.399418429 5.840741743)
5(8.021651741 7.228070332 6.765281738 6.300409926 5.760516575)
5(7.837164538 7.09789628 6.631154726 6.192835587 5.654384869)
5(7.680733563 6.973023637 6.512955165 6.099551498 5.56235364)
5(7.545080782 6.857465199 6.413186925 6.013998964 5.486532694)
5(7.420912732 6.750549911 6.324244053 5.938092845 5.426654115)
5(7.29985669 6.64733896 6.238849205 5.865554066 5.366823164)
5(7.181713004 6.545461509 6.151357048 5.793832074 5.301013879)
5(7.065652659 6.44508371 6.066192859 5.71782951 5.236278042)
5(6.951096364 6.347659667 5.982428146 5.645646338 5.171814932)
5(6.844033373 6.252162497 5.898925004 5.573539282 5.108155188)
5(6.735287305 6.157973508 5.819226499 5.499266358 5.044753741)
5(6.63008822 6.066164505 5.735991211 5.426241847 4.980866058)
5(6.525420514 5.971304209 5.653242426 5.353595121 4.918646317)
5(6.418961834 5.877914824 5.571506634 5.281921935 4.852073589)
5(6.312162311 5.785264245 5.489281681 5.206525703 4.782955354)
5(6.208457442 5.690479794 5.401400071 5.126946209 4.70976605)
5(6.101962148 5.588556429 5.310291459 5.043539641 4.635047748)
5(5.991851259 5.488678803 5.21914573 4.958774686 4.561170179)
5(5.880019165 5.382581227 5.121952014 4.868568126 4.480559101)
5(5.765146422 5.275330641 5.021889767 4.77695046 4.394467842)
5(5.645266387 5.162626524 4.915647547 4.676304403 4.303386518)
5(5.525016521 5.044803368 4.804378898 4.570334848 4.205546276)
5(5.395548716 4.922696442 4.688043223 4.458709523 4.101766419)
5(5.260703378 4.796409803 4.561896407 4.338565645 3.991028476)
5(5.124385698 4.658922291 4.429592007 4.215247174 3.8791582)
5(4.980204897 4.519073998 4.292635504 4.084965161 3.762021344)
5(4.832289366 4.369821473 4.147683173 3.949122016 3.637716603)
5(4.684063183 4.215683808 3.997103355 3.806349441 3.50255368)
5(4.530620235 4.057841999 3.837812265 3.656436875 3.362020061)
5(4.371408263 3.894760531 3.674557943 3.500590497 3.220167379)
5(4.214629736 3.728447577 3.507868972 3.346201857 3.094488004)
5(4.055725904 3.559279111 3.339887742 3.203825253 3.002103824)
5(3.896527844 3.387901293 3.17202102 3.077799155 2.927426708)
5(3.740742989 3.218169904 3.006378235 2.969654941 2.85915303)
5(3.582474767 3.046737455 2.850763801 2.874373665 2.77431761)
5(3.424504834 2.870543377 2.712526021 2.782250868 2.665612855)
5(3.256316816 2.694692551 2.595455866 2.682466555 2.548702603)
5(3.072659653 2.526534009 2.491424507 2.570149742 2.43477792)
5(2.862174834 2.36459683 2.389246103 2.449852629 2.334139938)
5(2.630980987 2.216360287 2.278262246 2.325017471 2.243624488)
5(2.381489551 2.067738356 2.152944182 2.201657651 2.153000533)
5(2.142997517 1.911462944 2.015204205 2.082671535 2.05736976)
5(1.893885475 1.72999786 1.866635563 1.956297333 1.947985113)
5(1.61007636 1.523831517 1.711300058 1.829062717 1.842767245)
5(1.270642195 1.303201462 1.566179278 1.700582757 1.728067437)
5(0.8739829198 1.069960766 1.41888036 1.563334208 1.600065878)
5(0.4416906944 0.8306992861 1.26874944 1.413446891 1.447240096)
5(0.001237565393 0.5741039963 1.09480795 1.24340714 1.278501968)
5(-0.4678967224 0.2809943838 0.8869746762 1.036614841 1.075203965)
5(-1.034496428 -0.1140448058 0.5752591986 0.7576526065 0.8274133108)
5(-2.433192312 -1.384111208 -0.4000770254 0.1779799772 0.4438543574)
5(-5.312794733 -5.10469421 -2.963184503 -1.288749461 -2.313678625)
)


60
(
5(13.33737278 8.729112456 9.832576472 8.203617677 8.570413583)
5(10.63241054 8.085710152 8.779018448 7.621358009 7.776696639)
5(9.471381931 8.037709174 7.792179473 7.086209755 6.794970457)
5(8.862294515 7.888634686 7.217998893 6.745733746 6.192040992)
5(8.505367879 7.657299895 6.946281254 6.538115979 5.852000314)
5(8.352855404 7.484147058 6.871164724 6.430933818 5.745113789)
5(8.267699407 7.364796582 6.840144182 6.373146738 5.766070268)
5(8.119892582 7.236137905 6.770992618 6.300694499 5.756700601)
5(7.928172276 7.107950981 6.659532085 6.206180854 5.681861781)
5(7.745466205 6.978339759 6.525462628 6.10038475 5.575688816)
5(7.586869706 6.856352348 6.407363509 6.004284478 5.481838655)
5(7.449864865 6.742899949 6.305574043 5.920579852 5.407648939)
5(7.327457465 6.634627073 6.220428667 5.846687762 5.345875473)
5(7.202321664 6.530692501 6.135175728 5.772517371 5.286680107)
5(7.08124896 6.429415187 6.049528208 5.699433082 5.223476992)
5(6.963601758 6.332816405 5.962111431 5.624429753 5.157508253)
5(6.850555531 6.234691412 5.876167759 5.553880296 5.090908527)
5(6.738992118 6.137699406 5.795027659 5.480261649 5.025830271)
5(6.631457082 6.044616872 5.71297878 5.405229573 4.964062867)
5(6.524081107 5.951164085 5.629599856 5.333291761 4.901075682)
5(6.417295088 5.856409828 5.548840037 5.261713546 4.837514339)
5(6.314706256 5.764142219 5.465449271 5.187929778 4.771147902)
5(6.208898623 5.670837413 5.382723899 5.111784464 4.698832491)
5(6.099352844 5.577892979 5.295505274 5.030761188 4.625999616)
5(5.994448742 5.481803994 5.207437159 4.949762307 4.550325957)
5(5.887129245 5.380741858 5.115868726 4.865285325 4.4752617)
5(5.775124281 5.278835081 5.022187139 4.777027492 4.394978974)
5(5.662772355 5.175936174 4.923153872 4.685732366 4.309872579)
5(5.549610215 5.068912341 4.820731465 4.589161757 4.220726593)
5(5.432603977 4.956404885 4.71566777 4.488005614 4.12788884)
5(5.309585127 4.841944441 4.605256383 4.37980694 4.030466515)
5(5.186721866 4.7232729 4.486739082 4.266892762 3.926343818)
5(5.062295303 4.598734475 4.365916656 4.149666497 3.816231893)
5(4.935911948 4.471563875 4.238865449 4.028269867 3.704458499)
5(4.806770415 4.339154246 4.108542705 3.901920692 3.586300637)
5(4.673125253 4.205058157 3.973286718 3.77152469 3.457502856)
5(4.545132618 4.068662988 3.833103369 3.632774098 3.322855336)
5(4.415834647 3.928220888 3.689800987 3.490110857 3.188819514)
5(4.287458141 3.787609998 3.543832679 3.349215844 3.067168119)
5(4.16014539 3.647404403 3.396384654 3.218210004 2.974773743)
5(4.036872035 3.508784233 3.248492883 3.10471263 2.906751742)
5(3.910520276 3.368790086 3.104244154 3.009439431 2.828010203)
5(3.785200046 3.224951804 2.96984932 2.923595349 2.730412526)
5(3.651984812 3.073442863 2.848823866 2.834119822 2.604492998)
5(3.507358068 2.920412998 2.741709083 2.729241279 2.471802893)
5(3.338579863 2.764997158 2.641740721 2.610106157 2.33936496)
5(3.144948298 2.608827929 2.539008666 2.474992135 2.214626076)
5(2.911095724 2.455741534 2.411844635 2.329750585 2.100302656)
5(2.67335154 2.289244535 2.250414089 2.177896247 1.98675696)
5(2.434863861 2.090678647 2.062825995 2.023783556 1.866483735)
5(2.165779654 1.8460174 1.853791878 1.863476249 1.741503172)
5(1.854173456 1.562789986 1.625429375 1.697449686 1.612067775)
5(1.462734889 1.224901155 1.395150434 1.527419079 1.47475771)
5(0.9908832757 0.8649135309 1.157900929 1.349563719 1.331973641)
5(0.4616630786 0.4985124299 0.907532005 1.155319603 1.17198054)
5(-0.1101083852 0.09930127332 0.6368398098 0.9420183574 0.9867374342)
5(-0.716024084 -0.3235938325 0.3199647587 0.6778896944 0.7852725876)
5(-1.397850462 -0.8442054056 -0.1335272108 0.3249011214 0.5246934466)
5(-3.112007232 -2.447038443 -1.809711818 -0.6970196884 -0.1145312029)
5(-5.442548965 -4.926035439 -4.120523807 -2.587524266 -2.367885596)
)


60
(
5(12.55929679 7.986920725 9.073436855 7.747436622 8.047249811)
5(10.1055965 7.547695216 8.294708234 7.270958155 7.435829945)
5(9.136089661 7.685893386 7.463515717 6.823892956 6.574334379)
5(8.593979298 7.612248298 6.951362948 6.527027677 6.014506129)
5(8.252905044 7.403128707 6.709062584 6.338907605 5.685212817)
5(8.112873685 7.245967223 6.648920136 6.239008187 5.582290238)
5(8.044929182 7.137920152 6.627901462 6.189679131 5.609914709)
5(7.905741412 7.019060304 6.569552764 6.125218359 5.607137188)
5(7.721477439 6.899397603 6.465797389 6.035534548 5.538262561)
5(7.542319609 6.775803575 6.338778198 5.934973589 5.435301625)
5(7.388825896 6.660501942 6.224464439 5.841806439 5.344188988)
5(7.256266539 6.549469336 6.125934317 5.761416712 5.271814524)
5(7.134266815 6.447391413 6.045026691 5.689847546 5.212085117)
5(7.01656615 6.347148612 5.962394683 5.617981238 5.153500926)
5(6.897389783 6.249361769 5.880825918 5.546884889 5.092556463)
5(6.780995024 6.153014238 5.794364297 5.474710026 5.028802647)
5(6.66901013 6.058969123 5.714231815 5.405028355 4.964117582)
5(6.55996883 5.967088847 5.632232013 5.330913485 4.900957784)
5(6.453728212 5.875526689 5.551784729 5.262208316 4.840041312)
5(6.350396367 5.78518558 5.4734908 5.191500442 4.777504559)
5(6.2455404 5.693757686 5.392691785 5.123913609 4.715900433)
5(6.142702899 5.605549125 5.314599939 5.051482956 4.650953242)
5(6.040740589 5.515188527 5.233564377 4.977342968 4.582100326)
5(5.936315485 5.424237999 5.151250253 4.902633545 4.514833886)
5(5.836080615 5.332727538 5.067674686 4.822848561 4.443290747)
5(5.7330214 5.239347161 4.98086119 4.738443762 4.368976295)
5(5.626145969 5.143826368 4.891510017 4.655486873 4.292295948)
5(5.518272863 5.04605209 4.797764087 4.571547623 4.212427263)
5(5.416548171 4.945655985 4.704047381 4.481884396 4.127496007)
5(5.306547745 4.844231151 4.606582933 4.386398867 4.03920742)
5(5.199668612 4.741349848 4.504830751 4.288402189 3.943945608)
5(5.088451541 4.631840293 4.398179335 4.185715478 3.849498771)
5(4.976912555 4.522671877 4.28939831 4.079994726 3.747482697)
5(4.864454057 4.411592221 4.178402778 3.970290471 3.646805489)
5(4.751647066 4.299814628 4.062007972 3.85635427 3.537440502)
5(4.642442827 4.187899642 3.944169042 3.737711282 3.421801059)
5(4.536035017 4.070461648 3.823080784 3.614316474 3.297073086)
5(4.430411449 3.955364532 3.701219036 3.489400619 3.175329536)
5(4.328119866 3.842015835 3.577583501 3.367810542 3.069150039)
5(4.231725358 3.727911807 3.45395801 3.255060355 2.982417114)
5(4.132560959 3.61612756 3.331417146 3.159328765 2.920386589)
5(4.03524411 3.502635039 3.21223668 3.0801613 2.84745996)
5(3.934136003 3.384780753 3.099680456 3.007881168 2.749651157)
5(3.818779552 3.261618919 3.001983407 2.929434757 2.623205104)
5(3.691969709 3.132944108 2.916019523 2.83288535 2.479100973)
5(3.54823458 3.000701024 2.83301875 2.712209712 2.330673998)
5(3.364326269 2.865880254 2.735473769 2.571342915 2.192200845)
5(3.169508171 2.723265059 2.600472374 2.414940861 2.055247163)
5(2.967329065 2.555801312 2.424667841 2.246190825 1.914783066)
5(2.764535509 2.351218944 2.205514306 2.061410453 1.768612223)
5(2.539169574 2.096903563 1.945824941 1.863731742 1.617294122)
5(2.26329823 1.778929116 1.647572766 1.649169645 1.458484278)
5(1.923009013 1.395728038 1.324263475 1.418816206 1.303296408)
5(1.490311117 0.9699282875 0.9694449218 1.17737871 1.133576304)
5(0.9841090201 0.4995770275 0.604873557 0.9118027924 0.9530159312)
5(0.3625367384 -0.01079343632 0.2228743593 0.6197529095 0.7485138967)
5(-0.2905333804 -0.5483688376 -0.2183115719 0.273076088 0.5111638893)
5(-1.0507146 -1.170777033 -0.7634264018 -0.1891694622 0.193343653)
5(-2.908266641 -2.962968107 -2.572914346 -1.503027536 -0.6652169724)
5(-5.617698101 -5.232526314 -4.167040496 -3.129935757 -2.679314457)
)


60
(
5(11.6917514 7.200365712 8.284774883 7.256618221 7.528248073)
5(9.477815114 6.965910932 7.744334048 6.873222287 7.051130247)
5(8.709746345 7.282972311 7.072971699 6.512666865 6.30354804)
5(8.248929213 7.286256393 6.633114013 6.264353444 5.794845441)
5(7.935704648 7.10375703 6.427519554 6.098827595 5.485708707)
5(7.814545775 6.963201612 6.386125428 6.010713904 5.389304035)
5(7.764225686 6.871182367 6.373299726 5.968881086 5.422432202)
5(7.636735438 6.76301973 6.328543669 5.914458162 5.426914269)
5(7.461914907 6.653171426 6.232528858 5.829722752 5.36287383)
5(7.292077475 6.540132079 6.115768376 5.735582696 5.266153733)
5(7.145296293 6.429183227 6.00551126 5.648279729 5.178534788)
5(7.017936469 6.326295213 5.916159718 5.572534814 5.109520975)
5(6.903362421 6.228311817 5.8362515 5.503015079 5.053144422)
5(6.78926481 6.134062107 5.762112508 5.437198216 4.997360051)
5(6.674678917 6.041399429 5.682513064 5.367846467 4.937996025)
5(6.564424921 5.95020138 5.603664606 5.300248791 4.876748656)
5(6.454418303 5.860142386 5.524101562 5.230388671 4.8159278)
5(6.352653796 5.772180025 5.447113908 5.163147241 4.755186633)
5(6.247243517 5.684323521 5.371190778 5.095366303 4.695988976)
5(6.148427937 5.598864138 5.295340765 5.02874358 4.637318162)
5(6.049447961 5.513138618 5.21959342 4.962601092 4.578018554)
5(5.949290864 5.430328598 5.144948802 4.895858074 4.516696033)
5(5.852990732 5.343717921 5.068282827 4.828013558 4.450384374)
5(5.754806117 5.259052582 4.991320646 4.757359964 4.385894182)
5(5.657746782 5.173366121 4.912985452 4.680380231 4.318658235)
5(5.559514797 5.084360643 4.830867312 4.603896535 4.248799502)
5(5.46241687 4.994860977 4.748681168 4.528006273 4.179730329)
5(5.366634489 4.9045489 4.664427707 4.448034339 4.105961033)
5(5.267232423 4.814212318 4.578497128 4.362603836 4.026962499)
5(5.167401974 4.724750607 4.490316636 4.276155462 3.943838614)
5(5.072701572 4.62996033 4.397771774 4.187639306 3.856323824)
5(4.97596014 4.534846425 4.303200477 4.096572052 3.770718894)
5(4.879047753 4.440137407 4.207239577 4.001175902 3.679469918)
5(4.781717901 4.342512283 4.109376586 3.903149974 3.58885806)
5(4.685812728 4.247132379 4.008177067 3.803474598 3.492055807)
5(4.59718055 4.151932859 3.906282443 3.700810153 3.386681061)
5(4.507655162 4.055063786 3.804081089 3.59518159 3.27603618)
5(4.424746579 3.962167168 3.700060142 3.487223191 3.163629054)
5(4.344998156 3.869145588 3.598594363 3.383022891 3.073550973)
5(4.266058172 3.778570466 3.500444594 3.289266575 3.005990977)
5(4.190391252 3.691840729 3.401433143 3.214022038 2.94767344)
5(4.110633167 3.604446369 3.306787236 3.153688401 2.892087595)
5(4.024141547 3.514240453 3.218265856 3.099799164 2.802432627)
5(3.932615736 3.417725241 3.146337916 3.03986871 2.681622692)
5(3.818082006 3.312862259 3.083187011 2.957678177 2.538351777)
5(3.692185312 3.201871589 3.01828247 2.847561436 2.392413606)
5(3.539472107 3.086516888 2.932607348 2.714942085 2.245196471)
5(3.37871073 2.963199211 2.811652824 2.555418331 2.093149211)
5(3.211170927 2.825726534 2.636998852 2.375050371 1.935159787)
5(3.047410557 2.64413882 2.410205815 2.16944838 1.75728279)
5(2.886394335 2.413694635 2.131386111 1.934056396 1.575741078)
5(2.694174967 2.126241722 1.802364501 1.668580039 1.382023407)
5(2.440806959 1.785522513 1.429327328 1.370646914 1.179317173)
5(2.087813392 1.37361972 1.015389434 1.042294635 0.9729329046)
5(1.661007477 0.8875465417 0.5562371787 0.6935188034 0.7480774029)
5(1.144588389 0.3577948837 0.0608761031 0.2984381969 0.498245583)
5(0.5443206085 -0.2274651966 -0.4772135979 -0.1411511485 0.2000904)
5(-0.1678162188 -0.9101873863 -1.115739488 -0.6913630227 -0.2164735746)
5(-1.960857274 -2.753686604 -2.991247045 -2.20696854 -1.470169805)
5(-4.216893917 -5.3658111 -5.136453334 -3.955614907 -3.31193437)
)


60
(
5(10.78240681 6.394609083 7.486764604 6.751643189 7.020746246)
5(8.79732581 6.362187263 7.165887043 6.453475679 6.648431665)
5(8.231328663 6.856304504 6.652472127 6.178364547 6.010491726)
5(7.86120555 6.936637968 6.290511757 5.980349924 5.553357917)
5(7.58516187 6.781428868 6.126551209 5.841349969 5.269336168)
5(7.48382967 6.661161707 6.10463783 5.76386633 5.180928141)
5(7.451044169 6.585228785 6.10196886 5.732921681 5.220382193)
5(7.338512994 6.489844077 6.06943597 5.686391085 5.229939265)
5(7.173520235 6.390628216 5.984763386 5.611052771 5.173900781)
5(7.01594495 6.287899532 5.876941169 5.521545824 5.08246104)
5(6.876522507 6.185022946 5.774223294 5.440761743 5.000849541)
5(6.758337183 6.089671211 5.69294149 5.371960245 4.934375362)
5(6.649336627 5.99703292 5.618557737 5.306747986 4.882301767)
5(6.543436232 5.909511657 5.549813284 5.244308923 4.829534623)
5(6.433942821 5.822294775 5.474682477 5.179657197 4.773947148)
5(6.328696595 5.736641528 5.400948228 5.116507679 4.714722253)
5(6.225473982 5.651047942 5.326539867 5.050662459 4.656995511)
5(6.127046864 5.567454845 5.255351207 4.987104117 4.600661606)
5(6.031247419 5.485993376 5.183437766 4.922553159 4.544356122)
5(5.934339325 5.404858741 5.112935846 4.860648597 4.490438976)
5(5.838639605 5.32452169 5.040991218 4.7979368 4.433250836)
5(5.747098631 5.244649999 4.970847711 4.735448375 4.374200266)
5(5.652040077 5.165668788 4.899473529 4.670489722 4.31357328)
5(5.564848516 5.088316059 4.828606204 4.604555071 4.252095778)
5(5.47142737 5.007055314 4.754348985 4.535275927 4.18814006)
5(5.378710131 4.925408215 4.680665537 4.467287934 4.125661086)
5(5.29192501 4.844423245 4.605255516 4.396321037 4.061852716)
5(5.204343822 4.762478696 4.528413674 4.320864317 3.98906029)
5(5.112683747 4.682061689 4.450304338 4.24611306 3.920972466)
5(5.025464335 4.598218429 4.368681864 4.168583185 3.845975919)
5(4.937695371 4.514283456 4.286679607 4.087721688 3.772051952)
5(4.851300672 4.432709446 4.205276449 4.003877989 3.692829036)
5(4.768394984 4.348538921 4.121234169 3.917074921 3.612253996)
5(4.686238819 4.265464767 4.035962695 3.833655438 3.532044471)
5(4.608244933 4.183848872 3.950850857 3.748148561 3.444069871)
5(4.532024684 4.103526144 3.864574739 3.660756214 3.35095637)
5(4.46401484 4.026165744 3.778588022 3.57156659 3.257018151)
5(4.397701462 3.948925316 3.69410545 3.47959479 3.162075903)
5(4.332783294 3.876461072 3.613588553 3.392333191 3.081446745)
5(4.269850639 3.808495173 3.534766105 3.317174864 3.028347333)
5(4.208152114 3.742615641 3.456538127 3.260993907 2.988213978)
5(4.138186512 3.676371031 3.384338487 3.220475972 2.941338786)
5(4.065676631 3.608028479 3.321715765 3.188048162 2.869141708)