/*--------------------------------*- C++ -*----------------------------------*\
| =========                 |                                                 |
| \\      /  F ield         | OpenFOAM: The Open Source CFD Toolbox           |
|  \\    /   O peration     | Version:  2.3.1                                 |
|   \\  /    A nd           | Web:      www.OpenFOAM.org                      |
|    \\/     M anipulation  |                                                 |
\*---------------------------------------------------------------------------*/
FoamFile
{
    version     2.0;
    format      ascii;
    class       dictionary;
    location    "constant";
    object      PM28;
}
// * * * * * * * * * * * * * * * * * * * * * * * * * * * * * * * * * * * * * //

PM28_table
60
(

60
(
5(-0.002509728814 0.001753401349 -0.005085916686 -0.006256337658 -0.00927484144)
5(-0.001037255899 -0.008384021004 -0.01087001461 -0.01064071966 0.003195710327)
5(-0.005763636017 -0.007439930149 -0.01006290015 -0.01122778091 -0.01921045282)
5(-0.00638501053 -0.007171157236 -0.00926059111 -0.01180844294 -0.008544619427)
5(-0.006164132713 -0.007662608811 -0.009624476428 -0.01079971574 -0.01386790853)
5(-0.005442717541 -0.008003673253 -0.01059120422 -0.01083983809 -0.0147250023)
5(-0.005323659586 -0.007916299989 -0.01028160733 -0.01063548945 -0.01346834151)
5(-0.005823009274 -0.007570663415 -0.009504669495 -0.01009745909 -0.01402291333)
5(-0.005516889041 -0.007188758058 -0.009248631404 -0.009504954588 -0.01253606708)
5(-0.00527045853 -0.006802711131 -0.008525976724 -0.009062338701 -0.01172218385)
5(-0.004867603937 -0.006518925035 -0.008170243284 -0.008475088585 -0.01093741182)
5(-0.004647371043 -0.006299428522 -0.007857597101 -0.007929362495 -0.0102546832)
5(-0.004653795901 -0.005992403149 -0.007367252303 -0.007310378935 -0.009267857752)
5(-0.004414311004 -0.005647439577 -0.006876608792 -0.006884117052 -0.008563268261)
5(-0.00426002967 -0.005354127519 -0.006407357155 -0.00622096776 -0.007721427326)
5(-0.004012495638 -0.004974593733 -0.005862215086 -0.005691152973 -0.006884949138)
5(-0.003783991428 -0.004619879803 -0.005391999617 -0.005133480148 -0.006063772782)
5(-0.00355508532 -0.004271679992 -0.004913853053 -0.004597990963 -0.005390536065)
5(-0.003321096021 -0.003910029624 -0.004446146976 -0.004121333878 -0.004749315011)
5(-0.00306765259 -0.003552632138 -0.003993695274 -0.003639024696 -0.004224887908)
5(-0.002854628605 -0.003286441302 -0.003622776271 -0.003317110426 -0.00373924913)
5(-0.002629361985 -0.002977693671 -0.00324115605 -0.003015842581 -0.003267390267)
5(-0.002412722248 -0.002686877393 -0.002902737337 -0.002568734423 -0.00277481228)
5(-0.00222010144 -0.002414446368 -0.00259340615 -0.002305838457 -0.00247865719)
5(-0.002031324047 -0.002200211142 -0.002299588398 -0.002026687717 -0.002176845746)
5(-0.00187196796 -0.002005381777 -0.002060275399 -0.00181636663 -0.001986170963)
5(-0.001730207768 -0.001847109578 -0.001887484288 -0.001645760943 -0.001798676262)
5(-0.001603322221 -0.001687339771 -0.001701985196 -0.001517155033 -0.001649396927)
5(-0.001481792385 -0.001553538179 -0.001587156093 -0.00141479175 -0.001513286365)
5(-0.001384762237 -0.001435592182 -0.001467820725 -0.001317961746 -0.001402680925)
5(-0.001297632269 -0.0013397227 -0.001355899983 -0.001218338218 -0.001334889631)
5(-0.001231868811 -0.001265672879 -0.001283022426 -0.001173742061 -0.00126972304)
5(-0.001169456377 -0.001180401959 -0.001183916854 -0.00107334472 -0.001104400049)
5(-0.001111268303 -0.001108325819 -0.001105555796 -0.001017285263 -0.001088075295)
5(-0.001064206164 -0.001049142627 -0.001032404803 -0.0009330354966 -0.0009490188456)
5(-0.001019291253 -0.0009814730358 -0.0009594500336 -0.0008726173454 -0.0008822614967)
5(-0.0009839539031 -0.0009506087525 -0.0009319108739 -0.0008068823084 -0.0008286117603)
5(-0.0009450199894 -0.0008847313721 -0.0008496218725 -0.0007428546522 -0.0007873790522)
5(-0.0009074509131 -0.000839024632 -0.0007792765039 -0.0006781661694 -0.0007225426221)
5(-0.0008713066312 -0.0007923593493 -0.0007218208451 -0.0006611932791 -0.0008340927857)
5(-0.0008447155887 -0.0007561021921 -0.0006813249534 -0.0006068248836 -0.0006220481505)
5(-0.0008128120087 -0.0007111499241 -0.0006307746411 -0.00058660801 -0.0005248062132)
5(-0.0007785844049 -0.0006703714711 -0.0005849894181 -0.0005369242571 -0.0003873178247)
5(-0.000741255205 -0.0006132599441 -0.0005089899145 -0.0004357552232 -0.0003158751295)
5(-0.00070607528 -0.0005732602768 -0.0004732444022 -0.0003797329816 -0.0002886777135)
5(-0.00066912472 -0.0005235890588 -0.0004155817822 -0.0003245195089 -0.0002361901053)
5(-0.0006197066665 -0.0004763178163 -0.0003682001146 -0.00026692828 -0.0001929108729)
5(-0.0005723511062 -0.0004349198382 -0.0003279197779 -0.000218732394 -0.0001548233095)
5(-0.0005281704053 -0.000350691942 -0.0002787546551 -0.0001773464876 -0.0001220505033)
5(-0.0003953385573 -0.0002978428762 -0.0002321521858 -0.0001409670886 -9.407839738e-05)
5(-0.0003190301885 -0.0002695095041 -0.0001905070712 -0.0001095947973 -7.050286148e-05)
5(-0.0003168558612 -0.0002261385511 -0.0001519047518 -8.145017494e-05 -5.072956656e-05)
5(-0.0002887596072 -0.0001805872523 -0.0001174430054 -5.671547357e-05 -3.37614114e-05)
5(-0.0002384616023 -0.000137780013 -8.657397709e-05 -3.510794582e-05 -1.994421728e-05)
5(-0.0001859121548 -9.928837944e-05 -5.828121177e-05 -1.621164977e-05 -8.160697739e-06)
5(-0.0001322564242 -6.217261404e-05 -3.161119188e-05 4.259104789e-07 1.578160351e-06)
5(-6.629343727e-05 -2.535926416e-05 -5.468070429e-06 1.583055285e-05 8.5245369e-06)
5(2.297740124e-05 2.348011277e-05 2.258333575e-05 3.542968846e-05 1.402107467e-05)
5(0.0001412813841 9.906763826e-05 6.978696941e-05 9.449074088e-06 1.758954318e-05)
5(0.0001460184575 0.0001605480779 0.0001164782492 9.724826535e-05 7.688232557e-05)
)


60
(
5(-0.003394513326 -0.004078367048 -0.005621252714 -0.005762031045 -0.007479067865)
5(-0.00515944765 -0.007078977147 -0.009034455771 -0.008668630037 -0.01249170937)
5(-0.006036853508 -0.00655714819 -0.008850192162 -0.009453460742 -0.01577457487)
5(-0.005641013499 -0.006202211591 -0.007690588493 -0.009724241133 -0.009684087209)
5(-0.005699251343 -0.006307714932 -0.007787970412 -0.008719169601 -0.01144085352)
5(-0.005307693772 -0.006416351292 -0.008890259205 -0.008591595649 -0.01211102608)
5(-0.004977671332 -0.006410610029 -0.008717350344 -0.008816507107 -0.01095932178)
5(-0.005226700375 -0.006254088676 -0.008095440415 -0.00838335747 -0.01194588904)
5(-0.004982399047 -0.006008027804 -0.007910304269 -0.007973582414 -0.01088424379)
5(-0.004902587338 -0.005734750709 -0.007305146551 -0.007687489207 -0.01015429317)
5(-0.004712680631 -0.005525158178 -0.006986451961 -0.007296764517 -0.009518024398)
5(-0.004465496714 -0.005284026653 -0.006798129782 -0.00691515906 -0.009078796197)
5(-0.004353801781 -0.005028500072 -0.006491110144 -0.006440364567 -0.0083960114)
5(-0.004104391364 -0.004761493033 -0.006096520852 -0.006147559019 -0.00784928624)
5(-0.003980940098 -0.00454469356 -0.005756985327 -0.005676944684 -0.007224183183)
5(-0.003760790226 -0.004263127902 -0.005329309693 -0.00524857699 -0.006589898719)
5(-0.003560515041 -0.003996749529 -0.004940860169 -0.004831122396 -0.005926629911)
5(-0.003358963494 -0.003727986612 -0.004555775159 -0.004388915836 -0.005311171174)
5(-0.003159951643 -0.003452159449 -0.004171711863 -0.003995788783 -0.00474239829)
5(-0.002929711877 -0.003144753137 -0.003769988539 -0.003556595249 -0.004216998672)
5(-0.002726373035 -0.002911711506 -0.003442874224 -0.003204965914 -0.00372795634)
5(-0.002515924476 -0.00266425566 -0.003085028742 -0.00293891171 -0.003321426438)
5(-0.002297161391 -0.002413767545 -0.002767558063 -0.002567424017 -0.002854510699)
5(-0.002113571519 -0.002162842449 -0.002469018694 -0.002273380176 -0.002492985962)
5(-0.001921131885 -0.001950770018 -0.002186117058 -0.001989111057 -0.00215844651)
5(-0.001750339772 -0.001763931753 -0.001922628091 -0.001740547001 -0.001891096684)
5(-0.001592362859 -0.001600521094 -0.001733746658 -0.001540806939 -0.001667478265)
5(-0.001455504749 -0.001450201562 -0.001543132126 -0.001378628323 -0.001487030982)
5(-0.001320829222 -0.001313700164 -0.001401324039 -0.001253342724 -0.001337080794)
5(-0.001213836867 -0.001195372568 -0.001280010208 -0.001161440179 -0.001230643358)
5(-0.001119255395 -0.0010981227 -0.001167733682 -0.001062246993 -0.001134429262)
5(-0.001044840591 -0.001026708876 -0.00109299961 -0.001008775977 -0.001096247946)
5(-0.0009862251093 -0.000960502573 -0.001018372893 -0.0009487756218 -0.0009984723265)
5(-0.0009351194503 -0.0009036673165 -0.0009511570265 -0.0009008697923 -0.0009722143758)
5(-0.000892118853 -0.0008621195162 -0.0009041449881 -0.0008540768824 -0.0009101934098)
5(-0.0008581995177 -0.0008148058785 -0.0008400044311 -0.0008078977891 -0.0008564385632)
5(-0.0008303394623 -0.0007948850521 -0.0008278715056 -0.0007779380818 -0.0008022991394)
5(-0.0008063041903 -0.0007566084251 -0.0007877831521 -0.0007297632851 -0.0007962903018)
5(-0.0007835518328 -0.0007307409709 -0.0007421475169 -0.0006948122794 -0.000702361021)
5(-0.0007562553023 -0.0007011695631 -0.0006960628742 -0.0006509788636 -0.0007894573998)
5(-0.000738544156 -0.0006825079627 -0.000673700784 -0.0006189639115 -0.0007192404801)
5(-0.0007234958249 -0.0006575902616 -0.0006419837479 -0.0006223475126 -0.0006539226897)
5(-0.0007054170509 -0.0006415831656 -0.0006152444903 -0.0006549429103 -0.0005845691406)
5(-0.000686145598 -0.0006080488398 -0.0005504531652 -0.0006010984142 -0.0005084502242)
5(-0.0006644859526 -0.0005825799501 -0.0005293892293 -0.0005409540048 -0.0004489197457)
5(-0.0006475831469 -0.0005492784673 -0.0005110838441 -0.0004823902457 -0.0003864824005)
5(-0.0006236515851 -0.0005276712017 -0.0005324023426 -0.0004220264012 -0.0003267536235)
5(-0.0005944825447 -0.0005216346473 -0.0004973740869 -0.0003634245302 -0.0002716625698)
5(-0.0005616466072 -0.0004757086452 -0.0004417213861 -0.0003067181576 -0.0002213137801)
5(-0.0005238971747 -0.0004884081759 -0.0003813757511 -0.0002525859545 -0.0001766474695)
5(-0.0004864149934 -0.0004287570794 -0.0003208109377 -0.0002034711277 -0.0001382331741)
5(-0.0004816979562 -0.0003641761226 -0.0002623091989 -0.0001588284178 -0.0001055347704)
5(-0.0004297164067 -0.0002984006783 -0.0002078749554 -0.0001197752377 -7.782560576e-05)
5(-0.0003592581958 -0.0002333966328 -0.0001586518914 -8.565505019e-05 -5.455162437e-05)
5(-0.0002785330962 -0.0001714849525 -0.0001140893814 -5.636920714e-05 -3.565494256e-05)
5(-0.0001950346005 -0.0001143375577 -7.390153299e-05 -3.143955871e-05 -2.011649153e-05)
5(-0.0001000438668 -6.042787309e-05 -3.70222523e-05 -9.993858132e-06 -8.372975841e-06)
5(-1.677698473e-08 -5.399892951e-07 -1.397372409e-06 8.556277374e-06 1.054624616e-06)
5(0.0001124517503 7.675867082e-05 5.434625544e-05 7.050643416e-06 9.63106813e-06)
5(0.0001618626727 0.000129573046 8.16583643e-05 7.793637482e-05 5.709850883e-05)
)


60
(
5(-0.001729800058 -0.0009821702114 -0.002735996614 -0.002229515721 -0.00378185683)
5(-0.003242023398 -0.002231784986 -0.004929383872 -0.003889209752 -0.006773217925)
5(-0.003613282953 -0.002708834108 -0.005478436098 -0.004458196433 -0.00758024723)
5(-0.003570851192 -0.002778281483 -0.005342247465 -0.004479567156 -0.007342944781)
5(-0.003422419055 -0.002696456088 -0.004993449535 -0.00429355451 -0.006734826859)
5(-0.003252707472 -0.00261338707 -0.004712449104 -0.004159921072 -0.006284054132)
5(-0.003143727781 -0.002533169898 -0.004595793069 -0.004034026644 -0.006104489479)
5(-0.003057475769 -0.002471623508 -0.004459861625 -0.003939193649 -0.005972941645)
5(-0.002951996295 -0.002416696164 -0.004315440276 -0.003851698638 -0.005759652232)
5(-0.002802630447 -0.002329834356 -0.004109816203 -0.003696536375 -0.00547225208)
5(-0.002677807007 -0.002223833898 -0.003890852689 -0.003526520751 -0.005130244896)
5(-0.002521211817 -0.002127448359 -0.003655308311 -0.003353858794 -0.00478257695)
5(-0.002376043924 -0.002022061412 -0.003434147515 -0.003183773651 -0.004462300058)
5(-0.002242942169 -0.001923731524 -0.003220574086 -0.002992304331 -0.004133687345)
5(-0.002107505782 -0.001824381951 -0.003007662341 -0.002807411383 -0.003811391444)
5(-0.001961156652 -0.001715963386 -0.00278257643 -0.002611057791 -0.003478899999)
5(-0.001822174179 -0.001606471028 -0.002554531371 -0.002409614545 -0.003156862002)
5(-0.001689176598 -0.00149183637 -0.002331593391 -0.002209438789 -0.002842316139)
5(-0.001549852906 -0.001384543308 -0.002119839306 -0.002010387295 -0.002534734223)
5(-0.001419230802 -0.001271749226 -0.001911083976 -0.001810498542 -0.002239149555)
5(-0.001288074889 -0.001158389171 -0.001711676198 -0.001624750273 -0.001969206528)
5(-0.0011598383 -0.001051045407 -0.001522026093 -0.001437937672 -0.001711338589)
5(-0.001040734379 -0.0009454590169 -0.001340933485 -0.001265847562 -0.001475125434)
5(-0.0009263999628 -0.0008417884157 -0.001171184439 -0.001109205523 -0.001264910213)
5(-0.0008192318523 -0.0007450775588 -0.001021474279 -0.000961644029 -0.001081589814)
5(-0.0007186604849 -0.00065638413 -0.0008822587452 -0.0008308790416 -0.00092188273)
5(-0.0006292359023 -0.0005760747523 -0.0007620778542 -0.0007166968936 -0.0007860275469)
5(-0.0005477185162 -0.0005016806481 -0.0006594592252 -0.0006221699926 -0.0006795708302)
5(-0.0004784613746 -0.0004393362796 -0.0005734967861 -0.0005447742389 -0.0005912768133)
5(-0.0004180908239 -0.0003865796345 -0.0005040286475 -0.0004835157823 -0.0005279548373)
5(-0.0003686442186 -0.0003445127812 -0.0004498916535 -0.0004370439104 -0.0004783247573)
5(-0.0003293910852 -0.0003119543268 -0.0004085645794 -0.0004021039379 -0.0004452778503)
5(-0.0002987042057 -0.000286705168 -0.0003777566901 -0.0003783934041 -0.0004225668694)
5(-0.0002751026625 -0.0002693056321 -0.0003567731405 -0.0003618881582 -0.0004071871216)
5(-0.0002588578927 -0.0002572939857 -0.0003411796276 -0.0003507862882 -0.0003950352635)
5(-0.0002448584201 -0.0002497921975 -0.0003300810423 -0.0003432203341 -0.0003862487848)
5(-0.0002363229653 -0.0002454153122 -0.0003224148838 -0.0003381749114 -0.0003775896636)
5(-0.0002298256469 -0.0002429184492 -0.0003168486233 -0.0003330571349 -0.0003682826193)
5(-0.0002246795446 -0.0002433281359 -0.0003127299418 -0.0003282448546 -0.0003617776292)
5(-0.0002210905098 -0.0002427215126 -0.0003091504236 -0.0003244000491 -0.0003561531187)
5(-0.0002174599261 -0.0002446790074 -0.0003070980322 -0.000321078285 -0.0003523455438)
5(-0.0002147204239 -0.0002450056964 -0.0003035864782 -0.0003188104366 -0.0003468932872)
5(-0.0002110457573 -0.0002468374995 -0.0003002308463 -0.0003173173774 -0.0003377112026)
5(-0.0002075996945 -0.0002499405851 -0.0002967383899 -0.0003149154494 -0.000323943911)
5(-0.0002046237789 -0.0002497925752 -0.0002934976528 -0.0003101086134 -0.0003068067395)
5(-0.0002012369677 -0.0002481420691 -0.0002898290725 -0.0003010630335 -0.0002872801909)
5(-0.0001958976959 -0.0002444980685 -0.0002863670044 -0.0002870858889 -0.0002650214826)
5(-0.0001891631989 -0.0002407252862 -0.0002790995882 -0.0002693399902 -0.0002404456941)
5(-0.0001768907363 -0.0002339064559 -0.0002671746293 -0.0002479746212 -0.0002138085718)
5(-0.0001648579849 -0.0002244908381 -0.0002500314736 -0.0002233420701 -0.0001859617743)
5(-0.0001470464111 -0.0002112991256 -0.0002275934455 -0.0001963485996 -0.0001586883759)
5(-0.0001268961736 -0.0001922890615 -0.0002017781745 -0.0001684417699 -0.0001324468128)
5(-0.0001043177951 -0.0001676582482 -0.0001730673156 -0.000140455086 -0.0001082550283)
5(-8.114900224e-05 -0.0001398555937 -0.0001431594685 -0.0001137100106 -8.560401995e-05)
5(-5.740434166e-05 -0.0001085702901 -0.00011320376 -8.839610051e-05 -6.576669288e-05)
5(-3.184013251e-05 -7.740140367e-05 -8.459209196e-05 -6.538613151e-05 -4.854374626e-05)
5(-5.457657625e-06 -4.692868436e-05 -5.765920726e-05 -4.511404188e-05 -3.364195136e-05)
5(2.396372059e-05 -1.702929065e-05 -3.272533874e-05 -2.697548344e-05 -2.090956389e-05)
5(6.769298298e-05 1.536782702e-05 -9.10755384e-06 -1.037517126e-05 -9.82527858e-06)
5(0.0001489375513 9.851333364e-05 3.817047449e-05 1.860066687e-05 1.114994755e-05)
)


60
(
5(-0.0008268477666 0.0003632737042 -0.001292940406 -0.0006516749665 -0.002101207372)
5(-0.00215206155 -0.0006669290097 -0.002904420348 -0.001866417592 -0.004214854648)
5(-0.002534140812 -0.001092675387 -0.00342597535 -0.002415597187 -0.004909583778)
5(-0.0025278956 -0.001178550853 -0.00341498981 -0.002541994873 -0.004910763484)
5(-0.00237333358 -0.001154969461 -0.00320353097 -0.002506751365 -0.004625171624)
5(-0.002224085741 -0.001131167214 -0.003041277485 -0.002491903171 -0.004446964681)
5(-0.002118984657 -0.001126455747 -0.002976315119 -0.002492236578 -0.004396113728)
5(-0.002036043608 -0.001118399284 -0.002920694528 -0.00250879583 -0.004364957601)
5(-0.001940692234 -0.001110377434 -0.002840566978 -0.00249541423 -0.004275562153)
5(-0.001837820375 -0.00109024148 -0.002735490328 -0.002462953105 -0.00409712437)
5(-0.001735902986 -0.001074163362 -0.002606720665 -0.002404836251 -0.003900977701)
5(-0.00163172682 -0.001055848205 -0.002484734392 -0.00234380958 -0.003707196966)
5(-0.001528561835 -0.001028515506 -0.00236279925 -0.002266209322 -0.003509930389)
5(-0.001432439221 -0.001006958329 -0.002237626555 -0.002182928536 -0.003301484182)
5(-0.001346178999 -0.000979697081 -0.00210790528 -0.002088416246 -0.00308166016)
5(-0.001263702593 -0.0009518936703 -0.001976932353 -0.001981416577 -0.002853465073)
5(-0.001169344444 -0.0009211525844 -0.001843895079 -0.001862233445 -0.002618825166)
5(-0.001086609644 -0.0008823520829 -0.001708956718 -0.001730870084 -0.002386470771)
5(-0.001000742765 -0.0008354388782 -0.001565508278 -0.001602944028 -0.002155781407)
5(-0.0009174526413 -0.0007880330258 -0.001428398326 -0.001462691201 -0.001923497182)
5(-0.0008433434504 -0.0007315871028 -0.001288319114 -0.001324105744 -0.001703613583)
5(-0.0007573782949 -0.0006707634866 -0.001154902606 -0.001188717679 -0.001494099175)
5(-0.000674186896 -0.0006099354957 -0.001021527721 -0.001049402921 -0.00129421337)
5(-0.0005997681328 -0.0005492109282 -0.0008934572882 -0.000918216966 -0.001110302528)
5(-0.0005284415189 -0.0004850996626 -0.0007729540017 -0.0007958583962 -0.0009440757393)
5(-0.0004562455784 -0.000421885019 -0.0006646978117 -0.0006830603395 -0.0008014431871)
5(-0.0003901001172 -0.0003648684198 -0.0005671884518 -0.0005831858769 -0.00067444315)
5(-0.0003309848045 -0.0003097353343 -0.0004800090768 -0.0004948627679 -0.0005694762701)
5(-0.0002761287528 -0.0002610560486 -0.0004063418506 -0.000422511125 -0.0004838827891)
5(-0.0002286364805 -0.0002190722215 -0.0003443996995 -0.0003620086202 -0.0004166491935)
5(-0.000188670305 -0.0001833991876 -0.0002951187166 -0.0003156099399 -0.0003664109105)
5(-0.0001563305149 -0.0001550937748 -0.0002565452855 -0.0002800228801 -0.0003287586722)
5(-0.000130126869 -0.0001336673142 -0.0002275070004 -0.00025471514 -0.0003042804715)
5(-0.0001097217484 -0.0001168361397 -0.0002076040291 -0.0002372069066 -0.0002876825988)
5(-9.438423287e-05 -0.0001059859258 -0.0001938810351 -0.0002259288814 -0.0002772461654)
5(-8.417194966e-05 -9.936644338e-05 -0.0001845760798 -0.0002189183895 -0.0002697135659)
5(-7.528896944e-05 -9.539710479e-05 -0.0001787425621 -0.0002148389402 -0.0002653352635)
5(-6.864103738e-05 -9.347954012e-05 -0.0001753922112 -0.0002130066334 -0.0002617286383)
5(-6.319091824e-05 -9.341211061e-05 -0.000174168757 -0.0002121696675 -0.0002602103413)
5(-5.817742825e-05 -9.401260338e-05 -0.0001737177321 -0.000212775647 -0.0002611703792)
5(-5.376078672e-05 -9.552045613e-05 -0.000174068957 -0.0002142750604 -0.0002621380801)
5(-4.757236692e-05 -9.639702652e-05 -0.0001751447058 -0.0002166996732 -0.0002630347168)
5(-4.141301165e-05 -9.810641986e-05 -0.0001760454428 -0.0002205073984 -0.0002618706889)
5(-3.456428163e-05 -9.997278399e-05 -0.0001772871147 -0.0002240431507 -0.0002578330109)
5(-2.706540971e-05 -0.0001017836795 -0.0001796385291 -0.0002260493573 -0.0002510572868)
5(-2.009701674e-05 -0.0001019451652 -0.0001817255825 -0.0002256322859 -0.0002417928021)
5(-1.259533732e-05 -0.0001006352883 -0.0001833807514 -0.0002212644595 -0.0002300442888)
5(-5.263445565e-06 -9.836396402e-05 -0.0001828772837 -0.0002133613282 -0.0002154617265)
5(4.143123339e-06 -9.579413923e-05 -0.0001784495329 -0.0002025276332 -0.0001977397966)
5(1.548826871e-05 -8.97776325e-05 -0.0001700116238 -0.0001877067646 -0.0001775223402)
5(2.91129867e-05 -8.152662802e-05 -0.0001568544509 -0.0001691198971 -0.0001553010761)
5(4.541602169e-05 -6.922835543e-05 -0.0001390813894 -0.0001478204513 -0.0001328158774)
5(6.356836944e-05 -5.320618279e-05 -0.0001182779645 -0.0001247787133 -0.0001103719701)
5(8.253161222e-05 -3.33017323e-05 -9.511102273e-05 -0.0001012586685 -8.890863767e-05)
5(0.0001017131343 -1.200873213e-05 -7.053558606e-05 -7.775618107e-05 -6.843625776e-05)
5(0.0001191186663 1.036597534e-05 -4.572231375e-05 -5.522325999e-05 -4.996324444e-05)
5(0.0001355626135 3.297007252e-05 -2.18012749e-05 -3.430813789e-05 -3.340393311e-05)
5(0.000153408983 5.573078256e-05 1.643183504e-06 -1.492792848e-05 -1.85730496e-05)
5(0.0001905398287 9.242006271e-05 3.089724803e-05 4.883752606e-06 -4.832709813e-06)
5(0.0002280446053 0.0001379607072 8.246638212e-05 3.925646838e-05 2.555772864e-05)
)


60
(
5(-0.0003782942757 0.0008590321627 -0.000616231639 4.35664053e-05 -0.001334788173)
5(-0.001525452565 -1.906258243e-06 -0.001813306742 -0.0009099036792 -0.002922680556)
5(-0.001908093411 -0.0003687441672 -0.002286074109 -0.001439859173 -0.003584176943)
5(-0.001903222937 -0.0004651205404 -0.002345037186 -0.001620836672 -0.003681760002)
5(-0.001775702983 -0.0004807826586 -0.002248352134 -0.001671356944 -0.003607366117)
5(-0.001650878806 -0.0004931583966 -0.002161410293 -0.001712883419 -0.003569906678)
5(-0.001563886759 -0.0005050948008 -0.002132833624 -0.001784601538 -0.003601270525)
5(-0.001492889426 -0.0005304105543 -0.002122443842 -0.00185408708 -0.003625218295)
5(-0.001426229657 -0.0005534666715 -0.002085706482 -0.001893576435 -0.00358701658)
5(-0.001352062932 -0.0005745056444 -0.002037833264 -0.001907712605 -0.003492795842)
5(-0.001274979348 -0.0005934955942 -0.001971026529 -0.00191490519 -0.003383712862)
5(-0.001206471264 -0.0006125869381 -0.00190937679 -0.001909478133 -0.003252625814)
5(-0.001143790049 -0.0006309815524 -0.001843460592 -0.001885323004 -0.003112815357)
5(-0.001084206444 -0.0006462860875 -0.001775333209 -0.001845832725 -0.002967737661)
5(-0.001022286924 -0.0006596955101 -0.001697078537 -0.001798196392 -0.002795109053)
5(-0.0009698279485 -0.00066398172 -0.001613432322 -0.001734427503 -0.002619194706)
5(-0.0009177716466 -0.0006650476878 -0.001523905604 -0.001652373652 -0.002425810238)
5(-0.0008588090345 -0.0006565672811 -0.001430721666 -0.001561572584 -0.002225572636)
5(-0.0008072663387 -0.0006400997784 -0.001330355912 -0.001456215407 -0.002030305439)
5(-0.0007484375358 -0.0006178237381 -0.001226093978 -0.001347615941 -0.001828318794)
5(-0.000689531989 -0.0005866752026 -0.001115892062 -0.001228555333 -0.001630452186)
5(-0.000632697669 -0.0005474390624 -0.001006990318 -0.001108143446 -0.001436698923)
5(-0.0005709340309 -0.000504440999 -0.0008955638941 -0.0009850463696 -0.001250699221)
5(-0.0005076250548 -0.0004562528942 -0.0007888047411 -0.0008656337543 -0.001079003893)
5(-0.0004446105144 -0.0004045369265 -0.0006835377559 -0.0007504099613 -0.0009170706312)
5(-0.0003845482191 -0.0003510672236 -0.0005847604856 -0.000642916697 -0.0007746348208)
5(-0.0003254063228 -0.0002983940851 -0.0004943617974 -0.0005450832077 -0.0006491789809)
5(-0.0002696121298 -0.0002491418654 -0.0004138571143 -0.0004578096396 -0.0005414687102)
5(-0.0002196100368 -0.0002034575198 -0.0003425688157 -0.0003837069995 -0.000454243305)
5(-0.00017376856 -0.0001623571292 -0.0002821149129 -0.0003217499509 -0.0003818598094)
5(-0.0001343768162 -0.0001273798079 -0.0002330770398 -0.0002716543746 -0.000326442564)
5(-0.0001019374621 -9.8345043e-05 -0.0001942576919 -0.0002325270806 -0.0002842150065)
5(-7.487103517e-05 -7.54245868e-05 -0.0001630496179 -0.0002027358611 -0.0002533536127)
5(-5.364142226e-05 -5.71658219e-05 -0.0001406265764 -0.0001819128186 -0.0002328856357)
5(-3.659365631e-05 -4.399802552e-05 -0.000124243223 -0.0001671724164 -0.0002192198875)
5(-2.355413707e-05 -3.430627436e-05 -0.0001129572838 -0.0001571783196 -0.0002096874357)
5(-1.312668009e-05 -2.769613564e-05 -0.0001056329128 -0.0001509037787 -0.0002036699585)
5(-4.111125722e-06 -2.292981838e-05 -0.0001004039503 -0.000147046072 -0.0002005535835)
5(4.164053284e-06 -1.965393715e-05 -9.729100133e-05 -0.0001453476886 -0.0001992014294)
5(1.232663319e-05 -1.699785486e-05 -9.533715087e-05 -0.0001449620085 -0.0002008169602)
5(2.12441953e-05 -1.45436266e-05 -9.407903051e-05 -0.0001463652408 -0.0002035091287)
5(3.061813414e-05 -1.206673559e-05 -9.400141999e-05 -0.0001490229326 -0.0002064677116)
5(4.14437706e-05 -9.242103907e-06 -9.367133396e-05 -0.000152776912 -0.0002081336443)
5(5.262252554e-05 -6.895724103e-06 -9.436195344e-05 -0.0001575410446 -0.0002084409375)
5(6.388348943e-05 -3.683918293e-06 -9.521018284e-05 -0.0001617200453 -0.0002070755799)
5(7.438981157e-05 -5.069915181e-07 -9.719929197e-05 -0.000164629763 -0.0002044279621)
5(8.444794433e-05 2.988725926e-06 -9.826058557e-05 -0.0001654746013 -0.0001993844589)
5(9.367555101e-05 8.042477551e-06 -9.840160879e-05 -0.000162863184 -0.0001917900556)
5(0.0001011696476 1.382738346e-05 -9.656879311e-05 -0.0001575150141 -0.0001811332484)
5(0.0001122201044 2.078830811e-05 -9.065485901e-05 -0.0001489281604 -0.0001671633089)
5(0.0001224955315 2.815307066e-05 -8.119626206e-05 -0.0001361398032 -0.0001496699789)
5(0.0001350483418 3.899645564e-05 -6.797277313e-05 -0.0001194560218 -0.0001306682255)
5(0.0001497354019 5.184503882e-05 -5.090483198e-05 -0.0001001224616 -0.0001100805233)
5(0.00016708674 6.778031546e-05 -3.163749878e-05 -7.858856313e-05 -8.891282335e-05)
5(0.0001842239236 8.434982173e-05 -1.107267334e-05 -5.659325679e-05 -6.789718651e-05)
5(0.0002023422235 0.0001019117851 1.00495521e-05 -3.445853845e-05 -4.759370962e-05)
5(0.000218771817 0.0001190099405 3.144976515e-05 -1.251461542e-05 -2.90427927e-05)
5(0.0002361512743 0.0001368686451 5.277765616e-05 8.100706531e-06 -1.177499323e-05)
5(0.0002705263086 0.0001694143892 8.818272289e-05 3.327591904e-05 5.877130818e-06)
5(0.0002767845926 0.0001914620604 0.000132437663 7.076943473e-05 3.81333247e-05)
)


60
(
5(-0.000207864839 0.0008986867152 -0.0003388044068 0.00030498669 -0.000974226989)
5(-0.001232580881 0.0001683152665 -0.001256195494 -0.0004743801573 -0.002224696914)
5(-0.001622473806 -0.0001777234879 -0.001699778777 -0.0009843098888 -0.002891412083)
5(-0.00165066177 -0.0003076074342 -0.001808501182 -0.001214307622 -0.003100866946)
5(-0.001558323248 -0.000353901841 -0.00178200916 -0.001315698139 -0.00310636998)
5(-0.001473828522 -0.00038890303 -0.001759557164 -0.001404796103 -0.003148963104)
5(-0.001421362417 -0.0004341057055 -0.001768148259 -0.00150530749 -0.0032406208)
5(-0.001381236601 -0.0004826656772 -0.001791849675 -0.001597481308 -0.003281339198)
5(-0.001345752064 -0.000523472442 -0.001788754226 -0.001668892835 -0.003290892443)
5(-0.001299809939 -0.0005721208625 -0.001776325253 -0.001718965416 -0.003236067166)
5(-0.001251894933 -0.000604687437 -0.001744032568 -0.001751146506 -0.00316272062)
5(-0.001210849615 -0.0006479245221 -0.001717556055 -0.001768275435 -0.003071917639)
5(-0.001171063231 -0.0006805269936 -0.001678566828 -0.001773765539 -0.002971528845)
5(-0.001140036504 -0.000708868515 -0.001643001138 -0.001759163117 -0.002845754325)
5(-0.001096703869 -0.0007299791667 -0.001589347479 -0.001728641993 -0.002707615298)
5(-0.001053822273 -0.0007436715078 -0.001532653404 -0.001680552045 -0.002549655712)
5(-0.001012956591 -0.0007492787602 -0.001460846152 -0.001618435796 -0.002380844405)
5(-0.0009695606874 -0.000744388425 -0.001381497408 -0.001543253189 -0.002197042987)
5(-0.0009202345438 -0.000729157233 -0.001298408623 -0.001447050952 -0.002012191936)
5(-0.000865936088 -0.0007045758514 -0.001204793517 -0.001342449556 -0.001816320234)
5(-0.0008054483876 -0.0006726112008 -0.001104858697 -0.001230493455 -0.00163155294)
5(-0.0007426828227 -0.0006285556547 -0.001001000135 -0.001115160526 -0.001446865626)
5(-0.000679321608 -0.000579809937 -0.0008967221897 -0.0009966104373 -0.001261535907)
5(-0.000608522153 -0.0005241823939 -0.0007906649333 -0.0008771490464 -0.001088863392)
5(-0.0005373424904 -0.0004654565363 -0.0006871644466 -0.0007615787567 -0.0009289448344)
5(-0.0004676456246 -0.0004057906086 -0.0005902926065 -0.0006532120212 -0.0007860966236)
5(-0.0003998273574 -0.0003470428965 -0.0004981834984 -0.0005526542588 -0.0006566130736)
5(-0.0003348991139 -0.0002890460346 -0.0004155916042 -0.0004629257098 -0.0005450386356)
5(-0.0002744392234 -0.0002367417711 -0.0003414342462 -0.000383972661 -0.0004518811406)
5(-0.0002204705652 -0.0001890210389 -0.0002778807998 -0.0003176233577 -0.0003744744445)
5(-0.0001724963241 -0.000147253242 -0.0002242809187 -0.0002626154324 -0.0003138012091)
5(-0.0001321645401 -0.0001121135296 -0.0001814318909 -0.0002193992112 -0.0002666303324)
5(-9.831857076e-05 -8.329635905e-05 -0.0001476830475 -0.0001853405723 -0.0002303461957)
5(-7.099004378e-05 -6.142302664e-05 -0.0001215651472 -0.0001596187019 -0.0002044303088)
5(-5.004170305e-05 -4.446671932e-05 -0.0001023795002 -0.0001410996669 -0.0001872904918)
5(-3.332710128e-05 -3.081173371e-05 -8.750569306e-05 -0.0001278373402 -0.0001748990558)
5(-1.907711864e-05 -2.102677035e-05 -7.714122416e-05 -0.0001187538588 -0.0001664038768)
5(-7.300949433e-06 -1.302021266e-05 -6.964868111e-05 -0.0001121956562 -0.0001612395438)
5(3.587509404e-06 -6.235495014e-06 -6.368396763e-05 -0.0001078307817 -0.0001588499644)
5(1.421874287e-05 -3.36114313e-07 -5.93062923e-05 -0.00010519415 -0.0001587696727)
5(2.530386606e-05 5.896308862e-06 -5.530979857e-05 -0.0001044891717 -0.0001608949792)
5(3.720031925e-05 1.198838081e-05 -5.190467939e-05 -0.0001050653189 -0.000163432656)
5(4.956758309e-05 1.874977484e-05 -4.927611713e-05 -0.0001070978554 -0.000165686027)