/*--------------------------------*- C++ -*----------------------------------*\
| =========                 |                                                 |
| \\      /  F ield         | OpenFOAM: The Open Source CFD Toolbox           |
|  \\    /   O peration     | Version:  2.3.1                                 |
|   \\  /    A nd           | Web:      www.OpenFOAM.org                      |
|    \\/     M anipulation  |                                                 |
\*---------------------------------------------------------------------------*/
FoamFile
{
    version     2.0;
    format      ascii;
    class       dictionary;
    location    "constant";
    object      PM29;
}
// * * * * * * * * * * * * * * * * * * * * * * * * * * * * * * * * * * * * * //

PM29_table
60
(

60
(
5(0.01550771929 0.009721770907 0.01849035458 0.01556708836 0.01772222381)
5(0.005828178599 0.004766061655 0.00924469448 0.008651855913 0.01260101152)
5(0.001725433637 0.01028850693 0.009267034932 0.004739130402 0.004467883027)
5(0.004521324904 0.010781506 0.01122371645 0.008183173628 0.02702997881)
5(0.007264616439 0.008575394097 0.007635487668 0.0104435383 0.008220347328)
5(0.008114421822 0.006260723109 0.005121482564 0.008202405458 0.008541605027)
5(0.005933073152 0.005943664294 0.007568426664 0.007635524839 0.01103938897)
5(0.00525359722 0.006592094849 0.008091025593 0.007479033031 0.005544462876)
5(0.006291306553 0.006317031092 0.007176560361 0.007315682461 0.008895272482)
5(0.00570869973 0.006315452416 0.007579333157 0.006627407187 0.008089343798)
5(0.005530853801 0.005922876077 0.006543604179 0.006422843387 0.007144350203)
5(0.005027610307 0.005649159802 0.005812829758 0.006134829139 0.006328254677)
5(0.004946523588 0.00549599557 0.00566622429 0.0057951851 0.005973171885)
5(0.004913858902 0.005136485181 0.005303519412 0.005140106499 0.005346624076)
5(0.004483290473 0.00481030677 0.004938849637 0.004968916882 0.004879365709)
5(0.004399985321 0.00458661214 0.004686465063 0.004518978981 0.004481059314)
5(0.004125990988 0.004249375912 0.004303849897 0.004157664369 0.004099964553)
5(0.00387107604 0.003961444444 0.003969544709 0.003801115036 0.00363288339)
5(0.003649746198 0.003718323877 0.00364846167 0.003435715924 0.003209849131)
5(0.003458853543 0.003456765401 0.003328709633 0.003121240721 0.002794970728)
5(0.0031661916 0.003098296732 0.00297242533 0.002698354572 0.002438521332)
5(0.002953097796 0.002859031795 0.002684188847 0.002354040373 0.002157765174)
5(0.002740658199 0.002635482244 0.00241980003 0.002196424058 0.001946310591)
5(0.002524073681 0.002433392898 0.002186846582 0.001954498452 0.001710339534)
5(0.002334466851 0.00220764974 0.002003657799 0.001784959301 0.00153457827)
5(0.002143579162 0.002015920338 0.001827248931 0.001622933817 0.00137161198)
5(0.00196816881 0.001838776919 0.00164973375 0.00148246621 0.001249077512)
5(0.00182428308 0.001712050071 0.001527695243 0.001355796369 0.001149319381)
5(0.001711128307 0.001595261133 0.001392727008 0.001244659075 0.001070656857)
5(0.001601275855 0.001498591708 0.001295709816 0.001156881014 0.00100207242)
5(0.001509871284 0.001406609303 0.001218272728 0.001086603396 0.0009219462185)
5(0.001413587958 0.001314545488 0.001127212506 0.000991367855 0.0008485265089)
5(0.001337682064 0.001251235796 0.001073102072 0.000941407724 0.0008202445317)
5(0.001275162786 0.001187455778 0.001009795265 0.0008616364211 0.0007080475352)
5(0.001208427245 0.001120138424 0.0009521028631 0.0008046151634 0.0006611381865)
5(0.001153250691 0.001068254619 0.0008930882927 0.0007348199817 0.0006145712424)
5(0.001082941275 0.0009763650142 0.0007874151044 0.0006791237573 0.000542824134)
5(0.001034012731 0.0009348677887 0.0007540869069 0.0006143024466 0.000445296235)
5(0.0009854990532 0.0008738265291 0.0007145198197 0.000573527964 0.0004013930273)
5(0.0009379491278 0.0008192950298 0.0006631693523 0.0004686696993 0.000141351564)
5(0.000870434242 0.0007487506792 0.0005861588387 0.000388782174 0.0002457166932)
5(0.000817234197 0.0006939487611 0.0005173757309 0.0002485351303 0.0002616353515)
5(0.0007673348526 0.000639034346 0.0004593673436 0.0002171262776 0.000293231078)
5(0.0007316024181 0.0006210135894 0.000461556872 0.0002493563584 0.0002721171439)
5(0.0006822540215 0.0005679107036 0.0003776552791 0.0002434217601 0.0002607995938)
5(0.0006393238906 0.0005232977074 0.000263179934 0.0002403135033 0.0002433687896)
5(0.0005887592136 0.0004000952969 0.0001729750413 0.0002554804073 0.0002291901726)
5(0.0005263407537 0.000337737104 0.0002094321202 0.0002504003297 0.0002169489009)
5(0.0005166977172 0.0002670764011 0.0002146568301 0.0002387623628 0.0002054205803)
5(0.0003768158728 0.0001689139625 0.000236156767 0.000227467737 0.0001940666354)
5(0.0002826715015 0.0002261097942 0.0002284234814 0.0002190076966 0.0001837658944)
5(0.0002428819316 0.0002506448839 0.0002206371998 0.0002106381101 0.0001740972081)
5(0.0002873489509 0.0002557125182 0.0002144489122 0.0002036601379 0.000165403002)
5(0.0003021365792 0.0002535446097 0.0002110424571 0.0001977543604 0.0001590588374)
5(0.0003116039425 0.0002536891079 0.0002098386999 0.0001949631883 0.0001528751797)
5(0.0003396355009 0.0002560073789 0.0002116646894 0.0001920830252 0.0001483845116)
5(0.0003986335293 0.0002660520524 0.000218683828 0.0001933794765 0.0001450473524)
5(0.0005007466912 0.0003109482909 0.0002354430199 0.0002063821179 0.0001392784224)
5(0.0006116250186 0.0004018785068 0.0002841187196 0.0001479795768 0.0001482592355)
5(0.0003255669282 0.000342020257 0.0002193997392 0.000207342803 0.0001863920396)
)


60
(
5(0.02315366256 0.01847830908 0.02644949815 0.02372983661 0.02654913841)
5(0.01451360374 0.01025018656 0.01649131606 0.01708244742 0.01755564826)
5(0.007104468775 0.01215281584 0.01407874612 0.01406074814 0.009886339604)
5(0.005153923034 0.01261310847 0.01564718158 0.01195957913 0.02152320483)
5(0.006687836665 0.01171298433 0.01472995574 0.01366227669 0.01666598552)
5(0.00974814169 0.01077965123 0.0106460836 0.01288215994 0.01358082977)
5(0.01032699158 0.01010148533 0.01046833705 0.01126855425 0.01455008382)
5(0.008410099317 0.009752500643 0.0111778958 0.0111913876 0.01106074498)
5(0.009264025851 0.009567446446 0.01041069473 0.01084855773 0.01148530977)
5(0.008887577872 0.009385443876 0.0106110747 0.01016688797 0.01110787985)
5(0.008728317912 0.008991548377 0.01003991995 0.009662852317 0.01044379443)
5(0.008197843077 0.008564520678 0.009148670861 0.009076331017 0.009508025977)
5(0.007588189353 0.008177031762 0.008526508038 0.008616892271 0.008863263591)
5(0.007529708984 0.007777316771 0.008042497598 0.007838780899 0.008052286781)
5(0.006966378604 0.007251111133 0.007431289406 0.007326762465 0.007344394737)
5(0.006679656862 0.006839166768 0.00695784821 0.006747481375 0.00668623052)
5(0.006305864935 0.006368667667 0.006425663284 0.006165009959 0.006064081827)
5(0.005919444045 0.005905330265 0.005900862943 0.005624653851 0.005437810594)
5(0.005512816261 0.005458696235 0.005385722023 0.005064386981 0.00483267738)
5(0.005170755867 0.005066505162 0.004918630231 0.004583885457 0.004263920224)
5(0.004768707148 0.004599240178 0.004409748239 0.004075974987 0.003746460881)
5(0.004389755192 0.004183064726 0.003973117554 0.003562424571 0.003257119198)
5(0.004057295117 0.003808193746 0.003552390119 0.003186222898 0.002866734401)
5(0.003688835372 0.003470441157 0.003176131092 0.002821862614 0.002504198809)
5(0.003370756228 0.003136813686 0.002844627783 0.002513072646 0.002202067888)
5(0.003066754309 0.002834139162 0.002560295945 0.002246858631 0.001943774624)
5(0.002794916934 0.00256306671 0.002288287868 0.002015357958 0.001733492444)
5(0.002543118231 0.00233527902 0.002074974993 0.001821201311 0.00156457325)
5(0.002342344183 0.002144169919 0.001885689928 0.001660085836 0.001430776887)
5(0.002156569603 0.00198421719 0.00173101118 0.001524902924 0.001322941236)
5(0.002005615961 0.001847517909 0.00161070915 0.001424284138 0.001237096536)
5(0.00187110532 0.001724775703 0.001499183564 0.001326934613 0.001153164623)
5(0.001754990977 0.001625087745 0.001411634219 0.001248631829 0.001095725207)
5(0.00166004632 0.001539308842 0.001337280313 0.001174220036 0.001019619072)
5(0.001577225397 0.001456586361 0.001261054685 0.001105467349 0.0009529696949)
5(0.001501157267 0.001389785209 0.001205341597 0.00104062902 0.000893244615)
5(0.001431314901 0.001305909123 0.001114986072 0.0009668527967 0.0008382153973)
5(0.001364340993 0.001244024108 0.001048799716 0.0009074678136 0.000750949081)
5(0.001302997723 0.001174660318 0.0009892997747 0.0008400461246 0.0007118943208)
5(0.001249435632 0.00111097952 0.0009343998668 0.0007809787927 0.0005886593058)
5(0.001187391484 0.001039920456 0.0008615459849 0.000713017859 0.0005352585437)
5(0.001124504697 0.0009770961692 0.0007983656823 0.000621141683 0.0004877434537)
5(0.001067641894 0.0009101230583 0.0007349705075 0.0005127756544 0.0004497769602)
5(0.0010152068 0.0008612562049 0.0007077607515 0.0004719110508 0.0004163406585)
5(0.0009665343362 0.0008069585569 0.0006421433733 0.0004365610528 0.0003896686176)
5(0.0009136162278 0.0007621669643 0.0005763733509 0.0004102110714 0.0003638597824)
5(0.0008684823456 0.0007046226894 0.0004595481715 0.0003870546561 0.0003400231624)
5(0.0008178812937 0.000628788145 0.0004097569089 0.0003659317663 0.0003187797751)
5(0.0007873973434 0.0005955147936 0.0003865233677 0.0003472635085 0.0002997471314)
5(0.0007485385888 0.0004666165937 0.000368856268 0.0003298899518 0.0002816436371)
5(0.0006964586238 0.0004430740134 0.0003539291561 0.0003158573856 0.0002654760462)
5(0.0005623763534 0.0004285138533 0.0003412220137 0.0003027086638 0.0002505328573)
5(0.0005109879791 0.0004178077521 0.0003300071653 0.0002908948444 0.0002365000585)
5(0.0004992661573 0.0004083867103 0.0003215334118 0.000280116323 0.0002251351853)
5(0.0004966506464 0.0004019129293 0.0003147356272 0.0002719702664 0.0002145619814)
5(0.0005172835583 0.0003995162558 0.0003108825366 0.0002639426396 0.0002055681211)
5(0.0005674015763 0.0004041610787 0.0003111759657 0.0002589451036 0.0001985527733)
5(0.0006246481043 0.000431860933 0.0003199428561 0.000258467456 0.0001912018825)
5(0.0006784056582 0.0004940005635 0.0003677584388 0.0002332237746 0.0001940586588)
5(0.0004059745885 0.0003168895697 0.0001750678037 0.0002044457124 0.0002140861708)
)


60
(
5(0.03344452417 0.03113870024 0.03492156764 0.03236785897 0.03378197498)
5(0.02648114173 0.02760617925 0.02835207618 0.02865210748 0.02787618651)
5(0.02387228657 0.02577685446 0.02598991845 0.02685316886 0.02625150329)
5(0.02296820922 0.02470583914 0.02520855888 0.02577607028 0.02580966136)
5(0.02250346239 0.02382714603 0.02468446439 0.02483210982 0.02536706408)
5(0.02207162257 0.02288065776 0.02385500284 0.02363336601 0.02424109619)
5(0.02129632287 0.02190154212 0.02256042256 0.02234148958 0.0226241264)
5(0.02035023017 0.02084682442 0.02126346735 0.02098754668 0.02096936848)
5(0.0194077644 0.01973821926 0.01998063758 0.01959513169 0.01943296318)
5(0.01855158716 0.01865341083 0.0187658432 0.01824801515 0.01797242912)
5(0.01758928104 0.01757007351 0.01754402784 0.01689520917 0.01652899106)
5(0.01668927966 0.01644604434 0.01631363767 0.01553835532 0.0150861132)
5(0.01571171279 0.01532220915 0.01505571523 0.01419747162 0.01364078659)
5(0.01471557315 0.0141881508 0.01380729818 0.01289404919 0.01226038662)
5(0.01369573057 0.0130625179 0.01258010098 0.0116317181 0.01093173802)
5(0.01269438332 0.01196567979 0.01139745047 0.0104199141 0.009685590029)
5(0.0116877666 0.01088698714 0.01025784219 0.009268976678 0.008515099716)
5(0.01069772711 0.009842560076 0.009167424864 0.00818676098 0.007426738375)
5(0.009729420534 0.008841634844 0.008139970069 0.007177976694 0.006427505148)
5(0.008799230616 0.007893507621 0.007176558334 0.00625128309 0.005518523376)
5(0.007907838622 0.007003144411 0.006288957837 0.005411113971 0.004711790279)
5(0.007046410308 0.006180448304 0.005482916236 0.00465639965 0.003988527491)
5(0.006250631063 0.00542576158 0.00475346186 0.003989067027 0.003367878025)
5(0.005532117848 0.004747306227 0.00410539349 0.003412596117 0.002835960059)
5(0.004869024926 0.00414284238 0.003543163719 0.002919327513 0.002394464467)
5(0.004276473136 0.003617818232 0.003060161873 0.00250440448 0.002028694136)
5(0.003755885991 0.003168145523 0.002655623839 0.002164145887 0.001738184895)
5(0.003310117286 0.002788371967 0.002322771778 0.001891684985 0.001515197872)
5(0.00293031182 0.002474004567 0.002054445066 0.001680869803 0.00134559806)
5(0.002613995665 0.002219612043 0.001843420432 0.001519174737 0.001224524397)
5(0.002359139408 0.002016759105 0.001680394923 0.001399178409 0.001137236131)
5(0.002155419155 0.001857786537 0.001556436885 0.001310317813 0.001077292684)
5(0.001993340512 0.001733202929 0.001461765778 0.001243588836 0.001034340671)
5(0.001866435482 0.001634910999 0.001387637245 0.001191091147 0.001000139521)
5(0.001765979432 0.001555540124 0.001326767236 0.00114641603 0.0009690522911)
5(0.001683086924 0.00148808667 0.001273266678 0.001104339935 0.0009386977346)
5(0.001614399777 0.001427416458 0.00122309317 0.001062248645 0.0009047841532)
5(0.00155339522 0.001370517568 0.001173109409 0.001017894286 0.000865293883)
5(0.001497583477 0.001315178702 0.001122648158 0.0009706454308 0.0008210012272)
5(0.001445040117 0.001260714302 0.001071580107 0.0009210921421 0.0007718283344)
5(0.001395434749 0.001207411396 0.00101992519 0.0008693565365 0.0007218091088)
5(0.00134888989 0.00115476064 0.0009684109987 0.0008168163314 0.0006729923392)
5(0.001305180424 0.001104392863 0.0009181867848 0.0007645325423 0.0006280039718)
5(0.001265783801 0.001056845698 0.000869137374 0.0007150440562 0.0005867378056)
5(0.00123062973 0.001013068123 0.0008216174303 0.0006697914868 0.0005486423966)
5(0.001200151341 0.0009737379741 0.0007760310194 0.0006289263959 0.0005133479735)
5(0.001174432634 0.0009377969128 0.00073318268 0.0005922793121 0.0004805404229)
5(0.001151733234 0.0009035004739 0.0006951822947 0.000559195163 0.000450445121)
5(0.001133575531 0.0008710687431 0.0006611014485 0.0005292418518 0.0004230988675)
5(0.001115621879 0.0008395176358 0.0006304268086 0.0005017434625 0.0003980222671)
5(0.001098121121 0.0008087775664 0.0006019845934 0.0004761948021 0.0003750522847)
5(0.001077893913 0.0007792461248 0.0005756119769 0.0004521223034 0.0003536481436)
5(0.001051774218 0.0007501135905 0.000550248414 0.0004297034238 0.0003337950689)
5(0.001018569682 0.0007204416225 0.0005255586992 0.0004088848556 0.0003155558985)
5(0.0009777294389 0.0006913000946 0.0005025548113 0.0003897823986 0.0002990306591)
5(0.0009333238048 0.0006625770679 0.0004805883812 0.0003718962872 0.0002843072967)
5(0.000886563699 0.0006352234389 0.0004602072019 0.0003555694672 0.0002711931874)
5(0.0008442659295 0.0006117067871 0.0004432044721 0.0003419638744 0.0002605202)
5(0.0008167444597 0.0006005449456 0.0004341493397 0.0003320298255 0.0002532016221)
5(0.0008124041009 0.0005669829013 0.0004875065484 0.0003787264572 0.0002818268095)
)


60
(
5(0.03993487548 0.03756940558 0.03928780907 0.03640187799 0.03776788961)
5(0.03312646562 0.03350163227 0.03381329889 0.03322536983 0.03289835444)
5(0.03027874962 0.03119973291 0.0313875771 0.03128065359 0.03108964459)
5(0.02889895803 0.02971995103 0.02998687638 0.02980829746 0.03004517286)
5(0.02798386085 0.02841079214 0.02881065441 0.02842176686 0.02897703063)
5(0.0269338025 0.02703146195 0.02743618575 0.0268962699 0.0274473261)
5(0.02571740154 0.02563003175 0.02583828933 0.02526690999 0.02558335565)
5(0.02441775971 0.02421238045 0.02421385997 0.0235996754 0.02370427605)
5(0.02315061075 0.0227997037 0.0226515098 0.02195858219 0.02190941284)
5(0.021888409 0.02138546225 0.02111401836 0.02033810149 0.02022114804)
5(0.02058950823 0.01995333127 0.01959623257 0.01873399832 0.01849898743)
5(0.01929969789 0.01853037263 0.0180716204 0.01714716914 0.01681882243)
5(0.01801252858 0.01711918665 0.01656478958 0.0155939741 0.0151665019)
5(0.01671076803 0.01572934414 0.01508881577 0.01409134867 0.01358132049)
5(0.01542755018 0.01436931568 0.01367233744 0.01264869593 0.01209107568)
5(0.0141612014 0.01305862595 0.0123091121 0.01127799492 0.0106747796)
5(0.01291669069 0.01179000929 0.01100407944 0.009985000132 0.009345371161)
5(0.01171081564 0.01057690162 0.009767969575 0.008777181659 0.00812641144)
5(0.01054954929 0.009427824179 0.00861604055 0.00765766597 0.007004737658)
5(0.009445932827 0.00834753339 0.007546581432 0.006631939846 0.005990782855)
5(0.008398000495 0.007341581961 0.006565791913 0.005699235644 0.005077784553)
5(0.007430089446 0.006418757764 0.005674862041 0.004871936605 0.004278762862)
5(0.006519895122 0.005580204242 0.004875940251 0.004139032917 0.003581257356)
5(0.005705489188 0.004827633857 0.004169173782 0.003497357618 0.002978095888)
5(0.004955974467 0.004163835701 0.003554061663 0.002948299917 0.002471171701)
5(0.00430400106 0.003584098609 0.003026051632 0.002486684198 0.002055906975)
5(0.003726183259 0.003092355116 0.002584876424 0.002105761206 0.001716236441)
5(0.003232164038 0.002675254506 0.002217096121 0.001798231339 0.001452389711)
5(0.002815878724 0.002331305938 0.00192118109 0.001557978956 0.001249907723)
5(0.002471414839 0.002052756091 0.001688943908 0.001374421956 0.00110320057)
5(0.00219155242 0.0018326762 0.001510405874 0.001237232339 0.0009989650896)
5(0.001971094616 0.001661191322 0.001375963523 0.001139882996 0.0009282240881)
5(0.001797399739 0.00153132468 0.001276762022 0.001070271045 0.000884150291)
5(0.001664815704 0.001433170817 0.001205531775 0.001022100319 0.0008544199459)
5(0.001565831488 0.001359268868 0.001152973377 0.0009869149221 0.0008335170064)
5(0.001493374791 0.001302617334 0.001111768032 0.0009589009305 0.0008159135766)
5(0.001434706799 0.001257321559 0.001077756481 0.000933385627 0.000798866926)
5(0.001387699447 0.001218599337 0.001046603825 0.0009072800627 0.0007772581174)
5(0.001350140115 0.001183713513 0.00101598115 0.0008794283002 0.0007507336716)
5(0.001318768305 0.001150784223 0.0009843572186 0.000848547344 0.0007197735676)
5(0.001291754531 0.001118521319 0.0009514849931 0.0008149105946 0.0006855740687)
5(0.001266016226 0.001086712724 0.0009180260332 0.000779014629 0.000650334296)
5(0.001244376642 0.00105620744 0.000884829692 0.0007421998104 0.0006164336758)
5(0.001224490276 0.001028454874 0.0008521043411 0.0007060861062 0.0005842855961)
5(0.001208707968 0.001003222957 0.0008210101751 0.0006721327395 0.0005535720473)
5(0.001196088038 0.0009807416293 0.0007900427806 0.0006411139446 0.0005244197868)
5(0.001184781095 0.0009626199445 0.0007615721717 0.0006126278969 0.0004966401233)
5(0.001176392068 0.0009463209965 0.0007364005563 0.000586657629 0.000471209255)
5(0.00117195902 0.0009318557248 0.0007142300459 0.0005627706426 0.000448193402)
5(0.001170267315 0.0009184893597 0.0006935916081 0.0005407380318 0.0004269267053)
5(0.001170887631 0.0009047654822 0.0006740737697 0.0005199976146 0.0004071851276)
5(0.001172385055 0.0008906257754 0.0006547647494 0.0005005588766 0.0003888508073)
5(0.001171257525 0.0008732318144 0.0006352383225 0.0004823077773 0.0003714603627)
5(0.001161747309 0.0008530540503 0.0006146825966 0.0004637349933 0.0003547753883)
5(0.001142997737 0.0008292523849 0.0005939470155 0.0004461962335 0.0003391443997)
5(0.001111670344 0.0008026501044 0.0005725831288 0.0004293342353 0.0003246943011)
5(0.001072391213 0.0007746978255 0.0005519724557 0.0004131565528 0.0003115284843)
5(0.00102746807 0.0007477080286 0.0005340609469 0.0003990259878 0.0003004975867)
5(0.00097125456 0.0007257727229 0.0005268909338 0.0003917838574 0.0002943372007)
5(0.0008274039951 0.0005924530503 0.0005603509002 0.0004365483228 0.0003072057648)
)


60
(
5(0.04421524634 0.04134009104 0.04160163538 0.03868214702 0.0404526416)
5(0.03726633765 0.03673824815 0.03673102057 0.03575440845 0.03618047696)
5(0.03403484051 0.03413346757 0.03417486899 0.0337424764 0.03425037018)
5(0.03231730599 0.03235963154 0.03242251585 0.03207261242 0.03286607794)
5(0.03097719832 0.03076644488 0.03087461434 0.03047188202 0.03146097683)
5(0.02957753279 0.0291313512 0.02923341059 0.02876924575 0.02973420798)
5(0.02805850607 0.02751812321 0.0274742671 0.02699949367 0.02772259821)
5(0.02653789932 0.02588173627 0.02570576708 0.02520197586 0.02572582594)
5(0.02499478927 0.02425298433 0.02398892911 0.02342278588 0.02378574359)
5(0.02350813046 0.02265175836 0.02229400395 0.02166934179 0.02190558848)
5(0.02200948366 0.02105668602 0.02061446235 0.01993033763 0.02004067821)
5(0.02052777259 0.01948075254 0.01895765589 0.01822236657 0.018199778)
5(0.01903594187 0.01792978573 0.01733985703 0.01655520077 0.0164183369)
5(0.01757522854 0.01642373469 0.01576648882 0.01494503484 0.01469609012)
5(0.0161426534 0.0149557602 0.01425367267 0.01340287703 0.01307015446)
5(0.01474499581 0.01353446957 0.01280797313 0.01194682982 0.01154590453)
5(0.0133964847 0.01218227326 0.01143801077 0.01057215936 0.01011085832)
5(0.01209638211 0.01090079843 0.01014572045 0.009287634357 0.008791474175)
5(0.0108643876 0.009689798267 0.008931282874 0.008099753679 0.007575376494)
5(0.009665290847 0.008558143225 0.007809288591 0.007008831359 0.006490237363)
5(0.008561270506 0.007511093015 0.006777633181 0.006017413552 0.005499859078)
5(0.007558154968 0.006544632382 0.005841505526 0.005131637366 0.004620427273)
5(0.006615971271 0.005671471811 0.005004216964 0.004342535852 0.003853647906)
5(0.005734072723 0.004890212786 0.004266580697 0.003651736022 0.003195722468)
5(0.004968783612 0.004198103556 0.003616742383 0.00305792934 0.002632953244)
5(0.004279929836 0.003591005725 0.003057620866 0.002552965224 0.002164714586)
5(0.003685140573 0.003061458993 0.002579990379 0.002132186379 0.001781356526)
5(0.003160612504 0.002615929948 0.002185184617 0.001789408188 0.001475241301)
5(0.002725056337 0.002245135415 0.001861507678 0.001515842022 0.001237648304)
5(0.002361103657 0.001944466829 0.001603866018 0.001304047998 0.001058667374)
5(0.002063532303 0.001704747243 0.001405022275 0.001146692269 0.0009320863889)
5(0.001824955554 0.001518692439 0.001256158287 0.001030600657 0.0008425604544)
5(0.001641303023 0.001378690474 0.00114656893 0.0009504619765 0.0007855710361)
5(0.001501208417 0.001274574436 0.001067441933 0.0008965138973 0.0007526388098)
5(0.001399353962 0.0011985717 0.001012882162 0.0008610019141 0.0007315870524)
5(0.001324234356 0.001144642368 0.0009758185963 0.0008372158551 0.0007181686773)
5(0.001269325403 0.001107139618 0.0009497116836 0.0008203352437 0.0007086019834)
5(0.001232075284 0.001079867239 0.0009294012198 0.0008057376862 0.000698714964)
5(0.001205466606 0.001058119677 0.0009110586887 0.0007907707596 0.0006839485601)
5(0.001187620403 0.001039157068 0.0008932379379 0.0007740510152 0.0006661664209)
5(0.001173597698 0.001021972675 0.0008753296815 0.0007544014524 0.0006438757283)
5(0.001162569783 0.001005721332 0.0008567084305 0.0007320442857 0.0006199723271)
5(0.001153883992 0.0009909381498 0.0008374855545 0.0007083945158 0.0005957450766)
5(0.00114592286 0.0009782578734 0.0008187820199 0.0006842146133 0.0005717432067)
5(0.00113800663 0.0009661284236 0.0008012183581 0.000660862204 0.0005483877322)
5(0.001131687996 0.0009553805983 0.0007840125654 0.0006393361927 0.0005253206368)
5(0.001125877502 0.0009472265172 0.0007685350265 0.0006195903827 0.0005030887221)
5(0.001122471055 0.0009416676172 0.0007563569479 0.000601775521 0.0004828490979)
5(0.001120434693 0.0009385024092 0.0007449746204 0.0005853669523 0.0004636732544)
5(0.001122796846 0.0009376072841 0.0007358376899 0.0005701359519 0.0004463692412)
5(0.001129448885 0.0009380176568 0.000727670704 0.0005562144695 0.0004305018193)
5(0.001139751187 0.0009375363542 0.000718374922 0.0005422831531 0.0004153502181)
5(0.001151991005 0.0009365050455 0.0007077504278 0.0005289717508 0.0004011270423)
5(0.001162244985 0.0009307775795 0.0006949364522 0.0005150401517 0.0003877131953)
5(0.001166491348 0.0009183312827 0.0006786528298 0.0005005080956 0.0003746427938)
5(0.001160347595 0.0009003550505 0.0006602868157 0.0004859900241 0.0003623996612)
5(0.001142442538 0.0008759195873 0.0006406574405 0.0004718427224 0.00035084332)
5(0.001112890698 0.0008486947708 0.0006208209086 0.0004587457184 0.0003416845763)
5(0.001039392003 0.000796869532 0.0005940932926 0.0004503652937 0.0003369248416)
5(0.0008642947318 0.0007013377583 0.0005614043538 0.000453039313 0.0003484421916)
)


60
(
5(0.04708643301 0.04365808079 0.04284767654 0.04015997712 0.04245970647)
5(0.0398548286 0.03867749298 0.03841792411 0.03739630477 0.03867107019)
5(0.03631294213 0.03583865927 0.03578381676 0.03541731634 0.03668565078)
5(0.03433922686 0.03386210412 0.03382922024 0.03367846478 0.03514881518)
5(0.03271880062 0.03208838415 0.0320881617 0.03197415166 0.03352895581)
5(0.03109392406 0.03031284011 0.03033899931 0.03018712815 0.0316572074)
5(0.0293721369 0.02856027878 0.02850224399 0.02833775748 0.02953884133)
5(0.0276738485 0.02681434304 0.02665679007 0.0264671193 0.02745103315)
5(0.0260045688 0.02506699998 0.02485262602 0.02460632552 0.02539858432)
5(0.02435448156 0.02334820987 0.0230789521 0.02276146348 0.02335839536)
5(0.02274841109 0.02167170751 0.02133119492 0.02094827662 0.02139286112)
5(0.02115569202 0.02002245639 0.01961374168 0.01916251631 0.01944318803)
5(0.01955642116 0.01841422512 0.01793244994 0.01742258406 0.01756458943)
5(0.01800051335 0.01684305777 0.0163128113 0.0157433899 0.01573282846)
5(0.01649018758 0.01532265209 0.01475010154 0.01413588849 0.01401400914)
5(0.01502869045 0.01386422954 0.01325993081 0.01261700605 0.01237755644)
5(0.01363544985 0.01247639869 0.01184607234 0.01118516509 0.01087143238)
5(0.01229230539 0.0111619465 0.01051318496 0.009840137278 0.009459889173)
5(0.01100109152 0.009917074911 0.009261297858 0.00858865799 0.008192401256)
5(0.009809406107 0.008765867144 0.008109714948 0.007442168515 0.007003042274)
5(0.008686194452 0.007698824697 0.007047827627 0.006401841618 0.005963681966)
5(0.007622265873 0.006707649271 0.006082978939 0.005461427231 0.005024663512)
5(0.006671999657 0.005808317006 0.005212498504 0.004625445688 0.004184771123)
5(0.005794444019 0.005006441484 0.004436404058 0.003888742146 0.003472020253)
5(0.005009204924 0.004284983362 0.003751662313 0.003248635202 0.002853690175)
5(0.004305798693 0.003652309655 0.003158439994 0.002701219724 0.002340422596)
5(0.003689876262 0.003097441 0.002650585708 0.002239095192 0.001903677465)
5(0.003161830024 0.002627284955 0.002226696912 0.001854963586 0.001553033787)
5(0.002712670788 0.002233617249 0.001873151211 0.001545733927 0.001281506956)
5(0.002313604631 0.001908429704 0.001586001588 0.001302936458 0.001069636682)
5(0.001997118368 0.00164547731 0.001360760047 0.001116608566 0.0009155341868)
5(0.001741606399 0.001441773305 0.001190684114 0.0009771746484 0.0008108434982)
5(0.001544526796 0.00128601436 0.001064123864 0.000879047305 0.0007300476787)
5(0.001390781775 0.001167962245 0.0009725237083 0.000813027811 0.0006844162236)
5(0.001276972951 0.001082899148 0.0009115786244 0.0007710495053 0.0006578192833)
5(0.001196186447 0.00102517126 0.0008717841084 0.0007455492082 0.0006433666401)
5(0.00114075057 0.000988155116 0.0008460777026 0.0007310689572 0.0006361774535)
5(0.00110475437 0.0009639537368 0.0008301559535 0.0007216595516 0.0006310589162)
5(0.001081824261 0.0009481468695 0.0008196914195 0.0007139366516 0.0006250799072)
5(0.001067071047 0.0009384181803 0.0008119185783 0.0007062746063 0.0006155816247)
5(0.001059424915 0.0009318730385 0.0008042090072 0.0006968153532 0.0006032556039)
5(0.001054657161 0.000926855728 0.0007965746197 0.0006852762811 0.0005893645841)
5(0.00105053044 0.0009219971962 0.0007889595014 0.0006718464913 0.0005734740849)
5(0.001048255012 0.0009171005359 0.0007804934989 0.0006582037828 0.0005578443139)
5(0.001044496338 0.0009125046395 0.000771021291 0.0006442773339 0.0005413270035)
5(0.001039274072 0.0009072888556 0.0007637966238 0.0006316471919 0.0005253318055)
5(0.001036807263 0.0009024766089 0.0007578040201 0.0006206677335 0.0005092262007)
5(0.001034362733 0.0009001994644 0.0007533139403 0.0006110757217 0.0004945288455)
5(0.001032666936 0.0009001463673 0.0007507079839 0.0006027703071 0.0004807232831)
5(0.00103324256 0.0009049317489 0.0007510928424 0.0005964788009 0.00046815586)
5(0.001038914361 0.000910839656 0.0007525412087 0.0005908286138 0.0004566688429)
5(0.001048223237 0.0009193766368 0.0007541882422 0.0005849868853 0.0004457825491)
5(0.001058092406 0.0009290986346 0.0007545217027 0.0005788064302 0.0004350823158)
5(0.001071744017 0.0009362029259 0.0007524696497 0.0005702578841 0.0004251135494)
5(0.001085863886 0.0009397682036 0.000744211698 0.0005608224319 0.0004150027525)
5(0.001100808161 0.0009374294147 0.0007317256995 0.0005495260529 0.0004050686769)
5(0.00110699248 0.0009264978448 0.0007149666076 0.0005371122047 0.0003962481991)
5(0.001105202145 0.0009065338808 0.0006932568236 0.0005237979137 0.0003880647168)
5(0.001054356064 0.0008357656494 0.0006374328742 0.000501354325 0.0003806338088)
5(0.0008709947787 0.0006978516564 0.0006045850787 0.0004840461096 0.0003874364442)
)


60
(
5(0.0490974762 0.04518959622 0.04356307655 0.04123400031 0.04402429398)
5(0.04155270273 0.03989871921 0.03946017128 0.03863997498 0.04061151361)
5(0.03773658116 0.03687410922 0.0368300407 0.03670807757 0.03861008315)
5(0.03556613183 0.0347864184 0.03479862521 0.03496774667 0.0370404393)
5(0.03378038517 0.03291031226 0.03297516603 0.03322783902 0.03529342862)
5(0.03197445838 0.03101956527 0.03115682434 0.03140954291 0.03329979138)
5(0.03016528412 0.02918498896 0.02925357159 0.02950357253 0.03113345715)
5(0.02834175612 0.0273753163 0.02736387565 0.02758697735 0.02891728647)
5(0.0265824031 0.02559104772 0.02551681991 0.02566638408 0.02677075054)
5(0.02484142496 0.0238358976 0.02372378192 0.02376707371 0.02468503399)
5(0.02316294123 0.02210430388 0.02194112016 0.02189311849 0.02261227127)
5(0.02148324466 0.0204134236 0.02019129835 0.02005508486 0.02057097158)
5(0.01986543812 0.01877465749 0.01848256736 0.01826729643 0.01859624571)
5(0.01826098223 0.01717308546 0.01682933902 0.0165401138 0.01670073842)