/*--------------------------------*- C++ -*----------------------------------*\
| =========                 |                                                 |
| \\      /  F ield         | OpenFOAM: The Open Source CFD Toolbox           |
|  \\    /   O peration     | Version:  2.3.1                                 |
|   \\  /    A nd           | Web:      www.OpenFOAM.org                      |
|    \\/     M anipulation  |                                                 |
\*---------------------------------------------------------------------------*/
FoamFile
{
    version     2.0;
    format      ascii;
    class       dictionary;
    location    "constant";
    object      PM2;
}
// * * * * * * * * * * * * * * * * * * * * * * * * * * * * * * * * * * * * * //

PM2_table
60
(

60
(
5(3.778375685e-05 4.299078137e-05 4.529859871e-05 2.188445069e-05 5.165860057e-05)
5(4.436448216e-05 3.61748971e-06 1.596385846e-05 1.160317333e-05 5.388632417e-05)
5(1.456605969e-05 -2.679415047e-06 2.839835361e-06 6.950460374e-06 4.434259608e-07)
5(9.273644537e-07 -1.243315637e-07 -5.383044481e-07 8.358620107e-08 -4.802830517e-06)
5(-5.517154932e-06 1.19023025e-06 5.531124771e-06 -1.908978447e-06 5.585839972e-06)
5(-6.347661838e-06 1.100357622e-06 2.827728167e-06 1.314794645e-06 -3.287568688e-07)
5(8.400529623e-07 4.090834409e-07 -1.583015546e-06 5.497131497e-07 1.05635263e-06)
5(8.430797607e-07 -1.860316843e-07 -8.677598089e-07 -6.71017915e-07 1.613749191e-06)
5(-1.032836735e-06 -4.274770617e-07 -2.749729902e-07 5.261972547e-08 -1.276377589e-06)
5(8.987262845e-08 -2.169981599e-07 -6.812624633e-07 1.597218215e-07 -2.612359822e-07)
5(-2.030283213e-07 1.257285476e-08 6.286427379e-07 -7.078051567e-08 2.975575626e-07)
5(3.774184734e-07 -6.961636245e-08 6.440095603e-07 -2.393499017e-07 1.387670636e-07)
5(-1.629814506e-07 -1.532025635e-07 3.981404006e-08 8.731149137e-08 5.820766091e-09)
5(-1.383014023e-07 6.426125765e-08 6.61239028e-08 1.37835741e-07 1.974403858e-07)
5(2.125743777e-07 6.61239028e-08 2.724118531e-08 -2.095475793e-07 -6.519258022e-09)
5(-1.976732165e-07 -6.356276572e-08 -1.336447895e-07 -5.052424967e-08 -1.569278538e-07)
5(-3.748573363e-08 1.140870154e-08 -2.468004823e-08 -1.261942089e-07 -1.692678779e-07)
5(1.420266926e-08 -4.097819328e-08 -3.189779818e-08 -8.335337043e-08 -4.726462066e-08)
5(-1.476146281e-07 -2.291053534e-07 -1.448206604e-07 -1.781154424e-07 2.956949174e-08)
5(-1.494772732e-07 -8.707866073e-08 -5.587935448e-09 -1.532025635e-07 5.029141903e-08)
5(-2.572778612e-08 1.047737896e-07 4.889443517e-08 4.395842552e-07 2.491287887e-07)
5(-2.166489139e-07 -8.405186236e-08 -5.168840289e-08 1.331791282e-07 2.887099981e-08)
5(-1.38534233e-07 -2.523884177e-07 -1.303851604e-08 -2.330634743e-07 -1.466833055e-07)
5(-7.508788258e-08 -2.121087164e-07 -1.096632332e-07 -1.11758709e-07 -2.514570951e-08)
5(-1.604203135e-07 -5.005858839e-08 -2.421438694e-07 -2.607703209e-07 -4.58676368e-08)
5(-1.409789547e-07 1.65309757e-08 -5.12227416e-08 -2.084998414e-07 2.817250788e-08)
5(-9.569339454e-08 -1.629814506e-08 6.752088666e-09 -8.090864867e-08 3.911554813e-08)
5(-2.012820914e-07 -1.444714144e-07 -4.644971341e-08 4.773028195e-08 4.21423465e-08)
5(-2.789311111e-07 -2.360902727e-07 7.927883416e-08 2.310844138e-07 1.050066203e-07)
5(-2.431916073e-07 -2.461019903e-07 -9.4412826e-08 6.076879799e-08 1.135049388e-07)
5(-2.470333129e-07 -1.167645678e-07 -1.513399184e-08 1.324806362e-07 4.639150575e-07)
5(-1.433072612e-07 -8.835922927e-08 4.097819328e-08 2.634478733e-07 1.559965312e-07)
5(-1.749722287e-07 -1.975568011e-07 -1.731095836e-07 1.356238499e-07 2.086162567e-07)
5(-2.383021638e-07 -1.24797225e-07 -5.459878594e-08 1.745065674e-07 5.897600204e-07)
5(-2.098968253e-07 -1.955777407e-07 -2.125743777e-07 9.557697922e-08 1.977896318e-07)
5(-1.79046765e-07 1.28056854e-09 2.229353413e-07 3.359746188e-07 2.072192729e-07)
5(-1.597218215e-07 2.863816917e-08 5.319016054e-07 2.862652764e-07 1.183594577e-06)
5(-1.910375431e-07 -1.371372491e-07 -3.876630217e-08 2.32947059e-07 3.816094249e-07)
5(-3.377208486e-07 -3.166496754e-08 -2.222368494e-07 2.468004823e-07 2.888846211e-06)
5(-2.585002221e-07 9.988434613e-08 2.202577889e-07 4.288740456e-07 3.471664968e-06)
5(1.036096364e-08 2.066371962e-07 5.820766091e-07 1.937383786e-06 3.847526386e-08)
5(3.218883649e-08 2.857996151e-07 5.688052624e-07 4.782952601e-06 3.085006028e-08)
5(-5.960464478e-08 1.512235031e-07 -3.343448043e-07 2.490356565e-06 -1.743901521e-07)
5(-7.11879693e-08 9.092036635e-08 -1.598382369e-07 -1.478474587e-08 -9.452924132e-08)
5(1.874868758e-07 1.873704605e-07 1.512933522e-06 -7.747439668e-08 2.409797162e-08)
5(3.665336408e-07 4.465691745e-07 4.938425263e-06 -1.364387572e-07 -1.124572009e-07)
5(5.030888133e-07 1.970096491e-06 4.252651706e-06 -1.430744305e-07 -2.029119059e-07)
5(5.005276762e-07 1.346401405e-06 9.690411389e-07 -1.779990271e-07 -2.917367965e-07)
5(4.140892997e-07 4.655565135e-06 -1.92085281e-08 -2.46334821e-07 -3.731111065e-07)
5(1.587715815e-06 3.665569238e-06 -2.025044523e-07 -3.627501428e-07 -4.89060767e-07)
5(5.650203093e-06 -9.266659617e-08 -2.7945498e-07 -5.111796781e-07 -6.568152457e-07)
5(4.218250979e-06 -3.121676855e-07 -3.757304512e-07 -6.500631571e-07 -8.426140994e-07)
5(8.948263712e-07 -4.073372111e-07 -5.33182174e-07 -8.286442608e-07 -1.118751243e-06)
5(-2.231099643e-07 -5.032052286e-07 -7.233466022e-07 -1.105305273e-06 -1.464271918e-06)
5(-8.119968697e-07 -6.891787052e-07 -9.415671229e-07 -1.410953701e-06 -1.807406079e-06)
5(-1.854728907e-06 -9.771320038e-07 -1.24447979e-06 -1.753855031e-06 -2.228713129e-06)
5(-2.691376721e-06 -1.73621811e-06 -1.726439223e-06 -2.332846634e-06 -2.541521098e-06)
5(-2.935848897e-06 -3.082212061e-06 -2.947752364e-06 -1.038599294e-06 -3.025634214e-06)
5(-3.042747267e-06 -5.238885933e-06 -6.227612175e-06 -6.135203876e-06 -6.536021829e-06)
5(4.545436241e-07 8.147908375e-07 4.979083315e-07 5.948822945e-07 -4.642643034e-06)
)


60
(
5(1.186411828e-05 -8.908100426e-07 1.74929155e-05 7.396098226e-06 2.196014975e-05)
5(5.764421076e-06 -5.811452866e-07 8.161412552e-06 3.883149475e-06 1.031253487e-05)
5(1.108041033e-06 -6.831251085e-07 1.984415576e-06 8.568167686e-07 1.955311745e-06)
5(-3.960449249e-07 -8.391216397e-07 -9.667128325e-07 -5.080364645e-07 -8.083879948e-07)
5(-1.199543476e-06 -8.884817362e-07 -1.811422408e-06 -9.888317436e-07 -1.860316843e-06)
5(-1.409789547e-06 -7.483176887e-07 -1.060310751e-06 -7.746275514e-07 -1.238659024e-06)
5(-7.972121239e-07 -5.466863513e-07 -4.400499165e-07 -4.211906344e-07 -4.542525858e-07)
5(-3.33879143e-07 -4.069879651e-07 -1.65309757e-07 -2.256128937e-07 -1.676380634e-08)
5(-3.699678928e-07 -3.948807716e-07 -1.676380634e-07 -2.279412001e-07 -5.33182174e-08)
5(-4.51458618e-07 -4.409812391e-07 -3.280583769e-07 -3.094319254e-07 -2.498272806e-07)
5(-5.080364645e-07 -4.339963198e-07 -4.272442311e-07 -3.329478204e-07 -3.636814654e-07)
5(-5.268957466e-07 -4.121102393e-07 -4.221219569e-07 -3.122258931e-07 -3.247987479e-07)
5(-4.505272955e-07 -3.911554813e-07 -3.552995622e-07 -3.00584361e-07 -2.514570951e-07)
5(-4.195608199e-07 -3.622844815e-07 -3.068707883e-07 -2.69850716e-07 -2.121087164e-07)
5(-4.069879651e-07 -3.571622074e-07 -3.012828529e-07 -2.454034984e-07 -1.946464181e-07)
5(-4.067551345e-07 -3.632158041e-07 -3.185123205e-07 -2.502929419e-07 -1.930166036e-07)
5(-3.990717232e-07 -3.585591912e-07 -3.154855222e-07 -2.456363291e-07 -1.92085281e-07)
5(-4.08384949e-07 -3.473833203e-07 -3.012828529e-07 -2.381857485e-07 -1.795124263e-07)
5(-4.048924893e-07 -3.394670784e-07 -2.859160304e-07 -2.342276275e-07 -1.720618457e-07)
5(-4.027970135e-07 -3.445893526e-07 -2.789311111e-07 -2.169981599e-07 -1.492444426e-07)
5(-3.958120942e-07 -3.373716027e-07 -2.62632966e-07 -1.976732165e-07 -1.196749508e-07)
5(-3.883615136e-07 -3.257300705e-07 -2.486631274e-07 -1.699663699e-07 -1.064036041e-07)
5(-4.016328603e-07 -3.189779818e-07 -2.442393452e-07 -1.35274604e-07 -8.568167686e-08)
5(-3.97558324e-07 -3.126915544e-07 -2.267770469e-07 -1.252628863e-07 -6.030313671e-08)
5(-3.933673725e-07 -3.022141755e-07 -2.251472324e-07 -1.327134669e-07 -4.400499165e-08)
5(-3.960449249e-07 -2.866145223e-07 -2.193264663e-07 -1.242151484e-07 -2.165324986e-08)
5(-3.862660378e-07 -2.79629603e-07 -1.834705472e-07 -9.883660823e-08 6.752088666e-09)
5(-3.77651304e-07 -2.819579095e-07 -1.72178261e-07 -6.50761649e-08 1.979060471e-08)
5(-3.819586709e-07 -2.640299499e-07 -1.556472853e-07 -4.249159247e-08 4.21423465e-08)
5(-3.782333806e-07 -2.483138815e-07 -1.364387572e-07 -2.235174179e-08 6.787013263e-08)
5(-3.714812919e-07 -2.420274541e-07 -1.164153218e-07 -4.773028195e-09 8.498318493e-08)
5(-3.649620339e-07 -2.331798896e-07 -1.027947292e-07 1.722946763e-08 1.234002411e-07)
5(-3.594905138e-07 -2.263113856e-07 -9.604264051e-08 3.958120942e-08 1.5553087e-07)
5(-3.516906872e-07 -2.223532647e-07 -8.195638657e-08 6.309710443e-08 1.939479262e-07)
5(-3.546010703e-07 -2.153683454e-07 -6.926711649e-08 8.335337043e-08 2.22120434e-07)
5(-3.470340744e-07 -2.083834261e-07 -6.263144314e-08 1.169973984e-07 2.359738573e-07)
5(-3.413297236e-07 -1.959269866e-07 -3.387685865e-08 1.506414264e-07 2.429587767e-07)
5(-3.427267075e-07 -1.828884706e-07 -8.26548785e-09 1.647276804e-07 3.121094778e-07)
5(-3.2375101e-07 -1.706648618e-07 2.037268132e-08 2.137385309e-07 4.803296179e-07)
5(-3.058812581e-07 -1.461012289e-07 7.438939065e-08 2.888264135e-07 6.703194231e-07)
5(-2.651358955e-07 -1.158332452e-07 1.190928742e-07 4.153698683e-07 9.058276191e-07)
5(-2.265442163e-07 -7.590278983e-08 1.494772732e-07 6.132759154e-07 1.069740392e-06)
5(-1.754960977e-07 4.95929271e-08 2.145534381e-07 8.032657206e-07 1.151463948e-06)
5(-7.456401363e-08 1.193839125e-07 3.144959919e-07 1.035630703e-06 1.187319867e-06)
5(5.570473149e-08 1.827720553e-07 5.508773029e-07 1.211999916e-06 1.206295565e-06)
5(2.165907063e-07 2.855085768e-07 8.749193512e-07 1.305248588e-06 1.228298061e-06)
5(3.905151971e-07 4.667672329e-07 1.115549821e-06 1.33854337e-06 1.225736924e-06)
5(5.785259418e-07 7.443013601e-07 1.307111233e-06 1.347041689e-06 1.155596692e-06)
5(8.113565855e-07 1.122127287e-06 1.454434823e-06 1.328007784e-06 1.008098479e-06)
5(1.116655767e-06 1.394597348e-06 1.534819603e-06 1.269392669e-06 8.008209988e-07)
5(1.5120022e-06 1.685577445e-06 1.569394954e-06 1.146458089e-06 5.221809261e-07)
5(1.842621714e-06 1.845881343e-06 1.53912697e-06 9.516952559e-07 2.041342668e-07)
5(2.220098395e-06 1.93080632e-06 1.459207851e-06 6.971531548e-07 -1.902808435e-07)
5(2.658867743e-06 1.951644663e-06 1.339823939e-06 3.498280421e-07 -6.835325621e-07)
5(3.042281605e-06 1.937733032e-06 1.173873898e-06 -8.422648534e-08 -1.233827788e-06)
5(3.375898814e-06 1.947890269e-06 9.564100765e-07 -5.723850336e-07 -1.866661478e-06)
5(3.628098057e-06 1.927342964e-06 7.000053301e-07 -1.148961019e-06 -2.563727321e-06)
5(3.53451469e-06 1.877444447e-06 3.97558324e-07 -1.841355697e-06 -3.243010724e-06)
5(2.049200702e-06 2.04727985e-06 1.854641596e-06 3.388267942e-07 -3.510416718e-06)
5(-1.412397251e-05 -1.348054502e-05 -1.870346023e-05 -1.222832361e-05 -9.415962268e-06)
)


60
(
5(5.435664207e-06 -4.980713129e-06 1.275597606e-05 5.187815987e-06 1.728232019e-05)
5(2.789543942e-06 -3.611203283e-06 6.709014997e-06 2.848682925e-06 9.418814443e-06)
5(2.980232239e-08 -2.32970342e-06 8.654315025e-07 5.192123353e-08 2.146465704e-06)
5(-1.909676939e-06 -1.932261512e-06 -1.899432391e-06 -1.387204975e-06 -1.384876668e-06)
5(-2.885935828e-06 -1.872889698e-06 -2.631219104e-06 -1.788139343e-06 -2.560671419e-06)
5(-2.553453669e-06 -1.617940143e-06 -2.012122422e-06 -1.456821337e-06 -2.000015229e-06)
5(-1.652166247e-06 -1.295935363e-06 -1.128064469e-06 -9.671784937e-07 -9.390059859e-07)
5(-1.124339178e-06 -1.119915396e-06 -6.819609553e-07 -7.043126971e-07 -4.002358764e-07)
5(-1.047505066e-06 -1.040985808e-06 -6.544869393e-07 -6.81146048e-07 -4.465691745e-07)
5(-1.112115569e-06 -1.018168405e-06 -8.132774383e-07 -7.471535355e-07 -6.550690159e-07)
5(-1.14494469e-06 -9.861541912e-07 -9.080395103e-07 -7.679918781e-07 -7.274793461e-07)
5(-1.130742021e-06 -9.471550584e-07 -8.861534297e-07 -7.307389751e-07 -6.885966286e-07)
5(-1.052161679e-06 -9.074574336e-07 -8.079223335e-07 -6.768386811e-07 -5.938345566e-07)
5(-9.739305824e-07 -8.611241356e-07 -7.416820154e-07 -6.271293387e-07 -5.239853635e-07)
5(-9.294599295e-07 -8.301576599e-07 -7.101334631e-07 -5.981419235e-07 -4.938337952e-07)
5(-9.234063327e-07 -8.058268577e-07 -7.018679753e-07 -5.883630365e-07 -4.866160452e-07)
5(-9.231735021e-07 -7.897615433e-07 -6.903428584e-07 -5.768379197e-07 -4.698522389e-07)
5(-9.012874216e-07 -7.819617167e-07 -6.74277544e-07 -5.578622222e-07 -4.48198989e-07)
5(-8.892966434e-07 -7.663620636e-07 -6.54370524e-07 -5.421461537e-07 -4.299217835e-07)
5(-8.654315025e-07 -7.562339306e-07 -6.270129234e-07 -5.19445166e-07 -4.07686457e-07)
5(-8.653150871e-07 -7.478520274e-07 -6.046611816e-07 -4.788162187e-07 -3.746245056e-07)
5(-8.633360267e-07 -7.312046364e-07 -5.906331353e-07 -4.525063559e-07 -3.431341611e-07)
5(-8.468632586e-07 -7.139751688e-07 -5.813781172e-07 -4.282337613e-07 -3.236345947e-07)
5(-8.395290934e-07 -6.987247616e-07 -5.636829883e-07 -4.041939974e-07 -3.001769073e-07)
5(-8.383067325e-07 -6.867921911e-07 -5.455221981e-07 -4.029716365e-07 -2.726446837e-07)
5(-8.413917385e-07 -6.718328223e-07 -5.243346095e-07 -3.91388312e-07 -2.56288331e-07)
5(-8.23114533e-07 -6.71017915e-07 -5.167094059e-07 -3.779132385e-07 -2.402812243e-07)
5(-8.337083273e-07 -6.666523404e-07 -5.038455129e-07 -3.506720532e-07 -2.234592102e-07)
5(-8.415372577e-07 -6.520422176e-07 -4.920293577e-07 -3.304157872e-07 -2.103333827e-07)
5(-8.385104593e-07 -6.662448868e-07 -4.937755875e-07 -3.262248356e-07 -1.998851076e-07)
5(-8.477945812e-07 -6.693881005e-07 -4.836474545e-07 -3.141758498e-07 -1.945591066e-07)
5(-8.539354894e-07 -6.59172656e-07 -4.894391168e-07 -3.185268724e-07 -1.729349606e-07)
5(-8.653878467e-07 -6.848713383e-07 -5.05198841e-07 -3.213062882e-07 -1.497974154e-07)
5(-8.760107448e-07 -7.060007192e-07 -5.015317583e-07 -3.152890713e-07 -1.250300556e-07)
5(-8.69978976e-07 -7.136259228e-07 -5.197653081e-07 -3.099921742e-07 -1.144362614e-07)
5(-8.942351997e-07 -7.282942533e-07 -5.413276085e-07 -3.056502464e-07 -1.214939402e-07)
5(-9.318828234e-07 -7.426290267e-07 -5.417468856e-07 -2.993292583e-07 -1.288135536e-07)
5(-9.345094441e-07 -7.605667633e-07 -5.360197974e-07 -2.842789399e-07 -5.293259164e-08)
5(-9.221839719e-07 -7.517955964e-07 -5.1016832e-07 -2.417145879e-07 1.71325155e-07)
5(-8.829665603e-07 -7.356575225e-07 -4.835455911e-07 -1.570006134e-07 5.15319698e-07)
5(-8.518109098e-07 -7.160415407e-07 -4.378234735e-07 4.394678399e-09 8.74948455e-07)
5(-7.912749425e-07 -6.483023753e-07 -3.739696695e-07 2.941233106e-07 1.141204848e-06)
5(-6.702903192e-07 -5.324109225e-07 -2.912711352e-07 6.911868695e-07 1.293577952e-06)
5(-5.191250239e-07 -3.761670087e-07 -1.045118552e-07 1.083128154e-06 1.364533091e-06)
5(-3.214809112e-07 -2.274173312e-07 2.197339199e-07 1.386855729e-06 1.42850331e-06)
5(-6.461050361e-08 -7.994822226e-08 6.93340553e-07 1.57719478e-06 1.501175575e-06)
5(2.288725227e-07 1.979642548e-07 1.23627251e-06 1.676846296e-06 1.531647285e-06)
5(5.491892807e-07 6.724731065e-07 1.686275937e-06 1.741864253e-06 1.483480446e-06)
5(9.056529962e-07 1.261214493e-06 1.973414328e-06 1.77504262e-06 1.341802999e-06)
5(1.35297887e-06 1.874344889e-06 2.142449375e-06 1.743697794e-06 1.115549821e-06)
5(1.932960004e-06 2.387794666e-06 2.232787665e-06 1.621461706e-06 8.116330719e-07)
5(2.618180588e-06 2.67411815e-06 2.220127499e-06 1.408625394e-06 4.373578122e-07)
5(3.296416253e-06 2.764514647e-06 2.124201274e-06 1.106789568e-06 -6.577465683e-09)
5(3.817374818e-06 2.773012966e-06 1.955253538e-06 6.917398423e-07 -5.66826202e-07)
5(4.150380846e-06 2.733315341e-06 1.699721906e-06 1.808512025e-07 -1.231004717e-06)
5(4.30009095e-06 2.602260793e-06 1.382199116e-06 -4.103640094e-07 -1.981548849e-06)
5(4.253466614e-06 2.455955837e-06 1.022301149e-06 -1.075080945e-06 -2.815984772e-06)
5(4.134199116e-06 2.369633876e-06 6.846385077e-07 -1.790758688e-06 -3.723063855e-06)
5(4.341884051e-06 3.729772288e-06 3.825552994e-06 -8.572969818e-07 -3.998589818e-06)
5(-5.251204129e-06 -1.175666694e-05 -9.149662219e-06 -6.625399692e-06 -8.136295946e-06)
)


60
(
5(-1.611188054e-07 -8.758623153e-06 8.828821592e-06 3.077206202e-06 1.368240919e-05)
5(-6.619375199e-07 -6.312737241e-06 4.351953976e-06 1.334003173e-06 7.582799299e-06)
5(-1.75787136e-06 -3.838911653e-06 -5.306210369e-07 -9.437790141e-07 1.131673343e-06)
5(-3.051478416e-06 -2.896878868e-06 -2.81073153e-06 -2.108048648e-06 -2.051587217e-06)
5(-3.819121048e-06 -2.670567483e-06 -3.296183422e-06 -2.380460501e-06 -3.066263162e-06)
5(-3.374181688e-06 -2.339249477e-06 -2.601533197e-06 -1.97312329e-06 -2.456363291e-06)
5(-2.38569919e-06 -1.935055479e-06 -1.68196857e-06 -1.423177309e-06 -1.363805495e-06)
5(-1.776381396e-06 -1.684878953e-06 -1.179403625e-06 -1.13027636e-06 -7.993075997e-07)
5(-1.639127731e-06 -1.567299478e-06 -1.113279723e-06 -1.079984941e-06 -7.983762771e-07)
5(-1.682376023e-06 -1.508393325e-06 -1.23155769e-06 -1.111242454e-06 -9.718351066e-07)
5(-1.676962711e-06 -1.446402166e-06 -1.293723471e-06 -1.102802344e-06 -1.036038157e-06)
5(-1.602515113e-06 -1.374923158e-06 -1.254316885e-06 -1.053151209e-06 -9.805080481e-07)
5(-1.505424734e-06 -1.300883014e-06 -1.158448867e-06 -9.871437214e-07 -8.614733815e-07)
5(-1.42166391e-06 -1.239939593e-06 -1.076783519e-06 -9.21136234e-07 -7.846392691e-07)
5(-1.360487659e-06 -1.196225639e-06 -1.037318725e-06 -8.741044439e-07 -7.497728802e-07)
5(-1.315842383e-06 -1.164677087e-06 -1.013919245e-06 -8.539063856e-07 -7.259659469e-07)
5(-1.299253199e-06 -1.131120371e-06 -9.826035239e-07 -8.264323696e-07 -7.075141184e-07)
5(-1.272564987e-06 -1.106760465e-06 -9.555078577e-07 -8.048082236e-07 -6.748305168e-07)
5(-1.242384315e-06 -1.083273673e-06 -9.239593055e-07 -7.835333236e-07 -6.45610271e-07)
5(-1.224063453e-06 -1.054082531e-06 -8.968345355e-07 -7.570051821e-07 -6.177579053e-07)
5(-1.19311153e-06 -1.04229548e-06 -8.742936188e-07 -7.177441148e-07 -5.800102372e-07)
5(-1.173699275e-06 -1.022606739e-06 -8.446368156e-07 -6.781483535e-07 -5.521433195e-07)
5(-1.17385207e-06 -9.919240256e-07 -8.175338735e-07 -6.563968782e-07 -5.289912224e-07)
5(-1.163389243e-06 -9.709656297e-07 -8.06623575e-07 -6.323080015e-07 -5.142428563e-07)
5(-1.141977918e-06 -9.647142178e-07 -8.006973076e-07 -6.227201084e-07 -4.920148058e-07)
5(-1.133968908e-06 -9.5683572e-07 -7.791386452e-07 -6.182744983e-07 -4.630478543e-07)
5(-1.126696588e-06 -9.405921446e-07 -7.617345545e-07 -6.046029739e-07 -4.567118594e-07)
5(-1.123844413e-06 -9.353389032e-07 -7.494818419e-07 -5.793262972e-07 -4.403627827e-07)
5(-1.126332791e-06 -9.308278095e-07 -7.437629392e-07 -5.702022463e-07 -4.37910785e-07)
5(-1.123451511e-06 -9.30231181e-07 -7.420312613e-07 -5.706970114e-07 -4.37561539e-07)
5(-1.126260031e-06 -9.351642802e-07 -7.345515769e-07 -5.685724318e-07 -4.334724508e-07)
5(-1.133535989e-06 -9.42935003e-07 -7.553608157e-07 -5.791662261e-07 -4.342000466e-07)
5(-1.137144864e-06 -9.578943718e-07 -7.805938367e-07 -5.903129932e-07 -4.224420991e-07)
5(-1.146108843e-06 -9.754439816e-07 -7.865892258e-07 -6.005575415e-07 -4.058529157e-07)
5(-1.158798113e-06 -9.954965208e-07 -8.058850653e-07 -6.149639376e-07 -4.091707524e-07)
5(-1.16112642e-06 -1.012522262e-06 -8.225033525e-07 -6.255577318e-07 -4.397588782e-07)
5(-1.163687557e-06 -1.025386155e-06 -8.480274118e-07 -6.27245754e-07 -4.47005732e-07)
5(-1.155480277e-06 -1.037318725e-06 -8.631614037e-07 -6.196787581e-07 -3.91388312e-07)
5(-1.127598807e-06 -1.033127774e-06 -8.497736417e-07 -5.923793651e-07 -1.867010724e-07)
5(-1.085398253e-06 -1.019448973e-06 -8.192728274e-07 -5.259062164e-07 1.494190656e-07)
5(-1.005188096e-06 -9.814393707e-07 -7.721828297e-07 -3.699096851e-07 4.933681339e-07)
5(-8.965143934e-07 -8.989591151e-07 -7.134512998e-07 -8.766073734e-08 7.783528417e-07)
5(-7.608323358e-07 -7.742783055e-07 -6.269547157e-07 3.064633347e-07 9.578070603e-07)
5(-5.768379197e-07 -6.229965948e-07 -4.459288903e-07 7.239286788e-07 1.07177766e-06)
5(-3.47790774e-07 -4.466273822e-07 -8.492497727e-08 1.07078813e-06 1.195410732e-06)
5(-5.384208634e-08 -2.327142283e-07 4.243920557e-07 1.317530405e-06 1.334701665e-06)
5(2.480810508e-07 5.785841495e-08 9.993091226e-07 1.494190656e-06 1.463107765e-06)
5(5.97035978e-07 5.160691217e-07 1.509964932e-06 1.655775122e-06 1.508684363e-06)
5(9.296927601e-07 1.155713107e-06 1.874985173e-06 1.793843694e-06 1.457286999e-06)
5(1.340173185e-06 1.84396049e-06 2.150656655e-06 1.878594048e-06 1.317879651e-06)
5(1.949258149e-06 2.393499017e-06 2.349843271e-06 1.861597411e-06 1.083768439e-06)
5(2.611777745e-06 2.723478246e-06 2.446759026e-06 1.739710569e-06 7.696216926e-07)
5(3.257766366e-06 2.90380558e-06 2.447341103e-06 1.513399184e-06 3.57569661e-07)
5(3.797700629e-06 3.017426934e-06 2.373533789e-06 1.168809831e-06 -1.812586561e-07)
5(4.157307558e-06 3.042572644e-06 2.193206456e-06 6.982008927e-07 -8.466013242e-07)
5(4.3209875e-06 2.983841114e-06 1.898326445e-06 9.627547115e-08 -1.612701453e-06)
5(4.283268936e-06 2.850021701e-06 1.538428478e-06 -5.795736797e-07 -2.468848834e-06)
5(3.983965144e-06 2.648448572e-06 1.163047273e-06 -1.329201041e-06 -3.403460141e-06)
5(1.438078471e-06 1.651118509e-06 1.546402927e-06 -1.520063961e-06 -3.911613021e-06)
5(-1.72284781e-05 -2.25007534e-05 -1.195032382e-05 -7.02496618e-06 -1.219526166e-05)
)


60
(
5(-5.251960829e-06 -1.241220161e-05 5.353882443e-06 1.10862311e-06 1.064751996e-05)
5(-4.032044671e-06 -8.938601241e-06 2.01840885e-06 -1.671724021e-07 5.735549735e-06)
5(-3.535766155e-06 -5.323323421e-06 -1.92085281e-06 -1.937965862e-06 1.107691787e-07)
5(-4.181289114e-06 -3.844150342e-06 -3.717490472e-06 -2.818065695e-06 -2.715853043e-06)
5(-4.748464562e-06 -3.469293006e-06 -3.960449249e-06 -2.952176146e-06 -3.574532457e-06)
5(-4.183035344e-06 -3.047345672e-06 -3.178080078e-06 -2.47952994e-06 -2.903514542e-06)
5(-3.098335583e-06 -2.557237167e-06 -2.224172931e-06 -1.889944542e-06 -1.782784238e-06)
5(-2.436543582e-06 -2.259679604e-06 -1.675100066e-06 -1.554988557e-06 -1.191918273e-06)
5(-2.246844815e-06 -2.081942512e-06 -1.56511669e-06 -1.464388333e-06 -1.152628101e-06)
5(-2.233136911e-06 -1.986743882e-06 -1.649954356e-06 -1.47218816e-06 -1.298292773e-06)
5(-2.189015504e-06 -1.897336915e-06 -1.684820745e-06 -1.448599505e-06 -1.341919415e-06)
5(-2.08884012e-06 -1.789376256e-06 -1.624735887e-06 -1.374151907e-06 -1.264881575e-06)
5(-1.948072168e-06 -1.701046131e-06 -1.505381078e-06 -1.283406164e-06 -1.142107067e-06)
5(-1.837635864e-06 -1.62316428e-06 -1.402950147e-06 -1.210541086e-06 -1.046355464e-06)
5(-1.775566489e-06 -1.558804342e-06 -1.341615075e-06 -1.155498467e-06 -9.933864931e-07)
5(-1.713982783e-06 -1.504944521e-06 -1.309472282e-06 -1.117157808e-06 -9.690120351e-07)
5(-1.667795004e-06 -1.458589395e-06 -1.283777237e-06 -1.075284672e-06 -9.413752196e-07)
5(-1.630716724e-06 -1.424647053e-06 -1.236126991e-06 -1.054999302e-06 -9.056202543e-07)
5(-1.588618034e-06 -1.387234079e-06 -1.194362994e-06 -1.032472937e-06 -8.685165085e-07)
5(-1.552049071e-06 -1.353560947e-06 -1.162843546e-06 -9.88249667e-07 -8.352071745e-07)
5(-1.524342224e-06 -1.327862265e-06 -1.128239091e-06 -9.505602065e-07 -7.97706889e-07)
5(-1.493288437e-06 -1.297827112e-06 -1.094304025e-06 -9.05856723e-07 -7.661583368e-07)
5(-1.464650268e-06 -1.267937478e-06 -1.071341103e-06 -8.709612302e-07 -7.429916877e-07)
5(-1.450040145e-06 -1.245673047e-06 -1.05399522e-06 -8.567294572e-07 -7.198541425e-07)
5(-1.432199497e-06 -1.216860255e-06 -1.034146408e-06 -8.507631719e-07 -7.006165106e-07)
5(-1.418346073e-06 -1.21089397e-06 -1.014384907e-06 -8.417409845e-07 -6.858899724e-07)
5(-1.405831426e-06 -1.204374712e-06 -9.991344996e-07 -8.26374162e-07 -6.770715117e-07)
5(-1.39279291e-06 -1.181615517e-06 -9.881332517e-07 -8.116476238e-07 -6.661866792e-07)
5(-1.382955816e-06 -1.176085789e-06 -9.802752174e-07 -8.008792065e-07 -6.60715159e-07)
5(-1.377600711e-06 -1.17928721e-06 -9.760260582e-07 -7.996568456e-07 -6.636837497e-07)
5(-1.379987225e-06 -1.181964763e-06 -9.797513485e-07 -8.075730875e-07 -6.622867659e-07)
5(-1.376844011e-06 -1.188542228e-06 -9.921495803e-07 -8.222414181e-07 -6.743357517e-07)
5(-1.370673999e-06 -1.193082426e-06 -1.012638677e-06 -8.378410712e-07 -6.792251952e-07)
5(-1.362583134e-06 -1.202337444e-06 -1.029635314e-06 -8.530914783e-07 -6.705522537e-07)
5(-1.356238499e-06 -1.22160418e-06 -1.05088111e-06 -8.718925528e-07 -6.826012395e-07)
5(-1.352222171e-06 -1.228123438e-06 -1.072941814e-06 -8.869101293e-07 -7.181079127e-07)
5(-1.332431566e-06 -1.231499482e-06 -1.087377314e-06 -9.015202522e-07 -7.439521141e-07)
5(-1.297390554e-06 -1.238833647e-06 -1.097796485e-06 -9.058276191e-07 -6.986665539e-07)
5(-1.243955921e-06 -1.226144377e-06 -1.087551937e-06 -8.880160749e-07 -5.196779966e-07)
5(-1.162581611e-06 -1.189881004e-06 -1.058913767e-06 -8.326605894e-07 -2.030283213e-07)
5(-1.050764695e-06 -1.125736162e-06 -1.018983312e-06 -6.880727597e-07 1.378939487e-07)
5(-9.029754438e-07 -1.025153324e-06 -9.54780262e-07 -4.213652574e-07 3.897584975e-07)
5(-7.176422514e-07 -8.903443813e-07 -8.620554581e-07 -4.086177796e-08 5.571055226e-07)
5(-4.956964403e-07 -7.206690498e-07 -6.729387678e-07 3.707828e-07 6.895861588e-07)
5(-2.543092705e-07 -5.336478353e-07 -3.338209353e-07 7.18398951e-07 8.450006135e-07)
5(2.572778612e-08 -3.234599717e-07 1.696753316e-07 9.880168363e-07 1.027772669e-06)
5(3.357417881e-07 -2.42725946e-08 7.663620636e-07 1.213746145e-06 1.202861313e-06)
5(6.465706974e-07 4.424364306e-07 1.297215931e-06 1.410488039e-06 1.327309292e-06)
5(1.004664227e-06 1.078820787e-06 1.688837074e-06 1.612468623e-06 1.377309673e-06)
5(1.418869942e-06 1.74093293e-06 1.987675205e-06 1.788255759e-06 1.33208232e-06)
5(1.948792487e-06 2.270215191e-06 2.23563984e-06 1.870677806e-06 1.199601684e-06)
5(2.596643753e-06 2.610380761e-06 2.400367521e-06 1.873006113e-06 9.798677638e-07)
5(3.217137419e-06 2.773595043e-06 2.473592758e-06 1.731212251e-06 6.353366189e-07)
5(3.675115295e-06 2.864864655e-06 2.470682375e-06 1.45775266e-06 1.625157893e-07)
5(3.964174539e-06 2.91375909e-06 2.366898116e-06 1.068576239e-06 -4.484900273e-07)
5(4.088389687e-06 2.891698387e-06 2.134009264e-06 5.2904943e-07 -1.185981091e-06)
5(4.014349543e-06 2.779066563e-06 1.798965968e-06 -1.416774467e-07 -2.036598744e-06)
5(3.735651262e-06 2.522254363e-06 1.307402272e-06 -9.443610907e-07 -3.002991434e-06)
5(-2.990709618e-07 -1.228938345e-06 -2.1540327e-06 -2.67510768e-06 -4.259316484e-06)
5(-1.813843846e-05 -2.074206714e-05 -2.093258081e-05 -1.23505597e-05 -1.435203012e-05)
)


60
(
5(-1.005956437e-05 -1.60173513e-05 2.156652045e-06 -7.864437066e-07 7.954542525e-06)
5(-7.315189578e-06 -1.153652556e-05 -2.496526577e-07 -1.642096322e-06 3.949957318e-06)
5(-5.313428119e-06 -6.818328984e-06 -3.308639862e-06 -2.93017365e-06 -9.040231816e-07)
5(-5.312787835e-06 -4.809291568e-06 -4.629895557e-06 -3.534543794e-06 -3.37586971e-06)
5(-5.677924491e-06 -4.267203622e-06 -4.632340278e-06 -3.527937224e-06 -4.088156857e-06)
5(-5.005771527e-06 -3.757158993e-06 -3.757450031e-06 -2.989370842e-06 -3.359862603e-06)
5(-3.826178727e-06 -3.190594725e-06 -2.770655556e-06 -2.354805474e-06 -2.20478978e-06)
5(-3.095374268e-06 -2.832151949e-06 -2.175616828e-06 -1.982110462e-06 -1.583364792e-06)
5(-2.854059858e-06 -2.611774107e-06 -2.020216925e-06 -1.857326424e-06 -1.513391908e-06)
5(-2.786764526e-06 -2.46908894e-06 -2.067572495e-06 -1.835345756e-06 -1.627919119e-06)
5(-2.704779035e-06 -2.343789674e-06 -2.075103112e-06 -1.787877409e-06 -1.649320893e-06)
5(-2.570741344e-06 -2.217799192e-06 -1.991735189e-06 -1.695254468e-06 -1.556516509e-06)
5(-2.412387403e-06 -2.096378012e-06 -1.854379661e-06 -1.589214662e-06 -1.419830369e-06)
5(-2.269720426e-06 -1.998239895e-06 -1.735781552e-06 -1.502019586e-06 -1.314707333e-06)
5(-2.169632353e-06 -1.916225301e-06 -1.661712304e-06 -1.436157618e-06 -1.252992661e-06)
5(-2.103042789e-06 -1.851061825e-06 -1.613429049e-06 -1.384003554e-06 -1.214822987e-06)
5(-2.040760592e-06 -1.790933311e-06 -1.56526221e-06 -1.342530595e-06 -1.177104423e-06)
5(-1.987093128e-06 -1.737498678e-06 -1.518346835e-06 -1.306296326e-06 -1.138687367e-06)
5(-1.933833119e-06 -1.693610102e-06 -1.470325515e-06 -1.269101631e-06 -1.095118932e-06)
5(-1.88179547e-06 -1.65036181e-06 -1.423468348e-06 -1.230160706e-06 -1.056498149e-06)
5(-1.844309736e-06 -1.612992492e-06 -1.387263183e-06 -1.180393156e-06 -1.0196527e-06)
5(-1.802458428e-06 -1.577718649e-06 -1.349719241e-06 -1.134583727e-06 -9.859795682e-07)
5(-1.766427886e-06 -1.540058292e-06 -1.317181159e-06 -1.101114322e-06 -9.578070603e-07)
5(-1.743552275e-06 -1.508160494e-06 -1.29576074e-06 -1.077831257e-06 -9.313225746e-07)
5(-1.716078259e-06 -1.485750545e-06 -1.271837391e-06 -1.069449354e-06 -9.122886695e-07)
5(-1.687032636e-06 -1.463922672e-06 -1.248554327e-06 -1.065956894e-06 -8.977949619e-07)
5(-1.67026883e-06 -1.444248483e-06 -1.23254722e-06 -1.048960257e-06 -8.844654076e-07)
5(-1.659966074e-06 -1.430104021e-06 -1.219625119e-06 -1.028703991e-06 -8.799834177e-07)
5(-1.640932169e-06 -1.421605702e-06 -1.206586603e-06 -1.02276681e-06 -8.826609701e-07)
5(-1.620675903e-06 -1.410255209e-06 -1.199136022e-06 -1.02102058e-06 -8.831266314e-07)
5(-1.606123988e-06 -1.400068868e-06 -1.206295565e-06 -1.028121915e-06 -8.90227966e-07)
5(-1.592736226e-06 -1.406006049e-06 -1.215201337e-06 -1.043488737e-06 -8.994247764e-07)
5(-1.579523087e-06 -1.412001438e-06 -1.22358324e-06 -1.059495844e-06 -9.016366675e-07)
5(-1.559092198e-06 -1.409149263e-06 -1.234642696e-06 -1.077540219e-06 -9.047216736e-07)
5(-1.534412149e-06 -1.40623888e-06 -1.249194611e-06 -1.091801096e-06 -9.235809557e-07)
5(-1.500127837e-06 -1.399253961e-06 -1.27236126e-06 -1.107924618e-06 -9.61124897e-07)
5(-1.453212462e-06 -1.392036211e-06 -1.283420715e-06 -1.127249561e-06 -9.999494068e-07)
5(-1.389649697e-06 -1.376145519e-06 -1.280859578e-06 -1.134874765e-06 -9.607174434e-07)