/*--------------------------------*- C++ -*----------------------------------*\
| =========                 |                                                 |
| \\      /  F ield         | OpenFOAM: The Open Source CFD Toolbox           |
|  \\    /   O peration     | Version:  2.3.1                                 |
|   \\  /    A nd           | Web:      www.OpenFOAM.org                      |
|    \\/     M anipulation  |                                                 |
\*---------------------------------------------------------------------------*/
FoamFile
{
    version     2.0;
    format      ascii;
    class       dictionary;
    location    "constant";
    object      PM31;
}
// * * * * * * * * * * * * * * * * * * * * * * * * * * * * * * * * * * * * * //

PM31_table
60
(

60
(
5(-0.006001167778 0.01561348747 -0.008954701082 -0.01101064978 -0.01452238299)
5(0.007924672512 -0.01645726889 -0.02430562153 -0.0212880605 0.06592119704)
5(-0.005997396986 -0.0188596276 -0.02347174686 -0.01576052692 -0.03308135859)
5(-0.01223596745 -0.0199798822 -0.02201387612 -0.0265704983 -0.02450848124)
5(-0.0163213724 -0.02089633386 -0.01930297391 -0.02668206532 -0.02644608198)
5(-0.01617563528 -0.02026823792 -0.02273435077 -0.02657465064 -0.03298145939)
5(-0.01452460981 -0.02145047384 -0.02802833207 -0.02817694536 -0.0352232595)
5(-0.01671272363 -0.02313525641 -0.02808741611 -0.02846276624 -0.03468274375)
5(-0.01749393317 -0.02316075469 -0.02791393542 -0.02823199807 -0.03526890441)
5(-0.01759233745 -0.02351321286 -0.02755707002 -0.02760296588 -0.03287017831)
5(-0.01798672476 -0.02332345756 -0.02711841589 -0.02669820913 -0.03096334769)
5(-0.01715705964 -0.02314363725 -0.02711856639 -0.02555665646 -0.02919066831)
5(-0.0176211115 -0.0234552284 -0.026344604 -0.02394240865 -0.02637740684)
5(-0.01814029231 -0.02276894934 -0.02521849554 -0.02293187573 -0.02463236606)
5(-0.01831561414 -0.02262738911 -0.02424746389 -0.02104189089 -0.02234634236)
5(-0.01829021314 -0.02190938633 -0.02282427864 -0.01945726739 -0.01962773728)
5(-0.01746202593 -0.02033269932 -0.02072365304 -0.01717619929 -0.01701457924)
5(-0.01665172414 -0.01881889734 -0.01861706524 -0.01570768362 -0.01589334474)
5(-0.01588496616 -0.0173309304 -0.01745484914 -0.01448905833 -0.01473970995)
5(-0.01494396344 -0.01599944573 -0.01601125905 -0.01303431763 -0.01334378831)
5(-0.01418362979 -0.0151903168 -0.01488385422 -0.01237717167 -0.01214689381)
5(-0.01326867146 -0.01395237791 -0.01363310121 -0.01166677501 -0.01111450162)
5(-0.01236311406 -0.01278819125 -0.01244822048 -0.01003938351 -0.009716123724)
5(-0.01154814526 -0.01166982896 -0.01137275899 -0.009369867005 -0.009168031649)
5(-0.01071583389 -0.01084336128 -0.0102852258 -0.008433591883 -0.008345585253)
5(-0.009992800207 -0.01000800658 -0.009379929302 -0.007749617895 -0.007915771734)
5(-0.00930269523 -0.009266002131 -0.00875053028 -0.007140556784 -0.007301760217)
5(-0.008651941072 -0.008497282731 -0.007962479305 -0.006658547748 -0.006755253474)
5(-0.008013018494 -0.007857897367 -0.007473096249 -0.006235565452 -0.006189933468)
5(-0.007486438506 -0.007254320537 -0.006909617481 -0.005798987663 -0.005713157396)
5(-0.006996875843 -0.006754285047 -0.006369347565 -0.005347010451 -0.005449839772)
5(-0.006614727488 -0.00636130795 -0.0060186353 -0.005156390834 -0.00518735338)
5(-0.006254501461 -0.005917310904 -0.005543840272 -0.004720750516 -0.004495239284)
5(-0.00592649545 -0.005558258137 -0.005195095701 -0.004518811703 -0.004545176814)
5(-0.005672953758 -0.005282334887 -0.004883831587 -0.004196494717 -0.004014841385)
5(-0.005449649428 -0.00498407712 -0.004608124163 -0.004015534805 -0.003817065948)
5(-0.005302976722 -0.004906335365 -0.004583954374 -0.003787322511 -0.003708685963)
5(-0.005151284574 -0.004642561805 -0.004259784699 -0.003587115348 -0.003677516924)
5(-0.005023678722 -0.004506830692 -0.003997464059 -0.003362100391 -0.00345312271)
5(-0.004918946164 -0.004366048791 -0.003810714355 -0.003377973527 -0.004236205511)
5(-0.004886312296 -0.004284982862 -0.003705467457 -0.003160864332 -0.003129439752)
5(-0.00480659926 -0.004122326719 -0.003498831353 -0.00308715787 -0.002648781995)
5(-0.004695828565 -0.003960180565 -0.003255857608 -0.002831768823 -0.001960158404)
5(-0.004531205923 -0.003654002785 -0.002843176592 -0.002333149604 -0.001619602373)
5(-0.004357234248 -0.003436986967 -0.002665996862 -0.002025852389 -0.001485616804)
5(-0.004133792662 -0.003130570952 -0.002282955233 -0.001721276585 -0.001219675488)
5(-0.003796673981 -0.002802899192 -0.001957244546 -0.001427336196 -0.000996023245)
5(-0.003480933511 -0.002526803448 -0.001759745737 -0.001170054672 -0.0007947973525)
5(-0.003185263836 -0.001935367921 -0.001496571368 -0.0009431116099 -0.0006192199997)
5(-0.002247787394 -0.001583272424 -0.001267768284 -0.0007413113021 -0.0004679619406)
5(-0.001749395171 -0.001480227627 -0.001032338302 -0.0005660084548 -0.0003405673871)
5(-0.001775138743 -0.001254048041 -0.0008123894058 -0.0004093703669 -0.0002353079986)
5(-0.001647278638 -0.000996303758 -0.0006148892639 -0.0002739122245 -0.0001478374763)
5(-0.001361847107 -0.0007479757645 -0.00043853288 -0.0001588986275 -7.919407475e-05)
5(-0.001049675792 -0.000523326183 -0.0002811349182 -6.33493212e-05 -2.491131374e-05)
5(-0.0007270309965 -0.0003128778865 -0.0001396341681 1.503343712e-05 1.70482966e-05)
5(-0.0003438815998 -0.0001136977174 -1.028590296e-05 8.248305545e-05 4.409978104e-05)
5(0.0001340911992 0.0001316561688 0.000116920732 0.0001608355391 6.275959153e-05)
5(0.0006999201282 0.000473271648 0.000314833875 4.67137854e-05 6.972824252e-05)
5(0.0006991136455 0.0007252137992 0.0004767516348 0.000372349952 0.0002699034433)
)


60
(
5(-0.007371593662 -0.008338724764 -0.01224744472 -0.01215889246 -0.01637080211)
5(-0.01089249356 -0.0134402139 -0.01929209969 -0.01813732036 -0.027295081)
5(-0.0107397863 -0.01336713802 -0.01840392886 -0.01903986909 -0.02932669289)
5(-0.00686599683 -0.01309584726 -0.01649861106 -0.01901161245 -0.02074165457)
5(-0.008572717794 -0.01350558648 -0.01673642399 -0.01807077682 -0.02375224478)
5(-0.01095159089 -0.01410054106 -0.01820057073 -0.01842990838 -0.02480440272)
5(-0.01132966335 -0.01475955738 -0.01907131324 -0.01964918939 -0.02388346919)
5(-0.01208257098 -0.01532038094 -0.01937397205 -0.02001171868 -0.02689908421)
5(-0.01279421155 -0.01574442063 -0.02001730811 -0.02025345975 -0.02600654978)
5(-0.01329692981 -0.01606902368 -0.01978743968 -0.02064971829 -0.02540362029)
5(-0.01384664258 -0.01646923112 -0.02004868358 -0.02065098481 -0.02473091261)
5(-0.01426841742 -0.0166441456 -0.020605256 -0.02053160389 -0.02454336971)
5(-0.01428072481 -0.01674228957 -0.02070786056 -0.01986803089 -0.02330706671)
5(-0.01435641653 -0.01669003477 -0.02032929575 -0.01973404697 -0.0224425639)
5(-0.01471684142 -0.01670175739 -0.01999134753 -0.01873952712 -0.02114659338)
5(-0.01479036564 -0.01655055906 -0.0192668109 -0.01787166344 -0.01969977827)
5(-0.01469600598 -0.01611342421 -0.01847929427 -0.01678036918 -0.01793104934)
5(-0.0143758845 -0.01551626396 -0.01732014123 -0.01548579491 -0.0163429222)
5(-0.01398270514 -0.01474002283 -0.01623745024 -0.01439043534 -0.01498335317)
5(-0.01339540187 -0.0137197549 -0.01498201649 -0.01301328217 -0.01364918039)
5(-0.01284640552 -0.01305782278 -0.01402393976 -0.0120048024 -0.01235308287)
5(-0.01217924784 -0.01223585927 -0.01286229602 -0.01137655252 -0.01145275319)
5(-0.01137928211 -0.01133666688 -0.01182068739 -0.01016919108 -0.0101602196)
5(-0.01071979894 -0.01037679156 -0.01080379964 -0.009281260455 -0.00925111214)
5(-0.009956296866 -0.009576950813 -0.009812092348 -0.008365700401 -0.008332511691)
5(-0.009255140443 -0.008856440903 -0.00884395009 -0.00753613162 -0.007601523912)
5(-0.008570886368 -0.008188780859 -0.008183033369 -0.006859162374 -0.006938212744)
5(-0.007964448306 -0.007530290126 -0.007433836542 -0.00628009565 -0.006356450945)
5(-0.007321306376 -0.006906377842 -0.006863503869 -0.005806387202 -0.005814234303)
5(-0.006792510768 -0.00633300798 -0.006332962884 -0.005430870776 -0.005394246609)
5(-0.00629260756 -0.005834634316 -0.005796842353 -0.004973743172 -0.004969034765)
5(-0.005875848751 -0.005446773149 -0.005419949612 -0.004709631777 -0.004783046931)
5(-0.005523756498 -0.005069094393 -0.005022107228 -0.00440067349 -0.004316265947)
5(-0.005199397248 -0.00473355568 -0.004656733682 -0.004153358831 -0.004189579132)
5(-0.004916645039 -0.004484147928 -0.004403386508 -0.003923869707 -0.003919056535)
5(-0.004690401774 -0.004213620982 -0.004074453585 -0.003714844656 -0.003706020289)
5(-0.004509984751 -0.004111419554 -0.004038545283 -0.003607690717 -0.003511885082)
5(-0.004371131272 -0.003925935996 -0.003876895905 -0.003428030452 -0.003569540688)
5(-0.004259299382 -0.003829719712 -0.00370336646 -0.003326963504 -0.003200623983)
5(-0.004142134177 -0.003729710467 -0.003536069747 -0.003184468898 -0.003729712405)
5(-0.004101530708 -0.003704955403 -0.003507660927 -0.003101329596 -0.003475135233)
5(-0.004092187262 -0.003646787858 -0.003422253705 -0.003192224989 -0.003230890467)
5(-0.004066816589 -0.003635024271 -0.003351318065 -0.003430841128 -0.002946624245)
5(-0.004025179137 -0.003501941889 -0.003033203403 -0.003189848326 -0.002605945037)
5(-0.003951587149 -0.003396233015 -0.002948601339 -0.002896569762 -0.002329147106)
5(-0.003883221438 -0.003211624421 -0.002860544817 -0.002596364543 -0.002023067898)
5(-0.003738616842 -0.003076031941 -0.002966562966 -0.002277379875 -0.00172333561)
5(-0.003527285084 -0.003020276745 -0.002755978816 -0.001966089686 -0.001442852869)
5(-0.003296306498 -0.002722895614 -0.002438483421 -0.001665497129 -0.001182677931)
5(-0.003032174965 -0.002750969088 -0.002105341479 -0.001377718434 -0.0009475196913)
5(-0.002784150194 -0.002405503866 -0.001777059651 -0.001113301026 -0.0007410952629)
5(-0.002733855118 -0.002047721815 -0.001458921228 -0.0008685506854 -0.0005619020263)
5(-0.002443752689 -0.001686523908 -0.001157919685 -0.0006508642178 -0.0004087830505)
5(-0.002057929035 -0.001324462052 -0.0008797661811 -0.0004584554708 -0.000279824465)
5(-0.001607199359 -0.0009713547116 -0.0006239085045 -0.0002939538197 -0.0001771925429)
5(-0.001123595098 -0.0006397685266 -0.0003937490483 -0.0001571457029 -9.564466171e-05)
5(-0.0005645538438 -0.0003273559195 -0.0001871172514 -4.41991412e-05 -3.677526165e-05)
5(1.373604722e-05 1.018608777e-05 3.492632076e-06 4.726666966e-05 7.394529066e-06)
5(0.000645695557 0.0004235839773 0.0002808845618 3.895788446e-05 4.406827554e-05)
5(0.0009294201747 0.0006986264086 0.0004112218881 0.0003659765944 0.0002474347229)
)


60
(
5(-0.003565873247 -0.001524290194 -0.005692323936 -0.004332807612 -0.007574310618)
5(-0.006493166092 -0.0041525438 -0.01021214158 -0.007705511603 -0.01397126223)
5(-0.006921519359 -0.004755765156 -0.0108029084 -0.00841685036 -0.01521940221)
5(-0.00670099149 -0.004650868436 -0.01033768219 -0.008260302319 -0.01436757)
5(-0.006403922506 -0.004366835123 -0.009592065116 -0.007911857299 -0.01292141965)
5(-0.006135653933 -0.004200760162 -0.009131975327 -0.007885000347 -0.01198146138)
5(-0.00606825434 -0.004162877974 -0.009201459079 -0.007979220339 -0.01182492837)
5(-0.006157288014 -0.004280497798 -0.009321613875 -0.008205893294 -0.01191709601)
5(-0.006271041987 -0.004489449574 -0.009489558544 -0.008482987349 -0.01182836523)
5(-0.006296140632 -0.004658287756 -0.009495586853 -0.008561943123 -0.01153447403)
5(-0.006397772399 -0.004791089358 -0.009422718138 -0.008569157163 -0.01109176275)
5(-0.006383748548 -0.004959511732 -0.009245580015 -0.008507287083 -0.0105660405)
5(-0.006388174996 -0.005084007078 -0.009052693162 -0.008378430058 -0.01007354989)
5(-0.006399279384 -0.005202392122 -0.008820219144 -0.008121017299 -0.00951252581)
5(-0.006367882554 -0.005277574725 -0.008528502539 -0.007822552543 -0.00893786909)
5(-0.006238582966 -0.005267875729 -0.008137104701 -0.007441900557 -0.008315725497)
5(-0.006085403793 -0.005203628028 -0.007683117714 -0.007011025193 -0.00770462607)
5(-0.005905192654 -0.005068076155 -0.00720488957 -0.006563900414 -0.007104599793)
5(-0.005644065882 -0.004907760943 -0.006726928562 -0.006101580399 -0.006509270468)
5(-0.005372419988 -0.004685980634 -0.006236662163 -0.005628701609 -0.005940682392)
5(-0.005051578436 -0.004424487995 -0.005753958891 -0.005187618236 -0.005426828271)
5(-0.004715468098 -0.004156916052 -0.005285641402 -0.004743241556 -0.00494248919)
5(-0.004382838476 -0.00387243537 -0.004831110855 -0.004340179883 -0.004494037588)
5(-0.004043860051 -0.003577209043 -0.004399659367 -0.003974609857 -0.004090828506)
5(-0.003714781305 -0.00329179079 -0.004016298364 -0.003622985466 -0.00373211146)
5(-0.003392473025 -0.00302246143 -0.003645667967 -0.003303875365 -0.003405249162)
5(-0.003099560093 -0.002770112532 -0.003316497311 -0.003014235786 -0.003107701762)
5(-0.002817685163 -0.002523418398 -0.003021773689 -0.002761090409 -0.002855948364)
5(-0.002569941732 -0.002307304862 -0.002755309546 -0.002534538755 -0.002615084249)
5(-0.002339009817 -0.002110384983 -0.00251981682 -0.002334297728 -0.002420199312)
5(-0.002133253233 -0.00193821207 -0.002314047797 -0.002159809126 -0.002236643092)
5(-0.001952644931 -0.001787749141 -0.002134048307 -0.002005273881 -0.002086589404)
5(-0.001793111234 -0.001653172241 -0.001976436108 -0.00187755626 -0.001958460997)
5(-0.001651666958 -0.001541562551 -0.001847266923 -0.001769200169 -0.001851763063)
5(-0.001535468437 -0.001447067055 -0.001735741515 -0.001681017052 -0.001759442055)
5(-0.001423788248 -0.001371472581 -0.001645292183 -0.001611837866 -0.001688627356)
5(-0.00133958495 -0.001314198138 -0.001576819014 -0.001562653739 -0.001631623983)
5(-0.001270745244 -0.001273273867 -0.001528481253 -0.001525769348 -0.00158649887)
5(-0.001217698688 -0.001255723653 -0.001499528353 -0.001503539008 -0.001566775191)
5(-0.00118267369 -0.001245296928 -0.00148628475 -0.001497755663 -0.001563285272)
5(-0.001158706012 -0.001258182223 -0.001491395892 -0.001504239148 -0.001576135054)
5(-0.00115104079 -0.00127375183 -0.001498436681 -0.001521348832 -0.001585898264)
5(-0.001146912845 -0.001302610412 -0.001509522914 -0.001543305789 -0.001577929635)
5(-0.001148142389 -0.001339197615 -0.001517974361 -0.001557551841 -0.001542225571)
5(-0.001151665107 -0.001356702436 -0.001520697298 -0.001552194412 -0.001481335294)
5(-0.001147838533 -0.001357372758 -0.001510817995 -0.001516986792 -0.001401583651)
5(-0.001122610212 -0.001335753708 -0.001490264431 -0.0014498214 -0.001303647608)
5(-0.001077632205 -0.001301722172 -0.001442921271 -0.001360547325 -0.001193473399)
5(-0.0009930371642 -0.001245188132 -0.001370539154 -0.001255874057 -0.001074318017)
5(-0.000905059005 -0.001175630385 -0.001277080588 -0.001139883091 -0.0009489105008)
5(-0.0007896757322 -0.001094005847 -0.001166597943 -0.001015549439 -0.0008240045479)
5(-0.000670287379 -0.000994279011 -0.001046411811 -0.0008859005158 -0.0006996440058)
5(-0.0005484386102 -0.0008753361021 -0.0009130760266 -0.0007515166639 -0.0005797326724)
5(-0.0004295479686 -0.0007427552713 -0.0007698790096 -0.0006173195349 -0.0004621182303)
5(-0.0003085754045 -0.0005885909382 -0.0006189437335 -0.0004839975531 -0.0003554958447)
5(-0.0001729036279 -0.0004269682599 -0.0004674613311 -0.0003587972547 -0.0002610746175)
5(-2.537888436e-05 -0.0002610560672 -0.0003196225092 -0.0002462556978 -0.0001789458009)
5(0.0001473881469 -9.169433842e-05 -0.0001796768691 -0.0001453446654 -0.0001096461456)
5(0.0004137655643 9.674542239e-05 -4.637691151e-05 -5.466416697e-05 -5.112866201e-05)
5(0.0009234774078 0.0005963001026 0.0002277855463 0.0001028284182 5.602375671e-05)
)


60
(
5(-0.001452197804 0.001666964137 -0.002263656251 -0.0009575826697 -0.00394064666)
5(-0.003881409428 -0.0003514160407 -0.005468716251 -0.00318511662 -0.00820450713)
5(-0.00416018089 -0.0005584738179 -0.005893003942 -0.003735758603 -0.009256117718)
5(-0.003827933829 -0.0002445800814 -0.005537671702 -0.003796448148 -0.009059862729)
5(-0.003333284367 7.050755678e-05 -0.004985121834 -0.003853539109 -0.008486562715)
5(-0.002952993351 0.000192717347 -0.004728207967 -0.004217884394 -0.008379743224)
5(-0.002770005678 9.484592271e-05 -0.004893437542 -0.004730606916 -0.008687719385)
5(-0.002775060564 -0.000147400931 -0.005227325129 -0.005315410468 -0.009096096577)
5(-0.002845913258 -0.000496794026 -0.005575812259 -0.00582619433 -0.009345217884)
5(-0.002957199903 -0.0008934574596 -0.005874568823 -0.00625182881 -0.009323695633)
5(-0.003108830999 -0.00134796301 -0.006076077077 -0.006548466274 -0.009195177415)
5(-0.003259022234 -0.001801658813 -0.006239668397 -0.006735633933 -0.008972969969)
5(-0.003397388669 -0.002207346042 -0.006328962714 -0.006779834426 -0.008682124635)
5(-0.003533290845 -0.002585718845 -0.00633049033 -0.006721418845 -0.008295408891)
5(-0.003667721287 -0.002885307587 -0.006238620102 -0.006552137358 -0.007822385089)
5(-0.003763940003 -0.003111345015 -0.006073251233 -0.006291582384 -0.007316012836)
5(-0.003750594974 -0.003257070705 -0.005838540794 -0.005960951046 -0.006779919319)
5(-0.003725215233 -0.003313303445 -0.005546654077 -0.005580245774 -0.006247801676)
5(-0.003628960125 -0.003282095956 -0.005197822226 -0.005194642083 -0.005728399318)
5(-0.003491576056 -0.0032025385 -0.004839707575 -0.004785098889 -0.00521822554)
5(-0.003342415655 -0.003055800948 -0.004461992677 -0.004390349201 -0.004750603008)
5(-0.00311738504 -0.002871168631 -0.004097558806 -0.004013929554 -0.004315253027)
5(-0.002878058975 -0.002671908775 -0.003731251171 -0.0036462751 -0.003912374829)
5(-0.002648988032 -0.002465780648 -0.00338207256 -0.003309189854 -0.003542014899)
5(-0.002422204709 -0.002248013885 -0.003055282142 -0.003000344397 -0.003207106973)
5(-0.002181705992 -0.002032865982 -0.002760737089 -0.002716612275 -0.002916798058)
5(-0.00195905054 -0.001839491788 -0.002492100953 -0.002463758006 -0.0026471234)
5(-0.001754768519 -0.001649779766 -0.002244677537 -0.002232002965 -0.002410372232)
5(-0.001557552262 -0.001479859268 -0.00202619521 -0.002032135729 -0.002198223909)
5(-0.001381048644 -0.001327404881 -0.001828354757 -0.001848424573 -0.0020098747)
5(-0.001222077694 -0.001188688879 -0.001655370955 -0.00169144824 -0.001847352447)
5(-0.001082496819 -0.001067992441 -0.001502494718 -0.001551916701 -0.001701373551)
5(-0.0009564568721 -0.0009645447635 -0.001368507833 -0.001433285315 -0.001582891117)
5(-0.0008446483311 -0.0008690731638 -0.001257139962 -0.001332115356 -0.001480576345)
5(-0.00074676218 -0.0007923630906 -0.001162721323 -0.001248584377 -0.001396241692)
5(-0.000667912512 -0.0007300231917 -0.001083312954 -0.001180737798 -0.001323745572)
5(-0.0005922443354 -0.0006787137617 -0.001020271096 -0.001127968204 -0.00126963123)
5(-0.0005293029611 -0.0006395873385 -0.0009732859666 -0.001091223321 -0.001228655576)
5(-0.0004771646975 -0.0006140462498 -0.0009432866276 -0.001067837886 -0.001207230362)
5(-0.0004334923921 -0.000598341223 -0.0009259234874 -0.001060536094 -0.001207603801)
5(-0.0003999374789 -0.0005941639222 -0.0009211664946 -0.001066814957 -0.001217548252)
5(-0.0003651936049 -0.0005942976044 -0.0009276387288 -0.001084629812 -0.001233030969)
5(-0.0003361747743 -0.0006037804525 -0.0009393219558 -0.001112502026 -0.001241714997)
5(-0.0003068997336 -0.000617147441 -0.0009549909085 -0.001138914059 -0.001234366865)
5(-0.0002751285385 -0.0006306794456 -0.0009735703908 -0.001153639261 -0.001209262467)
5(-0.000243195164 -0.0006336114911 -0.0009855101814 -0.001149271243 -0.001166629353)
5(-0.0002026525835 -0.000623589237 -0.0009859674464 -0.001118848166 -0.001108427722)
5(-0.0001573327895 -0.0006019363836 -0.0009665520712 -0.00106677393 -0.001035183627)
5(-9.593429817e-05 -0.0005710588723 -0.0009225971675 -0.0009998208249 -0.0009497787696)
5(-2.336108307e-05 -0.0005195878175 -0.0008592602615 -0.0009193296223 -0.0008576330718)
5(5.970989381e-05 -0.0004567041029 -0.0007799140771 -0.0008291212229 -0.0007599210038)
5(0.0001535149234 -0.0003786627858 -0.0006884650859 -0.0007323427956 -0.0006615497942)
5(0.0002529966375 -0.0002895943796 -0.0005904108173 -0.0006294451582 -0.0005618014913)
5(0.0003548598892 -0.0001875054737 -0.0004838738115 -0.0005224036232 -0.0004624175433)
5(0.000459324946 -7.996372482e-05 -0.0003685288609 -0.0004106504837 -0.0003628034657)
5(0.0005645425029 3.639179442e-05 -0.0002466481606 -0.0002984366236 -0.0002693773012)
5(0.0006723514225 0.0001590115522 -0.0001238182258 -0.0001902896246 -0.0001830415829)
5(0.0007947519808 0.0002878935276 1.567378159e-06 -8.725806884e-05 -0.000104563854)
5(0.001030856316 0.0004984652261 0.0001619600876 1.873998063e-05 -3.254485772e-05)
5(0.001293039751 0.0007765922538 0.0004566800161 0.0002053354227 0.0001252889131)
)


60
(
5(-0.0003044393642 0.002946457211 -0.0006865786553 0.0001545508115 -0.002719801955)
5(-0.002290775164 0.001382133473 -0.002936586969 -0.001405269119 -0.005851167703)
5(-0.002398462589 0.001479249395 -0.003204717378 -0.001926342868 -0.006963382876)
5(-0.001959767711 0.001860655946 -0.002961387065 -0.002223020029 -0.007136239272)
5(-0.001429162631 0.002099792957 -0.002708104843 -0.002647142685 -0.007243113305)
5(-0.001039099531 0.002085107752 -0.002733258646 -0.003306843096 -0.007648815108)
5(-0.0008909659103 0.001860610594 -0.00309974226 -0.004121566255 -0.00826117187)
5(-0.0009483581622 0.001428128128 -0.003645740286 -0.004911287783 -0.008818493759)
5(-0.001149876868 0.0008821303116 -0.00418647831 -0.005578816079 -0.009152147272)
5(-0.001403881888 0.0002676061998 -0.004690169817 -0.006100924515 -0.00924176981)
5(-0.001683194609 -0.0003707222623 -0.00509301551 -0.006494101591 -0.009189707403)
5(-0.002002652995 -0.0009998907751 -0.00542144398 -0.006727528132 -0.008982664745)
5(-0.00232747207 -0.001574823248 -0.005639335717 -0.006796561648 -0.008666380334)
5(-0.002611734503 -0.002065328665 -0.005747678584 -0.006716478426 -0.008263601956)
5(-0.002839316988 -0.002467775477 -0.00573004621 -0.006530775118 -0.007767749208)
5(-0.003037694337 -0.002753562995 -0.00560948795 -0.006246064183 -0.007234383657)
5(-0.003156547685 -0.002937491176 -0.005401709931 -0.005890152341 -0.006671544265)
5(-0.003182585989 -0.003016282989 -0.005137399329 -0.005495678228 -0.006112353542)
5(-0.003168229194 -0.003005783282 -0.004819407772 -0.005072687153 -0.005584369847)
5(-0.003071261769 -0.002927497591 -0.004472195763 -0.004658703753 -0.005072821406)
5(-0.002929599982 -0.002789982329 -0.004106919581 -0.004245798346 -0.004597602402)
5(-0.002761046509 -0.002610261365 -0.003749791269 -0.003856716572 -0.004159901189)
5(-0.002554759196 -0.00241109616 -0.003395988253 -0.00348629945 -0.003753904797)
5(-0.002327751671 -0.002197867108 -0.003065084914 -0.003144540675 -0.003389135896)
5(-0.002101018884 -0.001983179291 -0.002750024421 -0.002831778599 -0.003056533279)
5(-0.001879948913 -0.001771103753 -0.002460884953 -0.002548581923 -0.002761695952)
5(-0.001664868449 -0.001571498074 -0.00219829847 -0.002292920737 -0.002496061793)
5(-0.001463384363 -0.001387919013 -0.001962976469 -0.002062599746 -0.002258210713)
5(-0.00127967711 -0.001219163406 -0.001749423916 -0.001859640946 -0.002052372585)
5(-0.001106912696 -0.001066357369 -0.001559057307 -0.001678423529 -0.001863656836)
5(-0.0009523991077 -0.0009303280527 -0.001391804786 -0.001518121297 -0.001700899119)
5(-0.0008150348363 -0.000809066009 -0.001246546126 -0.001377918011 -0.00155604464)
5(-0.000690976048 -0.000705466854 -0.001113549641 -0.001253994264 -0.001429361377)
5(-0.0005826632164 -0.0006112449114 -0.001001843365 -0.001150390377 -0.001324134381)
5(-0.0004829417176 -0.0005315392174 -0.0009045248547 -0.001060975263 -0.001234920626)
5(-0.0003962042236 -0.0004620668204 -0.0008230403234 -0.000985768141 -0.00115760463)
5(-0.0003181574019 -0.0004046032419 -0.0007571611171 -0.000925324791 -0.001094978531)
5(-0.0002478466079 -0.0003565799023 -0.0007022701276 -0.0008779260337 -0.001049387053)
5(-0.0001847934463 -0.0003182021021 -0.0006613871265 -0.0008456087681 -0.001020156278)
5(-0.0001275311238 -0.0002870471553 -0.0006320008651 -0.0008263893671 -0.001012132235)
5(-7.31841641e-05 -0.0002621760841 -0.0006125760863 -0.0008230438401 -0.001018066928)
5(-2.241346724e-05 -0.0002419501237 -0.0006049630016 -0.0008322816348 -0.001030463194)
5(3.153027188e-05 -0.0002244001826 -0.0006021855862 -0.0008509919607 -0.001040403886)
5(8.486008954e-05 -0.000211683638 -0.0006077568908 -0.0008753747787 -0.001043462789)
5(0.0001399810496 -0.0001957018762 -0.0006150613125 -0.000894316571 -0.001035567878)
5(0.0001948356425 -0.0001788976985 -0.0006248261244 -0.0009019154188 -0.001016487976)
5(0.0002514382219 -0.0001590919957 -0.0006251884021 -0.0008919522104 -0.0009813733021)
5(0.000308406353 -0.0001298324559 -0.0006127523851 -0.0008593744462 -0.0009312349006)
5(0.0003590945884 -9.346276197e-05 -0.0005823511946 -0.0008102156607 -0.0008671554242)
5(0.0004250513709 -4.783077722e-05 -0.0005289490443 -0.0007474802353 -0.000792652609)
5(0.0004841089105 2.309382525e-06 -0.0004603757228 -0.0006721985104 -0.0007092350603)
5(0.0005500582961 6.98611124e-05 -0.0003801457117 -0.0005879113693 -0.0006248061703)
5(0.0006208928298 0.0001437575193 -0.0002904036337 -0.0004984031318 -0.0005359625307)
5(0.0007039892332 0.0002304140559 -0.0001958206101 -0.0004011942355 -0.0004434737528)
5(0.0007831826139 0.0003205086277 -9.626976998e-05 -0.0003007965618 -0.000348988305)
5(0.0008787050681 0.0004175590645 8.001927264e-06 -0.0001961208188 -0.0002535954866)
5(0.0009755269144 0.0005176349191 0.0001177463029 -8.798731629e-05 -0.0001629342446)
5(0.001090439 0.0006260109984 0.0002315441142 1.727432283e-05 -7.602263458e-05)
5(0.00130495919 0.0008129415903 0.0004165959685 0.0001447920088 1.187276685e-05)
5(0.001407353003 0.0009580102015 0.0006513197746 0.0003373276481 0.0001728487552)
)


60
(
5(0.0002361909009 0.003093953537 -0.0001746890893 8.543143013e-05 -0.002673505904)
5(-0.001482101375 0.001883725997 -0.001766565855 -0.001096230567 -0.005176573839)
5(-0.001454801297 0.002139677756 -0.001981093306 -0.001657732507 -0.006467844236)
5(-0.0009883121319 0.002457651602 -0.001899916181 -0.002197122164 -0.007058980395)
5(-0.0005372068863 0.002549352962 -0.001901985235 -0.002893274876 -0.007468600866)
5(-0.0002634271541 0.002378535276 -0.002212306635 -0.003784790403 -0.00813348609)
5(-0.0002562386251 0.001945507766 -0.002796999444 -0.004737859575 -0.008916070401)
5(-0.0004762398983 0.001326295622 -0.003524717218 -0.005601900698 -0.009457298762)
5(-0.0008505504796 0.0006189202132 -0.004211713615 -0.006313242952 -0.009797133635)
5(-0.001275813413 -0.0001641423464 -0.004831018411 -0.006844113494 -0.009839956064)
5(-0.001727755052 -0.000907469596 -0.005314550134 -0.007193680763 -0.009716862026)
5(-0.002197302176 -0.001633633636 -0.005698715157 -0.007359860452 -0.009439234511)
5(-0.002639481925 -0.002254331414 -0.005930541974 -0.007363260789 -0.009058158503)
5(-0.003045483194 -0.002763178683 -0.006043691194 -0.00720948437 -0.008558913821)
5(-0.003339540919 -0.003144673065 -0.006004986336 -0.006938562433 -0.008005576921)
5(-0.003554098567 -0.003399167891 -0.005862925793 -0.006577149928 -0.007405167606)
5(-0.00369132851 -0.003536472414 -0.005619129293 -0.006159734475 -0.006802365718)
5(-0.003732685696 -0.003562500666 -0.005307459132 -0.005710950276 -0.006202131685)
5(-0.003688370848 -0.003497103809 -0.004959148671 -0.005239955713 -0.005635410493)
5(-0.003575204864 -0.003359521882 -0.004579267437 -0.004779379331 -0.00509782531)
5(-0.003397254376 -0.003173634708 -0.004189359519 -0.004335636845 -0.004605938371)
5(-0.003186321088 -0.002945865625 -0.003804717942 -0.003918618686 -0.004154265575)
5(-0.002953779058 -0.002703209804 -0.003436404196 -0.003529536085 -0.00373594135)
5(-0.002694961614 -0.002451377372 -0.003084792418 -0.003170047488 -0.003360307642)
5(-0.002436380616 -0.002203655126 -0.002758090147 -0.002842361945 -0.003022521478)
5(-0.002187360572 -0.001965780323 -0.002461346373 -0.002546942093 -0.002723628202)
5(-0.001944925834 -0.001742952203 -0.002188007067 -0.002280721208 -0.002452372739)
5(-0.001719423939 -0.001534542125 -0.001945032871 -0.002043647124 -0.002210696416)
5(-0.001510072297 -0.001348481563 -0.001723011036 -0.001829118389 -0.001996239127)
5(-0.001319970701 -0.001177281195 -0.001526487818 -0.001641160169 -0.001804654587)
5(-0.001142952637 -0.001022471084 -0.001350420443 -0.001471927445 -0.001637130816)
5(-0.0009862246689 -0.0008855350075 -0.001196752451 -0.001324762449 -0.00148900305)
5(-0.0008427412597 -0.0007622666671 -0.001060590535 -0.001193989931 -0.001356406643)
5(-0.0007125203122 -0.0006566801894 -0.0009394920202 -0.001080472926 -0.001242891132)
5(-0.0005980970824 -0.0005625210204 -0.000837061404 -0.0009834361256 -0.00114887206)
5(-0.0004929225783 -0.0004759204992 -0.0007443618562 -0.0009001498781 -0.001065373209)
5(-0.0003935449828 -0.0004046890591 -0.0006676625942 -0.0008311256501 -0.0009948729199)
5(-0.0003042982758 -0.0003399494564 -0.0006036526448 -0.0007733079266 -0.0009403050244)
5(-0.0002215522707 -0.0002830090907 -0.0005495775076 -0.0007286808962 -0.0009034481527)
5(-0.0001452117154 -0.0002348477817 -0.0005076232405 -0.000697446029 -0.0008840891003)
5(-7.403707548e-05 -0.000190191581 -0.0004729784277 -0.0006815064664 -0.0008816066864)
5(-5.165342079e-06 -0.0001511263044 -0.0004470772736 -0.000677748253 -0.0008862905537)
5(6.026801715e-05 -0.0001133246856 -0.000430114408 -0.0006850166754 -0.0008930614372)
5(0.0001246938715 -7.624001581e-05 -0.0004174519658 -0.0006976935142 -0.0008973255523)
5(0.0001861522901 -4.199913483e-05 -0.0004096052401 -0.0007107524093 -0.0008960209477)
5(0.0002482944557 -6.922014476e-06 -0.0004027031118 -0.0007176148712 -0.0008879801875)
5(0.0003075690436 3.288385936e-05 -0.0003937180073 -0.0007131039357 -0.0008693272082)
5(0.0003637823017 6.729206269e-05 -0.0003783857634 -0.000692476106 -0.0008352700326)
5(0.0004149903582 0.0001042542048 -0.0003488856777 -0.0006549109436 -0.0007864138265)
5(0.0004654367224 0.0001428341208 -0.0003017928089 -0.0006005781038 -0.0007257072497)
5(0.0005122484238 0.0001808360518 -0.0002411592088 -0.0005333404496 -0.0006539882454)
5(0.0005636132166 0.0002270640129 -0.0001695445813 -0.0004548599017 -0.0005747442849)