/*--------------------------------*- C++ -*----------------------------------*\
| =========                 |                                                 |
| \\      /  F ield         | OpenFOAM: The Open Source CFD Toolbox           |
|  \\    /   O peration     | Version:  2.3.1                                 |
|   \\  /    A nd           | Web:      www.OpenFOAM.org                      |
|    \\/     M anipulation  |                                                 |
\*---------------------------------------------------------------------------*/
FoamFile
{
    version     2.0;
    format      ascii;
    class       dictionary;
    location    "constant";
    object      PM32;
}
// * * * * * * * * * * * * * * * * * * * * * * * * * * * * * * * * * * * * * //

PM32_table
60
(

60
(
5(0.03224280111 0.02559597092 0.04273407132 0.03556657812 0.0455870247)
5(0.02036165577 0.009356190882 0.02028769242 0.01905342008 0.07113246862)
5(0.002849328016 0.02487117915 0.02140634013 0.01096956426 0.008275373462)
5(0.00831104896 0.02843267558 0.02760692537 0.01872404992 0.07337471249)
5(0.01828859741 0.02270674748 0.01854809538 0.02625971478 0.01938621402)
5(0.02284084619 0.01640506075 0.01221600837 0.02122000393 0.02053178131)
5(0.01640891952 0.0166519341 0.02088352489 0.02089418623 0.02967444601)
5(0.0151570307 0.02032119255 0.02434797846 0.02192390212 0.01488631791)
5(0.02013493288 0.02074528518 0.02241386769 0.02264843605 0.02574925777)
5(0.01926548564 0.02223509304 0.0253434531 0.02125902401 0.0237570816)
5(0.0205014619 0.02185124981 0.02280653942 0.02132804482 0.02137226257)
5(0.01944673633 0.02162695293 0.02107445368 0.02089641725 0.01914162852)
5(0.01940136533 0.02219681322 0.02123367329 0.02013055385 0.01811094922)
5(0.0207017573 0.02147072078 0.02042875419 0.01818205967 0.01636420561)
5(0.01971492524 0.02089889722 0.01953220417 0.0177748446 0.01499211673)
5(0.02043186031 0.02077047836 0.01904686587 0.01639082056 0.01366074665)
5(0.01957049068 0.01942583257 0.01752326557 0.01491212415 0.01233002573)
5(0.01865690496 0.01822884634 0.01598677209 0.01375446408 0.01121344778)
5(0.01790774563 0.0171960817 0.01500791206 0.01263952113 0.0102560503)
5(0.01727583309 0.0161445574 0.01387975443 0.01160245381 0.009053581738)
5(0.01608910993 0.01474330025 0.01261256623 0.01031337262 0.008051384854)
5(0.01520948216 0.01374624026 0.01158831523 0.009272880508 0.007413919134)
5(0.01429432461 0.01282110532 0.01060850052 0.008738937634 0.006849022213)
5(0.01332627733 0.01197654435 0.009752146518 0.008013706599 0.006293791503)
5(0.01246763791 0.01103049972 0.009082631348 0.007471252006 0.005829014511)
5(0.01155771937 0.01018809041 0.008407068313 0.006933780728 0.005386867153)
5(0.01067767099 0.009341460418 0.007711460918 0.006433800605 0.00499913312)
5(0.009933835759 0.008721133679 0.007200197268 0.00594750755 0.004648630787)
5(0.009334897083 0.008150391084 0.006602446993 0.005487788307 0.004337540554)
5(0.008731362366 0.007648299807 0.006143798685 0.00510092397 0.004054123182)
5(0.008210796004 0.007160031689 0.005763860797 0.004778806347 0.003731590792)
5(0.007655130053 0.006668759343 0.005324145792 0.004362866164 0.003443717536)
5(0.007211958321 0.006327979255 0.005057741458 0.004146785646 0.003320968663)
5(0.006851122446 0.006001851896 0.004768741545 0.003824775727 0.002926566841)
5(0.006484436372 0.005677635585 0.004522226136 0.003611916872 0.002770527171)
5(0.006199989691 0.005451405681 0.004290751818 0.003361071607 0.002631473693)
5(0.005860012225 0.005053145937 0.003865911087 0.003173802069 0.002394925016)
5(0.005651417919 0.004910266356 0.0037717998 0.00294385104 0.002044192915)
5(0.005461103672 0.004687363737 0.003652283416 0.002824156697 0.001882515329)
5(0.00528813686 0.004496518388 0.003477730041 0.002368451916 0.0006783783934)
5(0.005015580864 0.004216627199 0.003163930501 0.002011413043 0.001221321698)
5(0.004808963733 0.00399303397 0.002851131513 0.00130877123 0.001319188187)
5(0.004599671358 0.003747507461 0.002561549971 0.001154069659 0.001492180723)
5(0.004446268383 0.003680417103 0.002590347896 0.001341714043 0.001404445931)
5(0.004185737605 0.003390316671 0.00214462741 0.001313031585 0.001354407637)
5(0.003935873578 0.003122927469 0.001493714666 0.001296319764 0.001271008228)
5(0.003604248305 0.002374476309 0.0009591950635 0.001383646365 0.00120004988)
5(0.003198003494 0.001993980828 0.001152974173 0.001357487426 0.001134008085)
5(0.003127524754 0.001550672338 0.001182217952 0.001291211541 0.001066928605)
5(0.002264629203 0.0009465920008 0.001308986616 0.001222468681 0.000995887083)
5(0.001686757435 0.001277912085 0.001260864156 0.001163944178 0.000925927166)
5(0.001397887598 0.001418841556 0.001208130945 0.001100915094 0.0008564196854)
5(0.001661906355 0.001441570552 0.001158042069 0.001040813797 0.0007905669885)
5(0.001749238976 0.001414683433 0.001115228668 0.0009814889455 0.0007339445852)
5(0.001790096362 0.001389097083 0.001078070977 0.0009348028569 0.0006805369238)
5(0.001912738326 0.001367636227 0.001050102047 0.0008881021462 0.0006365960548)
5(0.002167411743 0.001376851744 0.001041417968 0.0008587015898 0.0005928264915)
5(0.002586095719 0.001532927628 0.001071684591 0.0008739906877 0.0005620917905)
5(0.002969563856 0.001866260273 0.001221981904 0.0006069214919 0.0005486862615)
5(0.001537121877 0.00152714613 0.000888410738 0.0007881156688 0.0006545833202)
)


60
(
5(0.0491143316 0.03937059429 0.06054927569 0.05454146751 0.0620789576)
5(0.03093861605 0.02047682029 0.03675582116 0.03837321087 0.0402976602)
5(0.01331878173 0.02656480674 0.03158139057 0.03119007085 0.01950382222)
5(0.007497094359 0.02928727054 0.03716512602 0.02634623292 0.05164243589)
5(0.01174959589 0.02818314123 0.03574013509 0.03237345109 0.03863284299)
5(0.02251301953 0.02700464413 0.02500938904 0.03168731412 0.03106395455)
5(0.02649818448 0.02666527535 0.02627070006 0.02852058674 0.03526333685)
5(0.02207701841 0.02738423948 0.03052868105 0.02998662987 0.02709978994)
5(0.02685139124 0.02861303786 0.02975736814 0.03046585558 0.02942848338)
5(0.02711930146 0.02978491733 0.03211582179 0.02962293846 0.02924631373)
5(0.02860745483 0.03002136355 0.03169622811 0.02909881586 0.02802845015)
5(0.02891489298 0.0298489413 0.0299570914 0.02812402887 0.02604030315)
5(0.02730415604 0.02969538512 0.02889070378 0.02725994278 0.02449587649)
5(0.02855190354 0.02928861624 0.02804349283 0.02538132281 0.02258845619)
5(0.02752470378 0.02818177275 0.0265816327 0.02404275141 0.02082292072)
5(0.02768977378 0.02765311461 0.02557026758 0.02256957597 0.01915574606)
5(0.02709071028 0.02638666322 0.02414446537 0.02081798204 0.01740701746)
5(0.02607437362 0.02495307988 0.0223005593 0.01912367435 0.01576658443)
5(0.02484427191 0.0234092777 0.02066493487 0.01748373546 0.01435153157)
5(0.02385782324 0.02199878569 0.01914352466 0.01600038577 0.0129550885)
5(0.02249904153 0.02038595952 0.01752475705 0.01455484074 0.01164362088)
5(0.02114773839 0.0188895763 0.01611674288 0.01319305988 0.0105787968)
5(0.01990920678 0.01752224763 0.0147445869 0.01206511409 0.009608445008)
5(0.01847340029 0.01626753176 0.01349736894 0.01103006228 0.008774868692)
5(0.01720587926 0.01502556693 0.01239495527 0.01012384305 0.008034507923)
5(0.01594756174 0.01387570905 0.0114245556 0.009314667042 0.007391270529)
5(0.01477786991 0.01277967467 0.01047953741 0.008585143368 0.006818973214)
5(0.01365917284 0.01180648782 0.009686291881 0.007928859811 0.006314555448)
5(0.01273107192 0.01096350305 0.008941557416 0.007342224618 0.005863666895)
5(0.01182459721 0.01021320599 0.00828255467 0.006804413593 0.005461997513)
5(0.01104139725 0.009530147153 0.00772412734 0.006356134229 0.005102535116)
5(0.0103025836 0.00888543243 0.007184625266 0.005915794359 0.004758661612)
5(0.009629722708 0.008334926844 0.006733125107 0.005541401219 0.004479487194)
5(0.009052622893 0.007847848271 0.006341755593 0.005196877108 0.004182093586)
5(0.008539745083 0.007391654776 0.005964836934 0.004892895487 0.003919423764)
5(0.008076766151 0.00702714193 0.005687297801 0.004625335399 0.003705601546)
5(0.007668989376 0.006623698957 0.005311876431 0.004351572469 0.00352807715)
5(0.007308064528 0.00633916268 0.005049135981 0.004144297904 0.003259069232)
5(0.007005211505 0.006051795244 0.004831305895 0.003917984181 0.003132946513)
5(0.006767350457 0.005808557953 0.004642951295 0.003722544716 0.002716269332)
5(0.00651673987 0.005545882581 0.004388437681 0.003483097266 0.002524209457)
5(0.00627800597 0.005315959848 0.004160832755 0.003113921703 0.002350683784)
5(0.006065594478 0.005053774261 0.003913379707 0.002635831762 0.0022098645)
5(0.005859777462 0.004853341415 0.003801595807 0.002457042206 0.002078666634)
5(0.005649374455 0.004602543229 0.003493286209 0.00229399717 0.001971508891)
5(0.005386930928 0.004363226058 0.003162088922 0.002169473408 0.001859880834)
5(0.005127400315 0.004034296612 0.002522742959 0.002055992269 0.001753302695)
5(0.004791576076 0.003594847975 0.00224456425 0.001952226238 0.001656789716)
5(0.004581249847 0.003380093979 0.00211580222 0.001862024658 0.001568081707)
5(0.004314059095 0.002615998897 0.002023666054 0.001778187499 0.001479353093)
5(0.003985653981 0.002481430384 0.001951250886 0.001709264539 0.001394639892)
5(0.003197054856 0.002409865933 0.001891235598 0.001639469386 0.001309321031)
5(0.002913268197 0.00236454382 0.001835125492 0.001569719243 0.001222916857)
5(0.002869232029 0.002323964493 0.00178554415 0.001496848604 0.001143742024)
5(0.002879699831 0.002290733922 0.001734634081 0.001429750658 0.00106574265)
5(0.003005224484 0.002266513508 0.001689235326 0.001358164082 0.0009936772153)
5(0.003266846082 0.002266435475 0.001656289614 0.001296471344 0.0009271025702)
5(0.003545269076 0.002368845603 0.001655471711 0.001249750801 0.0008686858013)
5(0.003796596088 0.002636847225 0.001828906214 0.001099726384 0.0008393051507)
5(0.002294671756 0.001673084031 0.0008593673833 0.0009486102954 0.0009206608446)
)


60
(
5(0.07203427259 0.06875743202 0.0828529944 0.07751254682 0.07728945321)
5(0.05718383021 0.06228268158 0.06651344612 0.06829362766 0.06454089337)
5(0.05236857503 0.05994597456 0.06121095779 0.06426350159 0.06048141577)
5(0.05205337357 0.05969499862 0.06074599443 0.06242558242 0.05897765469)
5(0.05337115061 0.06004572168 0.06133949377 0.06099640781 0.05716233166)
5(0.05521356989 0.0601619492 0.06120549436 0.05865237011 0.05344945336)
5(0.05613517628 0.05995354181 0.05948719247 0.05573147044 0.04874782556)
5(0.05632664098 0.05912899643 0.05725183745 0.05230284812 0.04411127748)
5(0.05618811336 0.0577017949 0.05461640473 0.04853067001 0.03973781516)
5(0.05595196373 0.05588619709 0.05173669105 0.04461313154 0.03556556241)
5(0.05500325581 0.05361361451 0.04847538542 0.04057571084 0.03146227097)
5(0.05378197014 0.05084823615 0.04491714876 0.03654702134 0.02757400631)
5(0.05193141502 0.04777481219 0.04116755433 0.03268388357 0.024082993)
5(0.04964911274 0.04446071978 0.03743054747 0.02904261775 0.02099042312)
5(0.04699335917 0.04105083808 0.0338087878 0.02574709776 0.01832575664)
5(0.04411978207 0.0376530716 0.03038131837 0.0227812136 0.0160545801)
5(0.04107715855 0.03432587613 0.02719575246 0.02015350614 0.01412913116)
5(0.03799987126 0.03115618935 0.02430840219 0.01788501958 0.01249764896)
5(0.03492519891 0.02821897198 0.02174465343 0.01591860694 0.01112715252)
5(0.03199810534 0.02552356363 0.01948192892 0.01423587437 0.009963402411)
5(0.02921982166 0.02308944116 0.01750660466 0.01280649772 0.009007728698)
5(0.02659669908 0.02091593658 0.01580377033 0.01157487634 0.00818053158)
5(0.02422026858 0.01899072937 0.01431565999 0.01052274396 0.007474972287)
5(0.02210386738 0.01729276026 0.01302148743 0.009629471055 0.006873488013)
5(0.02018770155 0.01579329073 0.01190177663 0.008846232458 0.006354533809)
5(0.01846279744 0.01447110351 0.01091261931 0.008155755724 0.005891293567)
5(0.01693173071 0.01330694059 0.01005127146 0.007548147566 0.005486859356)
5(0.01557411121 0.01226431216 0.009288947137 0.007009434379 0.005134024198)
5(0.01435586744 0.0113319221 0.008607490676 0.006535926126 0.004808980722)
5(0.0132577636 0.01050044285 0.008000349154 0.006107276469 0.004529022429)
5(0.01228029498 0.009752400882 0.007455417166 0.005726394365 0.004271210087)
5(0.01140054699 0.00907844752 0.006970199077 0.005384541931 0.004043075986)
5(0.01060272979 0.008471057427 0.00652957358 0.005076349827 0.003838550817)
5(0.009885756306 0.007922606145 0.00613349487 0.004799884765 0.003653905954)
5(0.009241158328 0.007431995765 0.005779004931 0.00455297334 0.003488155663)
5(0.008655957341 0.006992234561 0.005463182745 0.004331640955 0.003346560295)
5(0.008143287121 0.006603000503 0.005184468209 0.004137638573 0.003219283115)
5(0.007689438904 0.00626251124 0.004938136408 0.003965761913 0.00309750531)
5(0.007300988235 0.00596811624 0.004725109915 0.003810685858 0.002979950923)
5(0.006973543485 0.005719332328 0.004541924875 0.00366962419 0.002860218161)
5(0.006708304717 0.00551151992 0.004382803645 0.003533809832 0.002747190277)
5(0.006507470919 0.005335136897 0.004239131647 0.00339950375 0.002640803797)
5(0.006351423157 0.005185798513 0.004103304161 0.003262897072 0.002544171844)
5(0.006240238659 0.005051962111 0.003962031383 0.003127504676 0.002450978271)
5(0.006157815608 0.004922460767 0.003808674812 0.002996244651 0.00235709814)
5(0.006086921017 0.004788294122 0.003643628655 0.002869009086 0.002262082991)
5(0.006011459188 0.004639185536 0.003472799139 0.002747498006 0.002168105561)
5(0.005911714998 0.004470426234 0.00331695605 0.002634172756 0.002081188027)
5(0.00579283849 0.004299425554 0.003178689879 0.002535210455 0.002003485378)
5(0.005656849202 0.004141307115 0.003064462409 0.002451493533 0.001932479912)
5(0.005525446476 0.004009765904 0.002976097648 0.002380051996 0.001865252483)
5(0.005415698043 0.003914034954 0.002908963209 0.002312515509 0.001796829995)
5(0.005326457237 0.003846921524 0.002850906643 0.00224570825 0.001723380887)
5(0.005259081347 0.003790303683 0.002791685343 0.00217562046 0.001644976734)
5(0.005193049882 0.003737531443 0.002727296453 0.002097956521 0.001562650879)
5(0.005113310731 0.003672909665 0.002650565717 0.002012241614 0.001478726442)
5(0.005011170858 0.003597674017 0.002564322579 0.001919678793 0.001394275876)
5(0.004906663498 0.003518799913 0.002478050928 0.001831624536 0.001316661567)
5(0.004860242144 0.003489539413 0.002422916929 0.001759604595 0.001254315138)
5(0.004984771688 0.003382834044 0.002825774991 0.002059608583 0.001428934063)
)


60
(
5(0.08798385476 0.08536968128 0.09548604962 0.08823568828 0.08254569088)
5(0.07305819227 0.07768968273 0.08161881979 0.08002849075 0.07300366216)
5(0.06801717166 0.07426174015 0.07585244094 0.07497052221 0.06832296172)
5(0.06686724592 0.07289208681 0.07336673008 0.07116092491 0.06439550369)
5(0.06741005939 0.07190845099 0.07161256604 0.06738836392 0.05970548995)
5(0.06792228207 0.07054016818 0.06909299423 0.06303732038 0.05398712072)
5(0.06772790935 0.06869179603 0.06562618381 0.05823695555 0.04801369239)
5(0.06685208359 0.06631185552 0.06168520004 0.05322176354 0.04252094731)
5(0.06555321129 0.06343557549 0.05753343684 0.04821865027 0.03751123791)
5(0.06376982516 0.0600878921 0.05314993655 0.04330187253 0.03290030163)
5(0.0614123524 0.05632051425 0.04861148505 0.03854622218 0.0286130533)
5(0.05862106173 0.05229686202 0.04401283343 0.03408277006 0.02481721241)
5(0.05542050262 0.04811530834 0.03953070958 0.02997627487 0.02147884604)
5(0.05186126885 0.04393450519 0.03529562292 0.02630272451 0.01862703235)
5(0.048171686 0.03985510307 0.03140535302 0.02307088807 0.01624238564)
5(0.04442769565 0.03600567715 0.02788381872 0.02026785218 0.01422312095)
5(0.04063004588 0.03239785277 0.02472360407 0.01784951238 0.01251894131)
5(0.03700171793 0.02909076152 0.02194513476 0.01579271333 0.01111044014)
5(0.03356702879 0.0261051155 0.01952680458 0.01404913295 0.009918192567)
5(0.03039007362 0.0234462752 0.0174470733 0.01257133871 0.008912713879)
5(0.02749993364 0.02109212242 0.01565760808 0.01131036158 0.008051323828)
5(0.02489572114 0.01903274866 0.01411972581 0.01024220475 0.007329094706)
5(0.02254390408 0.01723509545 0.01278657634 0.009322060388 0.006704916962)
5(0.0204947583 0.01566576617 0.01163552242 0.008524087349 0.006160904834)
5(0.01865989594 0.01429718369 0.01063675449 0.007830515753 0.005683060003)
5(0.01705393836 0.01309261666 0.009761370475 0.007220508521 0.005268683695)
5(0.01562379319 0.01203407826 0.008995412157 0.006681207854 0.004892832771)
5(0.01436671252 0.01108686807 0.008307500222 0.00619964849 0.004565708052)
5(0.01323047932 0.01024365641 0.00769522765 0.005772291741 0.004267377336)
5(0.01222145856 0.009484791559 0.007148345547 0.005389572312 0.00400646429)
5(0.0113071655 0.008800172916 0.006655234036 0.005042489666 0.003769227071)
5(0.01048771465 0.008181828102 0.006211275217 0.004734414087 0.003555418897)
5(0.00974137088 0.00762326878 0.005808244341 0.004453139087 0.003368838118)
5(0.009063934511 0.007118155786 0.00544719595 0.004202966847 0.003198977121)
5(0.008455883382 0.006660417575 0.005123541018 0.003978442543 0.003047464721)
5(0.007921692968 0.006250174505 0.004832690923 0.003780018549 0.002914013469)
5(0.007425363284 0.005889037389 0.004578190865 0.003605775083 0.002802098687)
5(0.006984779158 0.005573153015 0.004357434376 0.003453039752 0.002698113278)
5(0.00661263322 0.005303149581 0.004169408175 0.003322421912 0.002599164517)
5(0.006309933923 0.005081915625 0.004012533393 0.003207694353 0.002505319506)
5(0.006077091186 0.004904932215 0.003883979483 0.003105052628 0.002416102046)
5(0.005897645465 0.004771117737 0.003778807982 0.003009177322 0.002335615344)
5(0.005788746104 0.004674466215 0.003691483741 0.002916239587 0.002265212871)
5(0.005733382538 0.004607658555 0.003609329758 0.002826993491 0.002201355817)
5(0.005724018684 0.004556582468 0.00352319833 0.002739512021 0.002134622929)
5(0.005741021691 0.004509100057 0.003426220339 0.002653502727 0.002065114399)
5(0.005760721736 0.004452886402 0.003321370118 0.002567520761 0.001993098994)
5(0.005763921201 0.004377195068 0.003214961341 0.002483134066 0.001926807783)
5(0.005742537093 0.004282409662 0.003117156475 0.002404661273 0.001871723394)
5(0.005686882775 0.004183454096 0.003031232341 0.002342276935 0.001827592798)
5(0.005608563911 0.004091076283 0.002966595131 0.002295207955 0.001792126717)
5(0.005532412326 0.00402473254 0.00292572187 0.002264557485 0.00176307219)
5(0.005475423147 0.003986235884 0.002905534971 0.00224303836 0.001732565024)
5(0.005437827381 0.003972273509 0.002892854493 0.002219744371 0.001698371469)
5(0.005421607702 0.003966815963 0.002882267055 0.002193144723 0.001656724036)
5(0.005413678199 0.003961177678 0.002862498413 0.00215765717 0.001608394527)
5(0.005393747544 0.003947326291 0.002831236567 0.002111767465 0.001554983153)
5(0.005353936128 0.003925515129 0.002801831016 0.002061692352 0.001501522256)
5(0.005255268472 0.003923252989 0.002816532193 0.002037078925 0.001464927146)
5(0.004673953221 0.003322748652 0.003102177305 0.002316073158 0.001557613008)
)


60
(
5(0.09973573806 0.09663793991 0.1027044144 0.09324120523 0.08370301237)
5(0.08439891537 0.08738879989 0.09014164508 0.08532814769 0.07569149683)
5(0.07827677706 0.08276741422 0.08356849504 0.07934620964 0.07035466512)
5(0.07638967018 0.080245247 0.07940664994 0.07414683624 0.06499407637)
5(0.0758045537 0.077974051 0.0757990501 0.06891423337 0.05904473265)
5(0.07513431477 0.07532344104 0.0717191587 0.06331001578 0.05264211751)
5(0.07383660527 0.07230121078 0.0670415999 0.05759730574 0.04625060622)
5(0.07194602974 0.06873372452 0.06206760697 0.05190617023 0.04056990268)
5(0.06945571754 0.06473109415 0.05701663637 0.04640141356 0.03548470667)
5(0.06655563938 0.06040617621 0.05189411038 0.04118382604 0.03091865469)
5(0.06317199057 0.05584331764 0.04680250959 0.03630611333 0.02683393092)
5(0.05943742665 0.05118097696 0.04188431136 0.03185410071 0.02322167322)
5(0.05537453967 0.04654401361 0.03726875 0.02785227668 0.02010716967)
5(0.05114581679 0.04207848246 0.03302367832 0.02433565862 0.0174819439)
5(0.04690385662 0.03783242681 0.02919486736 0.02129714609 0.01524223637)
5(0.04277169507 0.03387534479 0.02579210037 0.01870338457 0.01339868361)
5(0.03882797649 0.03029560405 0.02282130372 0.01648092225 0.01182637441)
5(0.03505833835 0.02709254606 0.02024724696 0.01460497177 0.01051387651)
5(0.03167496723 0.02423479174 0.01801169961 0.01301723829 0.009409042061)
5(0.02847820766 0.02173044635 0.01610421235 0.01166363112 0.008473707286)
5(0.02568103393 0.01955144644 0.01445735053 0.01050614263 0.007666125642)
5(0.02327388174 0.01763342539 0.01304372818 0.009520728568 0.006973414338)
5(0.02107916802 0.01597753706 0.0118322324 0.00866630704 0.006378055014)
5(0.01908548505 0.0145413616 0.01079013784 0.007927441943 0.005861190159)
5(0.01741095498 0.01328454881 0.00987013704 0.007284287664 0.005398003313)
5(0.01591330409 0.01217363414 0.009064992867 0.006715443762 0.004993761157)
5(0.01460570266 0.01118248724 0.008348439826 0.006209742838 0.004634415747)
5(0.01342337519 0.01030472827 0.007714560055 0.005759737145 0.004309348028)
5(0.01238631422 0.009519752245 0.007144944919 0.00535532336 0.004024120047)
5(0.01144991742 0.008815965374 0.006632966748 0.004991519677 0.003761550533)
5(0.0106028886 0.008181241036 0.006172427425 0.004665849373 0.003532604851)
5(0.009832200709 0.007605757703 0.005756139914 0.004367931765 0.003319096309)
5(0.009139109489 0.007082200667 0.005377848548 0.004101507736 0.003131608178)
5(0.008503328775 0.00660667258 0.005031853199 0.003859304503 0.002969480441)
5(0.007934891191 0.006171953578 0.004722181175 0.003642249857 0.002816463255)
5(0.007410659643 0.005782957132 0.004445636219 0.003450066547 0.002682890136)
5(0.006935380927 0.00543894281 0.004200347223 0.003282412304 0.00256960867)
5(0.006517247619 0.005136382852 0.003988753031 0.003136879295 0.0024716237)
5(0.006155530673 0.004876231278 0.003806026051 0.00301247806 0.002375849473)
5(0.00586144505 0.004661058634 0.003656120048 0.002907827757 0.002290608313)
5(0.005623976371 0.004492474047 0.003539961524 0.00281691244 0.002209176617)
5(0.00544784282 0.004370984088 0.003452172339 0.002738212725 0.002139134302)
5(0.005340610443 0.004294841229 0.00338888492 0.002670245311 0.002082682814)
5(0.005288931743 0.004257199906 0.003340209783 0.0026088117 0.002032501574)
5(0.005286285117 0.004247362694 0.003298875936 0.002551613417 0.001983033378)
5(0.005323551094 0.00425024673 0.003253345792 0.002494782354 0.001927621925)
5(0.005374428133 0.004251358571 0.003201538205 0.002434138601 0.001867637708)
5(0.005432551734 0.00423782836 0.003141957923 0.00237206623 0.001810892289)
5(0.005466844944 0.004202913927 0.003072885651 0.002309150908 0.001758243567)
5(0.005466485864 0.004147495897 0.003009095945 0.002253120465 0.001719003012)
5(0.005432337941 0.00407826925 0.002954866777 0.002213812856 0.001693396967)
5(0.005372962012 0.004017191305 0.002917852389 0.002191935093 0.001677738448)
5(0.005298605161 0.003968995737 0.002906400915 0.002187361775 0.001670834063)
5(0.005247160257 0.003951488617 0.002912316079 0.002193298062 0.001667155618)
5(0.005200338744 0.003953607419 0.002924870606 0.002198284443 0.001659209908)
5(0.005203431958 0.003968243312 0.002937185087 0.002199492482 0.001645144681)
5(0.005207591487 0.00397806378 0.002943988524 0.00219487134 0.001626259981)
5(0.005213053694 0.003980684624 0.002941934335 0.002183619925 0.001606287764)
5(0.005053347481 0.003874487965 0.002899000434 0.002180442601 0.001597141794)
5(0.004410644142 0.003537292596 0.002800093211 0.002216734063 0.001667902312)
)


60
(
5(0.108719727 0.1046792355 0.1067726848 0.09524551963 0.08322915079)
5(0.0925963804 0.09386041799 0.09488489983 0.08746489374 0.07604976064)
5(0.08545902892 0.08814282808 0.08761789376 0.08091630866 0.07042609833)
5(0.08267384359 0.08455516916 0.08220822902 0.07485538133 0.06456887825)
5(0.0811265833 0.08121756478 0.07729324293 0.0687779526 0.05805603118)
5(0.07944090118 0.07756214683 0.07222978869 0.06253989327 0.05143099501)
5(0.07714667211 0.0735924819 0.06678703759 0.05635049202 0.04503283955)
5(0.07430486365 0.0692027685 0.06120247611 0.05036196557 0.03929808053)
5(0.07095517197 0.0644486986 0.05565489436 0.04471602487 0.03429588425)
5(0.0671991725 0.05952852567 0.05021690882 0.03944921762 0.0297879285)
5(0.06312158054 0.05454911072 0.04495778078 0.03465103386 0.02590493531)
5(0.05879424143 0.04961446661 0.04000618164 0.03031152722 0.02246434009)
5(0.05423212738 0.04483544944 0.0354197587 0.02648244646 0.01953732836)
5(0.0496862039 0.04027825524 0.03130336881 0.02314690603 0.01698800422)
5(0.04520693813 0.0360408914 0.02762610779 0.02027949613 0.01489331739)
5(0.04093479678 0.03217416621 0.02440716798 0.0178374003 0.01310230958)
5(0.03699034595 0.02871532461 0.02159445821 0.01576491444 0.01161110452)
5(0.03331340853 0.02564367323 0.01916589927 0.01400236234 0.01033887548)
5(0.02993138048 0.02292494742 0.01707536577 0.01249125312 0.009277525707)
5(0.02697729445 0.02057594935 0.01529331168 0.0112073832 0.008346834721)
5(0.02432344945 0.01852928554 0.01375744006 0.01011387355 0.007565276316)
5(0.02194219772 0.01673252118 0.01244059116 0.009171386868 0.006888085801)
5(0.01991796537 0.01517690834 0.01130116472 0.008359425438 0.006285575802)
5(0.01811385105 0.01383404113 0.0103100861 0.00765312366 0.005770135735)
5(0.01653371378 0.01264808207 0.00944055882 0.007032840104 0.005312435156)
5(0.01514494794 0.01160740818 0.008676310268 0.006485989745 0.004915038371)
5(0.01391527193 0.01067347233 0.007999814134 0.005996830594 0.004545933202)
5(0.01284050774 0.009848993273 0.007398833967 0.005556114851 0.004220219604)
5(0.01187572365 0.009110906109 0.006855039917 0.005162715383 0.003936224793)
5(0.01096930446 0.00844412346 0.006361831325 0.004807438866 0.003674081126)
5(0.01017065861 0.007838949322 0.005917379753 0.004487535877 0.003440416783)
5(0.009445303507 0.007292718836 0.005515469708 0.004193800218 0.003239273941)
5(0.00879223861 0.006794961229 0.005147359752 0.003929355727 0.003031927916)
5(0.008183240717 0.0063321799 0.004810980373 0.003689005317 0.002862278063)
5(0.007628723809 0.005911415883 0.004507626425 0.003472386631 0.00270792182)
5(0.007124136325 0.005534034359 0.004235958718 0.003278741313 0.00257074986)
5(0.006671208081 0.005192910472 0.003989832359 0.003109293503 0.002452628795)
5(0.006264302338 0.00489118164 0.003775205127 0.002961073815 0.002346325148)
5(0.005903517997 0.004629117214 0.003591460613 0.002833105487 0.002252943317)
5(0.005591071726 0.004409282604 0.003440454484 0.002726105956 0.002163252127)
5(0.00533427988 0.004236682274 0.003321942912 0.002635634149 0.002084959725)
5(0.005138771261 0.004110015528 0.003236145343 0.002562601908 0.002022794974)
5(0.005000502306 0.004028443106 0.003179462245 0.002503903592 0.001971255564)
5(0.004921529622 0.003990733354 0.003145555061 0.002459261435 0.001932884209)
5(0.004894430586 0.003987505651 0.003126774957 0.002424114444 0.001895226953)
5(0.004908049076 0.004006292391 0.00311576074 0.002392322716 0.001855687579)
5(0.0049657775 0.004034987876 0.003102288025 0.002357856248 0.00180769597)
5(0.00503461655 0.004058510164 0.003079440811 0.002317527312 0.00175845634)
5(0.00510194252 0.004064716677 0.003044467153 0.002271667247 0.001709874208)
5(0.005146759924 0.004045895134 0.003001238782 0.002227026034 0.001668549158)
5(0.005164204422 0.003998412334 0.002953119679 0.00218996128 0.001640210485)
5(0.005146101516 0.003935029405 0.002910558284 0.002167975111 0.001626520797)
5(0.005080491313 0.003869822267 0.002888610275 0.002164677953 0.001626897449)
5(0.004991680253 0.003821497438 0.002885123158 0.002174917068 0.001634850864)
5(0.00490506594 0.003803751548 0.002897413713 0.002196039352 0.001647127829)
5(0.004836593564 0.003806040923 0.00291749538 0.002217952074 0.001658084738)
5(0.00482238092 0.003823503759 0.002934313292 0.002235805078 0.001666052878)
5(0.004843133674 0.003836955524 0.002936003074 0.002243169835 0.001669595247)
5(0.004734338956 0.003657973178 0.002785918813 0.002200517937 0.001664755977)
5(0.004145161758 0.003189439141 0.002726227214 0.002156948346 0.001709053167)
)


60
(
5(0.1158454796 0.1107439295 0.1088921523 0.09568874992 0.08207894288)
5(0.09875620806 0.09846594612 0.09743803562 0.08806661759 0.07562119615)
5(0.09075185388 0.09166626514 0.08962504182 0.08122124337 0.06985775034)
5(0.08702899497 0.0871667549 0.08339381709 0.07469450639 0.0639748704)
5(0.08454764704 0.08295533725 0.07765850712 0.06815829115 0.05738762358)
5(0.08198095615 0.07845466638 0.07188674222 0.06161496858 0.05067789856)
5(0.07894401204 0.07376717534 0.06589696086 0.05517302656 0.04438314212)
5(0.07530074135 0.06880620372 0.05994616619 0.04909630625 0.03860670607)
5(0.07129812986 0.06366712799 0.05418527357 0.04344388086 0.03366385652)
5(0.06693732833 0.05842989852 0.04869325239 0.03826587757 0.02939264906)
5(0.06236418819 0.05319581873 0.04344656094 0.03358069631 0.02558391006)
5(0.05757640306 0.04811990203 0.0385595169 0.02939657808 0.02224760901)
5(0.05285590339 0.04331808788 0.03410502604 0.02572257026 0.01938030987)
5(0.04817220301 0.03879209124 0.0301135655 0.02253333091 0.01692680708)
5(0.04365506227 0.03466469398 0.02660942784 0.01979179301 0.01489628768)
5(0.03943983344 0.03093977299 0.02353898996 0.01743818623 0.01313684377)
5(0.0354252417 0.02759518302 0.02086101382 0.0154455861 0.01168197558)
5(0.0319415279 0.02465730522 0.01854834948 0.01374920284 0.01042520261)
5(0.02862268449 0.02207548497 0.01656133631 0.012301485 0.009343709455)
5(0.02585028129 0.01982234846 0.01486264327 0.01106423781 0.008410801305)
5(0.02331429596 0.01787358122 0.01340429359 0.009995801597 0.007613046593)
5(0.02107534808 0.0161745581 0.01214565423 0.009073225283 0.006940827235)
5(0.01918177163 0.01469638432 0.01104931763 0.008275260702 0.006355532054)
5(0.01746322324 0.01340895424 0.0100900862 0.007579836834 0.005819044012)
5(0.01597510479 0.01228014506 0.009250802313 0.006966968098 0.00535530308)
5(0.01466751167 0.01128098322 0.008507795726 0.00642418121 0.00494449185)