/*--------------------------------*- C++ -*----------------------------------*\
| =========                 |                                                 |
| \\      /  F ield         | OpenFOAM: The Open Source CFD Toolbox           |
|  \\    /   O peration     | Version:  2.3.1                                 |
|   \\  /    A nd           | Web:      www.OpenFOAM.org                      |
|    \\/     M anipulation  |                                                 |
\*---------------------------------------------------------------------------*/
FoamFile
{
    version     2.0;
    format      ascii;
    class       dictionary;
    location    "constant";
    object      PM39;
}
// * * * * * * * * * * * * * * * * * * * * * * * * * * * * * * * * * * * * * //

PM39_table
60
(

60
(
5(-0.9698283913 -1.896137419 -1.021799561 -1.007194074 -1.282350899)
5(-1.841119139 -0.8350953982 -0.6472655305 -0.8892109409 -2.65845113)
5(-0.9889305582 -0.5097249774 -0.6304830508 -1.22298545 -0.8393438259)
5(-0.6893318446 -0.5048039121 -0.7050539824 -0.7364843586 -0.2805926007)
5(-0.5391492949 -0.6276708771 -1.012188047 -0.6913262826 -1.277543988)
5(-0.5504520327 -0.8003198241 -0.9331838194 -0.8421442727 -0.9748859077)
5(-0.7671334098 -0.7877591599 -0.6601702094 -0.7565616383 -0.7546185353)
5(-0.7364185219 -0.6835832862 -0.6344027028 -0.7650238681 -1.053869173)
5(-0.6986654211 -0.6826929595 -0.6559142788 -0.7505338974 -0.7109446943)
5(-0.7053061586 -0.6589498274 -0.6373685958 -0.7732899582 -0.762623524)
5(-0.678779035 -0.6679818227 -0.7033395925 -0.7565227201 -0.8148131884)
5(-0.6748579541 -0.6763674242 -0.7121990055 -0.7391715622 -0.8310365818)
5(-0.6509000002 -0.663627244 -0.6737744853 -0.7378067909 -0.8052398806)
5(-0.6573113933 -0.670418885 -0.6736293679 -0.7450417 -0.797590291)
5(-0.6566436869 -0.6582728615 -0.6507796483 -0.7037760904 -0.784870822)
5(-0.6366388639 -0.6416559301 -0.6356547629 -0.6998985984 -0.7563590361)
5(-0.6289979839 -0.6327487142 -0.6333559332 -0.6842034606 -0.7423877566)
5(-0.6173255831 -0.6202805311 -0.6205501794 -0.6767519754 -0.7480197851)
5(-0.5976890643 -0.5993748437 -0.6051631139 -0.6656497756 -0.7361752853)
5(-0.5807646263 -0.5919454886 -0.5970077603 -0.659456354 -0.7454495465)
5(-0.5769279048 -0.5908158571 -0.5877068267 -0.671814645 -0.7375497965)
5(-0.5584769911 -0.5653374716 -0.5727942855 -0.6419079542 -0.7029957644)
5(-0.5453910306 -0.5460257318 -0.5507047548 -0.5959948785 -0.6779778455)
5(-0.5214688352 -0.5273242293 -0.5307647278 -0.5880345449 -0.6827024844)
5(-0.5011818995 -0.5143639499 -0.5056924283 -0.5670516222 -0.664634068)
5(-0.4817510325 -0.4928215826 -0.4915240195 -0.5597852046 -0.6639880716)
5(-0.4643536923 -0.4753283173 -0.473855212 -0.5452547705 -0.6516871315)
5(-0.4362035816 -0.4445705044 -0.4487962145 -0.5364607322 -0.6442457836)
5(-0.4106859293 -0.4208872422 -0.4353078968 -0.5249331639 -0.6307705903)
5(-0.3816336191 -0.3965664056 -0.4126447985 -0.5034162764 -0.6180937476)
5(-0.3542289479 -0.3751319646 -0.3915744459 -0.4956006919 -0.6354715122)
5(-0.3307975763 -0.3530890953 -0.3770710728 -0.5023591745 -0.621409596)
5(-0.2975920923 -0.3217095335 -0.3492788764 -0.464613717 -0.5760768445)
5(-0.2646325327 -0.2977474643 -0.3396333735 -0.4741171049 -0.6351224941)
5(-0.2394531892 -0.2737713251 -0.3140494164 -0.4558033152 -0.6036488907)
5(-0.2037807806 -0.2506782597 -0.323694258 -0.4704592289 -0.6027563513)
5(-0.1893350497 -0.2443319352 -0.3201816028 -0.4384969891 -0.6643517899)
5(-0.1557495545 -0.2222036075 -0.2811917515 -0.4915530426 -0.7519437934)
5(-0.1376102588 -0.2072958469 -0.269159972 -0.4441666089 -0.9446182729)
5(-0.1310598787 -0.1971532259 -0.285358692 -0.7647476226 -1.871121707)
5(-0.129404658 -0.1976140951 -0.2945837754 -0.8827167767 -1.145411069)
5(-0.1155156411 -0.1923568625 -0.3730962194 -1.21359144 -0.9519563687)
5(-0.1222554015 -0.1922970013 -0.5308254621 -0.9684119121 -0.6028796015)
5(-0.1211570568 -0.1759902033 -0.5763366358 -0.6409386383 -0.5897579983)
5(-0.1445691296 -0.2029722769 -0.6013288999 -0.616872271 -0.6953371408)
5(-0.142187244 -0.2496109627 -0.8637010733 -0.6466600747 -0.6544066661)
5(-0.1803958648 -0.5030506611 -0.8007347242 -0.4948685322 -0.669009703)
5(-0.2663854249 -0.5129592464 -0.4952007224 -0.472792516 -0.7190194395)
5(-0.286048352 -0.7311742232 -0.443673002 -0.4890201901 -0.7502272092)
5(-0.9232990859 -0.6134501544 -0.3064486984 -0.5107558457 -0.7759052347)
5(-0.8502530851 -0.3825095626 -0.362053626 -0.5731038963 -0.7968750763)
5(-0.3241884085 -0.3288716797 -0.3991754381 -0.6070442366 -0.8119659835)
5(-0.2494337817 -0.3593152676 -0.4458120247 -0.6376030717 -0.8133456107)
5(-0.2757785824 -0.4005544964 -0.5068953264 -0.667345389 -0.8732330163)
5(-0.3681625976 -0.4805390624 -0.5672367295 -0.7150958125 -0.8725429168)
5(-0.4954639353 -0.5417687268 -0.6148464325 -0.738911377 -0.9175825647)
5(-0.6619539254 -0.619935005 -0.6731141458 -0.8390956262 -1.044815882)
5(-0.829174923 -0.7547036959 -0.8019970956 -0.9816135906 -0.9135212951)
5(-0.9097599121 -0.9292121924 -1.078591745 -1.010522814 -0.9024668681)
5(-0.9691589383 -1.394223011 -1.785726916 -1.730077625 -1.795440924)
)


60
(
5(-0.6716938144 -0.6873819614 -0.6795714753 -0.7015381699 -0.7542556944)
5(-0.6497388327 -0.7445081739 -0.6245566296 -0.6770456854 -0.6750900739)
5(-0.7297041635 -0.6943719722 -0.6471511174 -0.7012667224 -0.7494075537)
5(-0.826548968 -0.6839683352 -0.6558527048 -0.7382921562 -0.7126526112)
5(-0.7951091072 -0.6915038196 -0.6649240805 -0.7203907232 -0.7509863631)
5(-0.711605925 -0.6967258759 -0.7061846874 -0.7224521361 -0.7952920128)
5(-0.6794015072 -0.6967809043 -0.6905516493 -0.7282753272 -0.749835826)
5(-0.6949716581 -0.692546452 -0.6679488267 -0.7160899568 -0.7857883312)
5(-0.6879485662 -0.6846910619 -0.6662312262 -0.7094057392 -0.7607384648)
5(-0.6922276553 -0.6774007451 -0.6560822289 -0.7087862348 -0.7559290992)
5(-0.6871072577 -0.6727817683 -0.6530651467 -0.7061525266 -0.7518615828)
5(-0.6732923689 -0.6682476914 -0.654313055 -0.7019953034 -0.7527301372)
5(-0.664137617 -0.6623926572 -0.6520885301 -0.6928591764 -0.7475219542)
5(-0.653245686 -0.655904752 -0.6474083072 -0.6923947448 -0.7420432852)
5(-0.6493486396 -0.6503837131 -0.6402855667 -0.6835238701 -0.7350745441)
5(-0.6423723133 -0.6424279897 -0.6334218009 -0.675650019 -0.7283219897)
5(-0.6351065501 -0.6347119079 -0.6270020053 -0.6687120186 -0.7212220835)
5(-0.6255321125 -0.6262524651 -0.6210585325 -0.6620267614 -0.7166083827)
5(-0.6172223918 -0.6173951631 -0.6136549785 -0.6573713765 -0.7104237488)
5(-0.6063240948 -0.6083151345 -0.6055546226 -0.6500332507 -0.7036071697)
5(-0.5981024688 -0.6017029009 -0.5973111747 -0.6447424767 -0.6984793145)
5(-0.5902209149 -0.591647385 -0.5878868001 -0.6346608417 -0.6905836645)
5(-0.579107803 -0.5803715433 -0.5776702832 -0.6250690508 -0.6811024022)
5(-0.5672137277 -0.5697895363 -0.5679081775 -0.6141900926 -0.6732909479)
5(-0.5544571838 -0.5591425566 -0.5575740786 -0.6037605424 -0.662813647)
5(-0.5414541281 -0.5472040892 -0.5471456064 -0.5952359877 -0.6535493687)
5(-0.5285542037 -0.5344210215 -0.5353688262 -0.5868191364 -0.6438471045)
5(-0.5139057819 -0.5204770017 -0.5231700925 -0.5770383934 -0.6340727818)
5(-0.4991866115 -0.5067911265 -0.5099909552 -0.5649921125 -0.6239687204)
5(-0.4842478158 -0.4935819977 -0.4961993733 -0.5515686382 -0.6160141248)
5(-0.4697755714 -0.4795418323 -0.4829563796 -0.5410511975 -0.6056637534)
5(-0.4543148345 -0.4639218365 -0.4660982826 -0.5271559582 -0.5923684232)
5(-0.4375511975 -0.4496512159 -0.4518422683 -0.5142862765 -0.5830445752)
5(-0.4220096146 -0.4354809483 -0.439450388 -0.5001577551 -0.5653410015)
5(-0.4059911814 -0.4208263002 -0.4245538076 -0.4861772595 -0.5526552907)
5(-0.3905634462 -0.4105569223 -0.4186581339 -0.4731344915 -0.540440719)
5(-0.3751450061 -0.391877919 -0.3927171641 -0.453629321 -0.5261886153)
5(-0.3609979922 -0.3837352391 -0.3794343421 -0.4419402977 -0.5010045117)
5(-0.3508000198 -0.37196854 -0.3698590879 -0.424622553 -0.4975751696)
5(-0.3472313348 -0.365220125 -0.3683664404 -0.4150818016 -0.4591716936)
5(-0.3401873679 -0.3519372249 -0.3463083745 -0.3967073783 -0.4334764696)
5(-0.329866303 -0.3442631577 -0.331344034 -0.3480610761 -0.4211897619)
5(-0.3274198561 -0.3305877182 -0.3135898095 -0.2785866721 -0.4126600218)
5(-0.3321657804 -0.3373895172 -0.3527685454 -0.269341493 -0.4207979676)
5(-0.3399930407 -0.333859189 -0.328126336 -0.263553321 -0.4493915625)
5(-0.3376842411 -0.3430124383 -0.2980887047 -0.287668596 -0.4852258101)
5(-0.3422906977 -0.328041074 -0.1749971051 -0.3184366491 -0.5194654966)
5(-0.3420125823 -0.2760449332 -0.1564885759 -0.3577893147 -0.5636114394)
5(-0.3645583429 -0.3058017915 -0.1851577027 -0.4093804208 -0.6081765604)
5(-0.3816057465 -0.164908787 -0.2321880472 -0.4594379893 -0.6524343302)
5(-0.3795644255 -0.200174883 -0.2906915568 -0.5208901734 -0.710309891)
5(-0.2379253299 -0.2632730185 -0.3580704283 -0.5856761794 -0.7653298814)
5(-0.2481625692 -0.3423641766 -0.4335661536 -0.661775974 -0.8150504782)
5(-0.3350770195 -0.42821548 -0.5243701817 -0.7293717507 -0.8620807006)
5(-0.433062979 -0.5256571495 -0.6170312942 -0.8008056967 -0.909078324)
5(-0.5872788725 -0.6361494333 -0.709969446 -0.8647197242 -0.9531887197)
5(-0.7744455732 -0.7486980064 -0.8043839932 -0.9359306335 -1.005330202)
5(-0.9371651114 -0.8885398237 -0.9194961801 -1.02193911 -1.038920751)
5(-1.174982255 -1.158522755 -1.275153389 -1.136302818 -1.175280869)
5(-1.455249761 -1.82015946 -2.147682948 -1.987145565 -1.54279186)
)


60
(
5(-0.6926982289 -0.6851195576 -0.7074125255 -0.7338580528 -0.7649288718)
5(-0.6837267287 -0.6842844835 -0.6840930206 -0.7191368383 -0.7304088181)
5(-0.6856912476 -0.685310103 -0.6820783823 -0.7193630602 -0.7344578962)
5(-0.6884706903 -0.6869403922 -0.6882861858 -0.7238330983 -0.7397961788)
5(-0.6913770986 -0.6891836253 -0.6930524511 -0.7276008298 -0.7436680078)
5(-0.6947881375 -0.692155872 -0.6980089244 -0.7305121858 -0.7481299789)
5(-0.6975869905 -0.694065427 -0.7000336322 -0.7326670545 -0.7506034792)
5(-0.6983109659 -0.6949727788 -0.7010028416 -0.7347036061 -0.7519031956)
5(-0.6990899865 -0.6960327892 -0.7017829217 -0.7359298012 -0.7524367529)
5(-0.7011204934 -0.6974220005 -0.703034012 -0.7371891675 -0.753199853)
5(-0.7016486001 -0.698760811 -0.7042722723 -0.739796281 -0.7571782314)
5(-0.7030316184 -0.6994438368 -0.7065349758 -0.7427318102 -0.7593928751)
5(-0.7041488389 -0.7006264601 -0.7084942282 -0.7442920873 -0.7614546529)
5(-0.7057264474 -0.7016410458 -0.7100755612 -0.7476163427 -0.7644989162)
5(-0.7065466927 -0.7028918034 -0.7124887577 -0.7495976202 -0.7655787016)
5(-0.7073451739 -0.7041986424 -0.7144026238 -0.7513327931 -0.7691554052)
5(-0.7086905312 -0.7057349707 -0.7167505251 -0.7545827875 -0.7729658551)
5(-0.7097216641 -0.707883673 -0.7192945111 -0.7579612295 -0.7768555938)
5(-0.7119597449 -0.7095982913 -0.7219182817 -0.7619362149 -0.7795428383)
5(-0.713903116 -0.7113971412 -0.7255179231 -0.7663043746 -0.7847891257)
5(-0.7150760873 -0.7146291793 -0.7296439294 -0.7711707852 -0.7897738951)
5(-0.7178503491 -0.7187581655 -0.7338141118 -0.7767928459 -0.7960634806)
5(-0.7213723008 -0.7221551581 -0.7380325007 -0.7827065684 -0.8030750337)
5(-0.725214397 -0.7263891574 -0.7443507231 -0.7896512549 -0.8107660881)
5(-0.7291357544 -0.7317270025 -0.7504547057 -0.7975549556 -0.818187349)
5(-0.7349573072 -0.7383142145 -0.7587247428 -0.8063271817 -0.8257905449)
5(-0.7419717486 -0.7448615449 -0.7664469677 -0.8150310157 -0.8335429814)
5(-0.7482399654 -0.7528563036 -0.7748746781 -0.8249936872 -0.8427020098)
5(-0.7572715622 -0.7629329019 -0.7848864388 -0.8352610897 -0.852623894)
5(-0.7672740519 -0.7724961815 -0.7949585086 -0.8461445007 -0.8615428826)
5(-0.77821274 -0.7839327897 -0.8070104314 -0.8577442869 -0.8710746225)
5(-0.7916082451 -0.7968961104 -0.8190522116 -0.8694758369 -0.8809927876)
5(-0.8058696603 -0.8097123355 -0.8311515423 -0.8814233705 -0.890322862)
5(-0.8214721686 -0.823888383 -0.8446440486 -0.8929565958 -0.8983231872)
5(-0.8389552064 -0.8392661107 -0.8580730538 -0.9038431487 -0.906316526)
5(-0.8553436902 -0.8537696058 -0.8713926151 -0.914883998 -0.9123300358)
5(-0.8727020124 -0.8695921896 -0.8855834361 -0.9237978357 -0.9185242075)
5(-0.8929513598 -0.8861299578 -0.8979010217 -0.9324745761 -0.9238824473)
5(-0.9128689415 -0.9010100671 -0.9099330277 -0.9416143484 -0.9270341605)
5(-0.93262423 -0.9171716895 -0.9209531395 -0.9484572744 -0.9276938394)
5(-0.9512661432 -0.9294505539 -0.9292677336 -0.9533064607 -0.9218071134)
5(-0.9683655153 -0.9448988291 -0.9387372714 -0.9549421655 -0.914104771)
5(-0.9859931493 -0.9567006165 -0.9453728311 -0.9533160153 -0.9059709279)
5(-1.002479482 -0.965047756 -0.9515498222 -0.9491850861 -0.8995937228)
5(-1.018342245 -0.9761848217 -0.9545151555 -0.9413420978 -0.8933107118)
5(-1.031141905 -0.9852512094 -0.9565317134 -0.932870654 -0.8864291519)
5(-1.044543011 -0.9936833085 -0.9521186021 -0.9250488944 -0.8823663668)
5(-1.057176278 -0.9985156734 -0.9471536881 -0.9223402282 -0.8838027553)
5(-1.07164259 -1.003980225 -0.9437872544 -0.9209974602 -0.8884442449)
5(-1.080791855 -1.006875684 -0.9391047387 -0.9206761317 -0.8953337951)
5(-1.091650231 -1.005986469 -0.9340985801 -0.9249072644 -0.9095932018)
5(-1.100580547 -1.003567088 -0.9362039937 -0.9423473261 -0.9411083342)
5(-1.106015488 -1.004871964 -0.9458269834 -0.9630991089 -0.971927944)
5(-1.108781642 -1.008659433 -0.9592058963 -0.9905742832 -1.007734904)
5(-1.109121775 -1.019655403 -0.9809228849 -1.023721301 -1.040919497)
5(-1.111352041 -1.033808126 -1.009459848 -1.058630584 -1.075098484)
5(-1.116850094 -1.053015254 -1.043885665 -1.091131358 -1.111252312)
5(-1.135251791 -1.088027187 -1.084777938 -1.132586258 -1.161456552)
5(-1.325340436 -1.245692201 -1.336702253 -1.367070085 -1.309027575)
5(-1.563730223 -2.109101715 -2.005965088 -1.311839723 -1.223573549)
)


60
(
5(-0.7160877349 -0.7081522925 -0.7324136186 -0.7625129218 -0.782733172)
5(-0.715418527 -0.7119655751 -0.7214339502 -0.7550520972 -0.7647577704)
5(-0.7191846422 -0.7167224407 -0.7198824628 -0.7565705921 -0.766520264)
5(-0.723174964 -0.7200616377 -0.7262796619 -0.7615663682 -0.7702743274)
5(-0.7281747314 -0.7239785037 -0.7321205608 -0.7663884978 -0.7763965676)
5(-0.7331922911 -0.7282757646 -0.7379132158 -0.7714619985 -0.7823074386)
5(-0.7373997869 -0.7318621409 -0.7421965888 -0.7758365821 -0.7865996723)
5(-0.7408034193 -0.7352114535 -0.7453226933 -0.7791261332 -0.7898703702)
5(-0.7440701309 -0.7380382162 -0.7480975138 -0.7825134889 -0.7929419079)
5(-0.7467453354 -0.7413704714 -0.7512172612 -0.7864066853 -0.7970651902)
5(-0.7501553419 -0.7447420378 -0.7552417189 -0.7913236441 -0.8018432203)
5(-0.7538279553 -0.7480864547 -0.7597847393 -0.7956815345 -0.8064423741)
5(-0.7572501471 -0.7521050297 -0.7639297673 -0.8004896784 -0.8123633286)
5(-0.7612057349 -0.7560404043 -0.7681851503 -0.8062365948 -0.817886895)
5(-0.7653595747 -0.7601207759 -0.7728987546 -0.8120083987 -0.8228947039)
5(-0.7696800808 -0.7642766979 -0.7782264314 -0.8178044213 -0.829472364)
5(-0.7740953379 -0.7687105889 -0.784070753 -0.8253269887 -0.8359927272)
5(-0.7792747177 -0.7739951406 -0.7905285886 -0.832113669 -0.8422482393)
5(-0.7842038666 -0.7796075096 -0.7973272004 -0.8388823538 -0.8508466299)
5(-0.7902367148 -0.7863413078 -0.8044592897 -0.847566867 -0.8590843353)
5(-0.79693968 -0.7928204007 -0.8119042719 -0.8566501608 -0.8689836799)
5(-0.8032805169 -0.800098877 -0.8206569415 -0.866117376 -0.8772854764)
5(-0.8102885328 -0.8092096137 -0.8304556062 -0.8762561724 -0.8872405673)
5(-0.8204705477 -0.8188733356 -0.8399434997 -0.88730795 -0.8987218802)
5(-0.8300320272 -0.8275737913 -0.8506615794 -0.8994863167 -0.9097805009)
5(-0.8399543592 -0.8390064844 -0.863265205 -0.9124251314 -0.9226124392)
5(-0.8517348683 -0.8504428708 -0.8756587364 -0.925919738 -0.9354101655)
5(-0.8640708743 -0.863704147 -0.8895417547 -0.9406010895 -0.9483422377)
5(-0.8783907557 -0.8773244035 -0.9037281452 -0.9551205262 -0.9627752172)
5(-0.8929977551 -0.8918478852 -0.9188201157 -0.9705263124 -0.9764197934)
5(-0.9091639665 -0.907756651 -0.9353570372 -0.9867590946 -0.9916921638)
5(-0.9259980155 -0.9241056785 -0.9510346415 -1.002209163 -1.005391593)
5(-0.9437974985 -0.9399876151 -0.9678076736 -1.018648241 -1.017872073)
5(-0.9624749052 -0.9585904475 -0.9853177391 -1.034163982 -1.030746002)
5(-0.9818635871 -0.9763568317 -1.001340253 -1.049392375 -1.043324295)
5(-0.9999334324 -0.9942113334 -1.018405253 -1.063102562 -1.05383598)
5(-1.019805755 -1.011821565 -1.034189263 -1.076157525 -1.064774302)
5(-1.039573211 -1.028492785 -1.048944291 -1.089010122 -1.074526297)
5(-1.058002367 -1.044436942 -1.062885177 -1.100136121 -1.081433526)
5(-1.075616125 -1.058721117 -1.074873796 -1.109465411 -1.086583465)
5(-1.091370323 -1.072601444 -1.086563423 -1.117109832 -1.08889724)
5(-1.107531413 -1.085836901 -1.096215467 -1.12306241 -1.087723766)
5(-1.122161357 -1.097343591 -1.10493877 -1.125559971 -1.084762587)
5(-1.136450805 -1.107951215 -1.111771202 -1.125101194 -1.080331263)
5(-1.150780963 -1.116761207 -1.116151416 -1.122920702 -1.077093275)
5(-1.164155759 -1.125993656 -1.119418346 -1.119790848 -1.073353598)
5(-1.177548176 -1.13474963 -1.121290223 -1.115966735 -1.068944245)
5(-1.189574142 -1.142327457 -1.121391096 -1.111215179 -1.066007183)
5(-1.202109615 -1.148081724 -1.119100152 -1.105991869 -1.065604419)
5(-1.213956856 -1.154442767 -1.116413021 -1.104739351 -1.068408273)
5(-1.222722711 -1.158302377 -1.114378416 -1.104505271 -1.073015157)
5(-1.231434134 -1.160724096 -1.114615861 -1.109219293 -1.082094365)
5(-1.239599913 -1.163987511 -1.118799166 -1.11751987 -1.094831691)
5(-1.250205272 -1.170758137 -1.123078 -1.126024882 -1.111754342)
5(-1.262741766 -1.175776664 -1.128115341 -1.141041956 -1.13302794)
5(-1.272841018 -1.184468071 -1.142219541 -1.156731239 -1.153774675)
5(-1.286867592 -1.199469522 -1.159181558 -1.183277832 -1.192102877)
5(-1.318327979 -1.230319033 -1.193590113 -1.22379844 -1.231345672)
5(-1.571765957 -1.547131357 -1.535468539 -1.462889506 -1.422989193)
5(-2.301784499 -2.465134219 -1.874454842 -1.42614136 -1.823378936)
)


60
(
5(-0.7378497612 -0.7294916863 -0.7530494422 -0.7856909223 -0.7991775737)
5(-0.7412169838 -0.7356569589 -0.7488745828 -0.7820041442 -0.7895623859)
5(-0.7471674393 -0.7432562972 -0.7490084546 -0.7850076936 -0.7921089236)
5(-0.7525690713 -0.7473906147 -0.7556686405 -0.7907907575 -0.7964627464)
5(-0.75829943 -0.751567445 -0.7617317095 -0.7961282914 -0.8027772793)
5(-0.7641056621 -0.7567962225 -0.7681385398 -0.8022414023 -0.809458578)
5(-0.7693005097 -0.7618918882 -0.7735584753 -0.8073419421 -0.8147288608)
5(-0.7737704522 -0.7660024891 -0.7776050025 -0.8119014645 -0.8195310759)
5(-0.7779835372 -0.7703956897 -0.782077302 -0.8171813479 -0.8243005211)
5(-0.7825288371 -0.7746897773 -0.78638211 -0.8222779347 -0.8295009915)
5(-0.7872652689 -0.779325313 -0.7916654314 -0.8279711217 -0.8356264329)
5(-0.7920364487 -0.7845780548 -0.7971976145 -0.8344678193 -0.8421955509)
5(-0.7976482201 -0.7895708352 -0.8031828746 -0.8409535718 -0.8486490722)
5(-0.802360254 -0.7947196746 -0.8092750406 -0.8479036894 -0.8561436541)
5(-0.8081323483 -0.8006587297 -0.8160369523 -0.8555100614 -0.8639577269)
5(-0.8146613407 -0.807125243 -0.8228814032 -0.8632171991 -0.8717253197)
5(-0.8208514125 -0.813608597 -0.8299923232 -0.8723840546 -0.8799386866)
5(-0.828135702 -0.8206576814 -0.8384439771 -0.8807628323 -0.8887718634)
5(-0.8354393608 -0.8284003285 -0.8471267182 -0.8906453688 -0.8988278693)
5(-0.8436872701 -0.8364569527 -0.8561680867 -0.9016088082 -0.9084320112)
5(-0.8520462558 -0.8450703157 -0.8668531876 -0.9118034477 -0.9189239223)
5(-0.8609383947 -0.8553418088 -0.8771026657 -0.9229401846 -0.9313248624)
5(-0.8714118952 -0.8656884034 -0.8884883615 -0.9364187873 -0.9434068199)
5(-0.8826684464 -0.8765897112 -0.9003335355 -0.949855369 -0.956689835)
5(-0.8942716851 -0.888664995 -0.9135005958 -0.9634531692 -0.9698863223)
5(-0.9072407788 -0.9011229013 -0.9273014162 -0.9780178385 -0.9830439626)
5(-0.9201869366 -0.9147198234 -0.9423475076 -0.9930630117 -0.996828143)
5(-0.9349028718 -0.9298932643 -0.9572360149 -1.008916208 -1.012772504)
5(-0.9503427464 -0.9450125022 -0.973036702 -1.025346434 -1.028008032)
5(-0.9667126127 -0.9605497227 -0.9899732781 -1.042564796 -1.043778611)
5(-0.9836061078 -0.977179735 -1.00737507 -1.05982515 -1.059544402)
5(-1.000966075 -0.9944475602 -1.023848669 -1.077215353 -1.075387509)
5(-1.018937082 -1.012056463 -1.042045602 -1.093523147 -1.089172339)
5(-1.037496984 -1.029753444 -1.05909799 -1.109959393 -1.104437616)
5(-1.056111543 -1.04686297 -1.07574938 -1.125649866 -1.117964452)
5(-1.074246423 -1.063907596 -1.091890231 -1.141330749 -1.132231535)
5(-1.0918423 -1.080123158 -1.106695086 -1.156078147 -1.144790502)
5(-1.108624521 -1.095325875 -1.121479656 -1.168753341 -1.155297131)
5(-1.124340303 -1.109412482 -1.134557995 -1.179679429 -1.165314587)
5(-1.139009147 -1.12228659 -1.145960228 -1.189792712 -1.172423272)
5(-1.152683144 -1.133742667 -1.156251726 -1.19858279 -1.178669564)
5(-1.165344486 -1.143998052 -1.165050177 -1.204679568 -1.182637645)
5(-1.177286154 -1.153396755 -1.172330382 -1.209027806 -1.185444847)
5(-1.188544422 -1.161827083 -1.17852234 -1.211661823 -1.187127991)
5(-1.199585854 -1.169803292 -1.184080499 -1.212631063 -1.187503705)
5(-1.210183365 -1.177221416 -1.188135298 -1.212985835 -1.187797794)
5(-1.220819968 -1.18500636 -1.191958275 -1.21184132 -1.186142723)
5(-1.231197876 -1.192747157 -1.1960138 -1.210556721 -1.182158145)
5(-1.239414889 -1.201575497 -1.199829464 -1.207595768 -1.178357242)
5(-1.2498333 -1.210859917 -1.202772556 -1.204831993 -1.175569344)
5(-1.25763166 -1.2185615 -1.205365454 -1.203069722 -1.174842372)
5(-1.266244451 -1.226384341 -1.208861101 -1.202721071 -1.176278837)
5(-1.274420938 -1.235065732 -1.211864899 -1.204834066 -1.182614884)
5(-1.284126114 -1.244878228 -1.215006815 -1.210893735 -1.190097283)
5(-1.296106643 -1.2535671 -1.223702934 -1.221381762 -1.200394756)
5(-1.314724726 -1.271510772 -1.23536961 -1.231722413 -1.214711704)
5(-1.341545791 -1.293531852 -1.252632795 -1.251927902 -1.232611843)
5(-1.387301145 -1.336193452 -1.294855099 -1.284367671 -1.262701143)
5(-1.726381972 -1.708830086 -1.751009241 -1.60281887 -1.543891088)
5(-2.336906172 -2.407327723 -2.188022595 -1.763727642 -1.984600169)
)


60
(
5(-0.7571532917 -0.7479191296 -0.7702608368 -0.8038118261 -0.813237227)
5(-0.761936726 -0.7553324039 -0.7700654182 -0.8025419519 -0.8083616509)
5(-0.77006199 -0.7648124031 -0.7712277247 -0.8067516795 -0.8119551756)
5(-0.7766649639 -0.7689044072 -0.7780689511 -0.8131053595 -0.8170903699)
5(-0.7826690166 -0.7734557341 -0.7845020157 -0.8190351723 -0.8236175092)
5(-0.7886751814 -0.779512992 -0.7914454256 -0.8255488073 -0.8306317375)
5(-0.794650438 -0.7851731061 -0.7974237266 -0.8314365599 -0.836542464)
5(-0.7998182506 -0.7901367486 -0.8023761771 -0.8369015577 -0.8422773944)
5(-0.8051083732 -0.7954286723 -0.8074959328 -0.8427997727 -0.8482830983)
5(-0.8105093665 -0.8004099278 -0.8130122095 -0.8493625367 -0.8546356079)
5(-0.8161629799 -0.8062681367 -0.8193746023 -0.856016745 -0.8615186579)
5(-0.8222027674 -0.8119552325 -0.8256057804 -0.8632582875 -0.8690452103)
5(-0.8282238457 -0.8182870074 -0.8329630983 -0.8711588246 -0.8768789996)
5(-0.834619161 -0.8248580697 -0.8399769444 -0.8789343703 -0.8845833923)
5(-0.8418610197 -0.8317275867 -0.8477611388 -0.8873301725 -0.8935074478)
5(-0.8489794286 -0.8389786031 -0.8552906226 -0.8964359225 -0.9025914997)
5(-0.8566014663 -0.8468267363 -0.8642165684 -0.90622446 -0.9122868234)
5(-0.8648074054 -0.8551071581 -0.8734308136 -0.9159438207 -0.9223401224)
5(-0.8737099809 -0.8637913705 -0.8832129883 -0.9274675518 -0.9327576065)
5(-0.8828866012 -0.8734686443 -0.8937859516 -0.9383147427 -0.9440488039)
5(-0.8928260784 -0.8833776041 -0.9044712837 -0.9504248296 -0.9561830372)
5(-0.9039206356 -0.8940891467 -0.9163769292 -0.9639033511 -0.9680866511)
5(-0.9147179214 -0.9052794574 -0.9290303523 -0.9770986426 -0.9807204406)
5(-0.9265609765 -0.9173823017 -0.9421591285 -0.9904418113 -0.994359087)
5(-0.9394147337 -0.9302765588 -0.9560407 -1.004916884 -1.009265259)
5(-0.9527667608 -0.9433536184 -0.9703320227 -1.02095408 -1.023856968)
5(-0.9673401742 -0.958135819 -0.9854880709 -1.03732192 -1.040155643)
5(-0.9820910802 -0.9729818607 -1.001436499 -1.053678986 -1.056155181)
5(-0.9975546793 -0.9882652546 -1.017705198 -1.070342317 -1.071097791)
5(-1.013956501 -1.004243362 -1.034449308 -1.08743745 -1.08678648)
5(-1.030819783 -1.021027079 -1.051369586 -1.104635185 -1.103060172)
5(-1.047191957 -1.037364332 -1.068031475 -1.121225129 -1.118306717)
5(-1.063927877 -1.053916734 -1.084730599 -1.138204728 -1.134600729)
5(-1.081521402 -1.070439803 -1.101684154 -1.154390741 -1.149819268)
5(-1.098730523 -1.086790992 -1.117449752 -1.170218157 -1.164602993)
5(-1.115276373 -1.101911868 -1.132458044 -1.185374189 -1.177725837)
5(-1.130547534 -1.115687274 -1.146290811 -1.199101372 -1.190608311)
5(-1.1447853 -1.128852872 -1.15938192 -1.211197808 -1.202248218)
5(-1.157955225 -1.141030509 -1.170830198 -1.222179838 -1.212593117)
5(-1.17020377 -1.151449846 -1.180787797 -1.232019391 -1.221330479)
5(-1.180976433 -1.160650797 -1.189472174 -1.239513277 -1.228935227)
5(-1.1907531 -1.168615646 -1.196669543 -1.246202603 -1.236423482)
5(-1.200080411 -1.175860721 -1.202297298 -1.251726607 -1.24331696)
5(-1.208951243 -1.182152927 -1.207621985 -1.256428809 -1.247906817)
5(-1.217224478 -1.187817313 -1.212071885 -1.259220748 -1.251770948)
5(-1.225447531 -1.193371681 -1.216661682 -1.261985111 -1.255676267)
5(-1.232277141 -1.199826142 -1.221958569 -1.264551794 -1.257979959)
5(-1.23881042 -1.207120818 -1.228162503 -1.264957788 -1.258973489)
5(-1.245073686 -1.215690083 -1.234513354 -1.264936286 -1.258942875)
5(-1.251980754 -1.224565039 -1.241378912 -1.265486298 -1.257614453)
5(-1.259094056 -1.23288515 -1.248663736 -1.264997989 -1.253550863)
5(-1.267946331 -1.242833492 -1.256327133 -1.263826788 -1.249755796)
5(-1.275781658 -1.255245708 -1.264964009 -1.266204849 -1.246252211)
5(-1.282753824 -1.267737177 -1.275902799 -1.269016936 -1.245708373)
5(-1.290413983 -1.285030511 -1.288950836 -1.275799263 -1.248547569)
5(-1.306886337 -1.307008217 -1.300829694 -1.287972437 -1.257473078)
5(-1.333849099 -1.336595057 -1.326985117 -1.309407917 -1.268551712)
5(-1.383666616 -1.394760274 -1.376737101 -1.346782274 -1.292115094)
5(-1.755977055 -1.833980026 -1.854890492 -1.709068679 -1.571063123)
5(-2.469956617 -2.512832235 -2.224961826 -1.965757138 -1.985126201)
)


60
(
5(-0.7738688343 -0.7633976409 -0.7845108992 -0.8183864209 -0.8252377386)
5(-0.779225686 -0.7714901807 -0.7867165466 -0.8188959559 -0.8232198524)
5(-0.7893126276 -0.7824554106 -0.7890282679 -0.8240024815 -0.8274552581)
5(-0.7965943943 -0.7866814156 -0.7959077001 -0.8306260609 -0.8329283984)
5(-0.8026556915 -0.7914580323 -0.8027046733 -0.8367941822 -0.8401361772)
5(-0.8090481228 -0.7979066972 -0.8099554412 -0.8438409839 -0.8474848419)
5(-0.8157938312 -0.8042652242 -0.8162357759 -0.8503082132 -0.8538436384)
5(-0.8213735149 -0.8098008299 -0.822145964 -0.8567216126 -0.8605221102)
5(-0.8276016255 -0.8156784288 -0.8277134352 -0.8629126368 -0.8669145614)
5(-0.8334636481 -0.8215072274 -0.8340281079 -0.870262703 -0.8745767847)
5(-0.8400037775 -0.8277381456 -0.8409245497 -0.8779087881 -0.8819023054)
5(-0.846510427 -0.8344062984 -0.8484058765 -0.8859032773 -0.8899041741)
5(-0.8536046771 -0.8412929819 -0.8557361797 -0.8940601523 -0.8984489873)
5(-0.8606874712 -0.8485128274 -0.8639962499 -0.903101486 -0.9073778544)
5(-0.8684414614 -0.8563388399 -0.8722609951 -0.9121622612 -0.9161641817)
5(-0.8764976668 -0.8643416524 -0.8810305602 -0.9218165794 -0.9259688562)
5(-0.8852247838 -0.8728848554 -0.8904518181 -0.9319512115 -0.9365144036)
5(-0.8939105256 -0.8819522142 -0.9003199235 -0.943022525 -0.9471823339)
5(-0.9036883108 -0.8914692771 -0.9107023312 -0.9542492541 -0.9584695815)
5(-0.9138783295 -0.9016199598 -0.9216133059 -0.9663499886 -0.9701994099)
5(-0.9243157296 -0.9118035012 -0.9333622926 -0.978894035 -0.9820434919)
5(-0.9355107707 -0.9236832359 -0.9458514415 -0.9918939688 -0.9952116095)
5(-0.9477381114 -0.9355771528 -0.9582956233 -1.005638314 -1.009182934)
5(-0.9603165192 -0.9478133471 -0.9718368518 -1.02014457 -1.022663833)
5(-0.9731160256 -0.9609652857 -0.9859502579 -1.035494812 -1.037020566)
5(-0.9873025543 -0.9743292864 -1.000723004 -1.051293027 -1.051676594)
5(-1.001222739 -0.9889449723 -1.016552655 -1.066408115 -1.067075257)
5(-1.015430915 -1.003828325 -1.031615648 -1.08216681 -1.083256361)
5(-1.031808616 -1.018867335 -1.047178855 -1.099813672 -1.099368297)
5(-1.047400617 -1.034694142 -1.063907782 -1.117311177 -1.116227262)
5(-1.062805458 -1.050090539 -1.080075004 -1.133612282 -1.132666626)
5(-1.07854616 -1.06534027 -1.096002285 -1.150217174 -1.148604433)
5(-1.094825826 -1.081226634 -1.112447996 -1.166719823 -1.163943409)
5(-1.110742241 -1.096630233 -1.127708066 -1.181697228 -1.178374909)
5(-1.125664901 -1.110849389 -1.141644559 -1.197014271 -1.19238683)
5(-1.139747206 -1.123840856 -1.155564588 -1.210778804 -1.20553053)
5(-1.152824233 -1.136091375 -1.168570309 -1.223181746 -1.21842563)
5(-1.165167326 -1.147509291 -1.179620805 -1.234348288 -1.229957483)
5(-1.176006837 -1.157239232 -1.188950173 -1.244605654 -1.240395334)
5(-1.185950462 -1.165486914 -1.197097996 -1.253039918 -1.249691892)
5(-1.194546675 -1.172443012 -1.203637695 -1.260232931 -1.25791982)
5(-1.202483025 -1.178335159 -1.20922273 -1.266476105 -1.265566451)
5(-1.209998964 -1.182954088 -1.213287909 -1.271879204 -1.273217676)
5(-1.216591401 -1.186312901 -1.217270215 -1.276531567 -1.279525671)
5(-1.221267474 -1.189703604 -1.221098256 -1.280357268 -1.285674008)
5(-1.224378371 -1.19359617 -1.225696801 -1.28507356 -1.293255613)
5(-1.228020183 -1.198541277 -1.230800268 -1.289976575 -1.299359308)
5(-1.232550953 -1.203748194 -1.237539686 -1.294536296 -1.304278788)
5(-1.238007994 -1.210027731 -1.245087281 -1.297914885 -1.306532051)
5(-1.243931833 -1.217505607 -1.252913247 -1.301814536 -1.307610414)
5(-1.250269556 -1.225856179 -1.262847477 -1.30426726 -1.305140592)