/*--------------------------------*- C++ -*----------------------------------*\
| =========                 |                                                 |
| \\      /  F ield         | OpenFOAM: The Open Source CFD Toolbox           |
|  \\    /   O peration     | Version:  2.3.1                                 |
|   \\  /    A nd           | Web:      www.OpenFOAM.org                      |
|    \\/     M anipulation  |                                                 |
\*---------------------------------------------------------------------------*/
FoamFile
{
    version     2.0;
    format      ascii;
    class       dictionary;
    location    "constant";
    object      PM42;
}
// * * * * * * * * * * * * * * * * * * * * * * * * * * * * * * * * * * * * * //

PM42_table
60
(

60
(
5(-3.375804445e-05 5.240760043e-05 5.270072672e-05 -0.0001206206741 0.0001762392851)
5(0.0003470411509 -0.0002536566191 -0.0002164667734 -0.0001780460171 0.000525448251)
5(-0.000150831241 -0.0002776613952 -0.0002169717524 -0.000113168057 -0.0001560852886)
5(-0.0003011802919 -0.0002909975196 -0.0002124726157 -0.0002246642531 -0.0001373730421)
5(-0.0003688882156 -0.0002979416658 -0.0002040124945 -0.0002295511882 -0.0001509683)
5(-0.0003716480027 -0.0002945527284 -0.0002350516924 -0.0002210531897 -0.0002079018805)
5(-0.0003686844123 -0.0002852758273 -0.0002758296014 -0.0002356811927 -0.0002189747998)
5(-0.0003190544912 -0.0003019132062 -0.0002693267427 -0.0002288563367 -0.0001852925786)
5(-0.0003063952165 -0.0003223318039 -0.000267129291 -0.0002312430996 -0.000223283384)
5(-0.0003360158264 -0.0003356386316 -0.0002676157661 -0.0002317463928 -0.0002204690071)
5(-0.0003979634964 -0.0003416876067 -0.0002646955311 -0.0002357203959 -0.0002179608453)
5(-0.0004370254505 -0.0003277151553 -0.0002689978619 -0.0002392105106 -0.000218650813)
5(-0.0004160500129 -0.0003186073694 -0.000277970819 -0.0002403299075 -0.0002221049258)
5(-0.0003932183407 -0.000320488894 -0.0002792624689 -0.0002408911167 -0.0002221849838)
5(-0.0003958926175 -0.000324583909 -0.0002841659509 -0.0002452415722 -0.0002240318909)
5(-0.0004012444073 -0.0003296298862 -0.0002875925774 -0.0002461211551 -0.0002269470529)
5(-0.0004116472019 -0.0003340361494 -0.0002899111795 -0.0002491483258 -0.0002290343868)
5(-0.0004184853957 -0.0003374514817 -0.0002935522869 -0.0002504648469 -0.000228804837)
5(-0.0004236757906 -0.0003422696631 -0.0002957816975 -0.0002526986465 -0.0002293682092)
5(-0.0004278047227 -0.0003436279146 -0.0002970427906 -0.000253296242 -0.0002292053698)
5(-0.0004297133058 -0.0003443929544 -0.0002988782983 -0.0002522222561 -0.0002303041111)
5(-0.0004345227663 -0.0003475552253 -0.0002993377813 -0.000255700795 -0.0002345571667)
5(-0.0004355513626 -0.0003490338934 -0.0003021825445 -0.0002601766332 -0.0002381007402)
5(-0.0004364682172 -0.0003476903302 -0.0003035759625 -0.000262122885 -0.0002407142546)
5(-0.0004351149147 -0.0003441371853 -0.0003059197763 -0.0002655772877 -0.0002455998691)
5(-0.0004299527505 -0.0003435449023 -0.000306654014 -0.0002681440308 -0.0002514912355)
5(-0.0004251507483 -0.0003470912765 -0.0003088922807 -0.000272970945 -0.0002609137233)
5(-0.0004234580399 -0.0003468623082 -0.0003098173637 -0.0002803444801 -0.0002739024895)
5(-0.0004145385213 -0.0003402216422 -0.0003141427727 -0.0002924464579 -0.0002906441874)
5(-0.0004037421812 -0.0003355091905 -0.0003199153507 -0.000308988817 -0.0003136144162)
5(-0.0003898855312 -0.0003318229183 -0.0003279525858 -0.0003292424037 -0.0003448072201)
5(-0.0003756662506 -0.0003307297488 -0.0003432502265 -0.0003602539566 -0.0003859461507)
5(-0.000359907173 -0.0003286254408 -0.000358616575 -0.000398103881 -0.000432712128)
5(-0.0003423689923 -0.0003315775158 -0.0003843356855 -0.0004514683094 -0.0005108304701)
5(-0.0003298951411 -0.0003420594591 -0.0004173283078 -0.0005158483908 -0.0005902710118)
5(-0.0003190020899 -0.0003592893737 -0.0004741764161 -0.0006083077362 -0.0006749453608)
5(-0.0003309088103 -0.000415250196 -0.0005847073038 -0.0007068751622 -0.000779729442)
5(-0.0003463856985 -0.0004638491334 -0.0006612521693 -0.0008186197458 -0.0009135652797)
5(-0.0003865534336 -0.0005498489389 -0.0007532719598 -0.0009336014949 -0.0008729303612)
5(-0.0004546037881 -0.0006559535841 -0.0008805292828 -0.0009930684861 -0.0006321561246)
5(-0.0005778388389 -0.0008103750107 -0.001041092648 -0.0009838989746 -0.0007399464273)
5(-0.00070169213 -0.0009397454698 -0.001121708591 -0.000853127002 -0.0006674933283)
5(-0.0008340269957 -0.001046440525 -0.001072554125 -0.0007883058594 -0.0005600271492)
5(-0.0009019974209 -0.00100576633 -0.0009024168896 -0.0006793009649 -0.000428944491)
5(-0.0009615096966 -0.0009930258908 -0.0008235699768 -0.0004947175003 -0.0003058991638)
5(-0.0009195292336 -0.0008672638603 -0.0005381033458 -0.0003295312638 -0.0001898002501)
5(-0.0007948650309 -0.0007113164203 -0.000319626946 -0.0002236450438 -0.0001040623819)
5(-0.0006862278852 -0.0005039356032 -0.0002208348045 -0.0001265135769 -4.883065398e-05)
5(-0.0004546986056 -0.000225941481 -0.0001244177094 -6.052199486e-05 -1.96434367e-05)
5(-0.0001954199757 -0.0001173472229 -6.473565841e-05 -2.454901747e-05 -6.800432403e-06)
5(-8.370596112e-05 -6.116763718e-05 -2.601636781e-05 -8.534154495e-06 -1.99920074e-06)
5(-5.397479204e-05 -2.397102176e-05 -8.627359345e-06 -2.459044523e-06 -5.017630401e-07)
5(-1.958775043e-05 -7.098973969e-06 -2.355632492e-06 -5.832159379e-07 -1.053163514e-07)
5(-4.817325443e-06 -1.632928132e-06 -4.831065602e-07 -1.114275532e-07 -1.941358253e-08)
5(-9.118271358e-07 -2.915284862e-07 -7.459562137e-08 -1.631891956e-08 -2.75558369e-09)
5(-1.007025212e-07 -2.922681102e-08 -8.177261343e-09 -1.673667518e-09 -3.046744421e-10)
5(-5.650039475e-09 -2.108795054e-09 -4.331761746e-10 -1.070869264e-10 -1.950446059e-11)
5(-5.67391675e-11 -4.705631272e-11 -1.129679383e-11 -2.127373891e-12 -5.197878713e-13)
5(1.11332537e-12 3.745968382e-14 -5.037871206e-13 7.454128314e-13 -3.418174293e-15)
5(4.500085951e-17 1.049371387e-16 3.429187543e-08 6.266724997e-16 1.073652462e-15)
)


60
(
5(-0.0004739067976 -0.0003796979849 -0.0003333687099 -0.000302984511 -0.0002244207001)
5(-0.0005095693868 -0.0004241187259 -0.0003788514515 -0.0003151423365 -0.0002992125309)
5(-0.0005201435084 -0.0004145544116 -0.0003453664457 -0.0003112348995 -0.000294688721)
5(-0.0004649383971 -0.0004163018059 -0.0003273080288 -0.0003219636953 -0.0002198133433)
5(-0.0005258169666 -0.0004417967072 -0.00036049818 -0.0003245600946 -0.0002793812065)
5(-0.0005601055386 -0.0004691237108 -0.0004167962941 -0.0003441186333 -0.0003157619185)
5(-0.0005901898953 -0.0004870288331 -0.000429599118 -0.0003640409513 -0.0003086130392)
5(-0.0006255934431 -0.0004959936195 -0.0004251553436 -0.0003624585597 -0.0003289331769)
5(-0.0005986335506 -0.0005037065029 -0.0004318412071 -0.0003629965508 -0.0003227565602)
5(-0.0005980279603 -0.0005120015855 -0.0004291696255 -0.0003696444978 -0.0003216480957)
5(-0.000611844269 -0.0005241310934 -0.0004382364478 -0.0003750065126 -0.0003285269818)
5(-0.0006526677976 -0.0005347499148 -0.0004539161225 -0.0003812807791 -0.0003366197882)
5(-0.0006862711076 -0.0005438193575 -0.0004628964831 -0.0003853010805 -0.000338439488)
5(-0.0006933406806 -0.0005514284645 -0.0004690948509 -0.0003937695565 -0.0003431185477)
5(-0.000713174161 -0.0005637907086 -0.0004786519326 -0.0003961803333 -0.0003454387591)
5(-0.0007231301851 -0.0005723187528 -0.0004846312303 -0.0004000479409 -0.0003475744346)
5(-0.0007337787783 -0.0005829049601 -0.0004902056143 -0.000402427632 -0.0003472799403)
5(-0.0007494596826 -0.000590721926 -0.0004948518646 -0.0004030708689 -0.000348534663)
5(-0.0007619236313 -0.0005967193649 -0.0004982479302 -0.0004053056585 -0.0003492805594)
5(-0.000768384315 -0.000599676061 -0.0004993100925 -0.0004035313024 -0.000348542573)
5(-0.0007799192309 -0.0006057718563 -0.000502320832 -0.0004036755853 -0.0003448781669)
5(-0.0007827764024 -0.0006074553126 -0.0005005945553 -0.0004070310255 -0.0003451140887)
5(-0.0007861309356 -0.0006054311482 -0.0004982398411 -0.0003984599311 -0.0003380118741)
5(-0.000785169842 -0.0005981181347 -0.0004918057647 -0.0003919361065 -0.0003320070684)
5(-0.000780344123 -0.0005907151368 -0.0004828992054 -0.0003827951575 -0.000323405696)
5(-0.0007698292838 -0.0005800622314 -0.0004693737362 -0.0003695736926 -0.0003147997241)
5(-0.0007535022794 -0.0005679645396 -0.0004570733835 -0.0003556786541 -0.0003031999187)
5(-0.0007382414843 -0.0005506108093 -0.0004369938602 -0.0003398775294 -0.0002929469305)
5(-0.0007076010593 -0.0005252118202 -0.0004169932606 -0.0003248376631 -0.0002815265658)
5(-0.0006747085618 -0.0004936150544 -0.000392759493 -0.0003098206018 -0.0002717229153)
5(-0.0006312378961 -0.0004579182942 -0.000362835817 -0.0002898988345 -0.000263114135)
5(-0.0005841324252 -0.0004215313971 -0.0003369395556 -0.0002783148671 -0.0002650804366)
5(-0.0005310783093 -0.0003801399922 -0.0003071870407 -0.0002657230197 -0.0002603469344)
5(-0.0004705884041 -0.0003358866092 -0.0002776049753 -0.0002620276257 -0.000282126574)
5(-0.0004079257486 -0.0002963572673 -0.0002589727839 -0.000267921686 -0.0003094674229)
5(-0.0003473524658 -0.0002555517485 -0.0002390392674 -0.000287095416 -0.0003537898001)
5(-0.0002893258618 -0.0002385944669 -0.0002623874312 -0.0003377268036 -0.0004189411491)
5(-0.0002451465717 -0.0002238498839 -0.000291308526 -0.0003997081847 -0.0005467379059)
5(-0.0002154548556 -0.0002377584824 -0.0003397929856 -0.0004982624942 -0.0006170987734)
5(-0.0002079598405 -0.0002748645559 -0.0004075241743 -0.0006044996464 -0.000861566177)
5(-0.0002381639828 -0.0003515935972 -0.0005316833208 -0.0007337802932 -0.0009629882347)
5(-0.0003035971892 -0.0004455650284 -0.0006572671091 -0.0009089561928 -0.001028612986)
5(-0.0003925205512 -0.0005658053169 -0.0007867090835 -0.001110558357 -0.00103003373)
5(-0.0004932368639 -0.0006517147592 -0.0007872500905 -0.001099071112 -0.0009510937936)
5(-0.0005860672183 -0.0007277713247 -0.0008336692148 -0.001000396253 -0.0008148987305)
5(-0.0006627230723 -0.0007362731045 -0.0008150682726 -0.0008355191325 -0.0006210497451)
5(-0.0006818442424 -0.0007116467489 -0.0008142309309 -0.0006244406102 -0.0004170039931)
5(-0.0006334463135 -0.0006516565512 -0.0006347504572 -0.0004119533283 -0.0002420117276)
5(-0.0005251011738 -0.0004736036529 -0.0004173217576 -0.0002344781031 -0.0001191850636)
5(-0.0003798379316 -0.0003773748032 -0.0002350385106 -0.0001126132597 -4.909719999e-05)
5(-0.0002428895497 -0.0002053410086 -0.0001108751184 -4.489401799e-05 -1.703792729e-05)
5(-0.0001534742531 -9.127632785e-05 -4.227223367e-05 -1.466905078e-05 -4.945689621e-06)
5(-6.640409409e-05 -3.273897884e-05 -1.288896888e-05 -3.914079682e-06 -1.182028635e-06)
5(-2.083402237e-05 -8.769662108e-06 -2.989374426e-06 -8.00926585e-07 -2.251648219e-07)
5(-4.497732544e-06 -1.663481496e-06 -5.135720518e-07 -1.269445593e-07 -3.461200994e-08)
5(-6.096797664e-07 -2.128055309e-07 -5.732376293e-08 -1.449682344e-08 -3.750769382e-09)
5(-4.275398224e-08 -1.458372333e-08 -4.40990803e-09 -9.909381548e-10 -2.791163419e-10)
5(-1.673322351e-09 -5.986792636e-10 -1.502789598e-10 -4.13501249e-11 -1.035450341e-11)
5(-6.647311952e-11 -9.212712517e-10 3.052505991e-09 4.346041046e-10 5.461602376e-13)
5(-1.418877076e-12 1.640457605e-08 5.014706799e-08 -1.540392033e-08 -2.356777588e-15)
)


60
(
5(-0.000561888999 -0.0004638551157 -0.0003939670199 -0.0003542771446 -0.0002628617468)
5(-0.0006113472803 -0.0004878385544 -0.0004333539853 -0.0003583256125 -0.0003339506569)
5(-0.000624093236 -0.0004911884573 -0.0004292193537 -0.0003538872751 -0.0003160142214)
5(-0.0006371284946 -0.0004983955232 -0.0004358602403 -0.0003567162162 -0.0003185986139)
5(-0.00065387417 -0.0005084715792 -0.0004456282076 -0.0003644573883 -0.0003290496605)
5(-0.0006600110387 -0.0005179861321 -0.0004491399549 -0.0003739429831 -0.0003324217032)
5(-0.0006625648656 -0.0005229746126 -0.0004548186015 -0.0003769930693 -0.0003321836023)
5(-0.0006719858249 -0.0005291034322 -0.0004572187904 -0.0003770445907 -0.0003306074645)
5(-0.0006799346649 -0.0005344345933 -0.0004612236324 -0.0003788524344 -0.0003340253432)
5(-0.000680355339 -0.0005373409487 -0.0004651720764 -0.0003812262691 -0.000339549013)
5(-0.0006888397857 -0.0005401538433 -0.0004696165731 -0.0003822796733 -0.0003378116101)
5(-0.0006942678295 -0.0005458311048 -0.0004704241087 -0.0003834651627 -0.0003366482234)
5(-0.000697491319 -0.0005485594199 -0.0004714862541 -0.000384854024 -0.000336491895)
5(-0.0007003513761 -0.0005506532065 -0.0004725382117 -0.0003830488543 -0.0003356223428)
5(-0.0007004260398 -0.0005521008146 -0.0004732186093 -0.000382056239 -0.0003325914811)
5(-0.0007051860057 -0.0005525867435 -0.0004718484472 -0.000380796925 -0.0003301385677)
5(-0.0007065488372 -0.0005507896871 -0.0004696397442 -0.000377357961 -0.0003251653702)
5(-0.0007029134255 -0.0005485307564 -0.0004659571729 -0.0003716079422 -0.000317675925)
5(-0.0007012692406 -0.0005466356222 -0.0004609112897 -0.0003646441214 -0.0003127639049)
5(-0.0006934164803 -0.0005405757797 -0.0004526852146 -0.0003561308471 -0.0003053387242)
5(-0.0006923349826 -0.0005339477902 -0.0004428178103 -0.0003480181231 -0.0002969198583)
5(-0.0006822597822 -0.0005215059258 -0.0004316105164 -0.0003350484732 -0.0002845632877)
5(-0.0006686507723 -0.0005086978505 -0.000418455244 -0.0003212462508 -0.0002712231308)
5(-0.0006476162417 -0.0004909799104 -0.0003992073768 -0.0003053873838 -0.0002563185135)
5(-0.0006283406191 -0.0004715264887 -0.0003800881266 -0.0002858749222 -0.0002374270023)
5(-0.0005994975078 -0.0004467921039 -0.0003534685746 -0.0002625316219 -0.0002160535564)
5(-0.0005629410724 -0.0004210429633 -0.0003265556392 -0.0002370306379 -0.0001938871414)
5(-0.0005324908965 -0.0003895457763 -0.0002958915931 -0.0002072581456 -0.0001664834708)
5(-0.0004876216549 -0.0003501034872 -0.0002603731879 -0.0001750488823 -0.0001372080337)
5(-0.0004376855602 -0.0003116186018 -0.0002217317204 -0.0001383032157 -0.0001036693763)
5(-0.0003849654563 -0.00026687424 -0.0001773116587 -9.857953329e-05 -6.885313145e-05)
5(-0.0003264901729 -0.000217123893 -0.0001308030693 -5.661077887e-05 -3.185465046e-05)
5(-0.0002622695837 -0.0001652826903 -8.348903976e-05 -1.320092796e-05 4.962201636e-06)
5(-0.0001961837814 -0.0001119196715 -3.337317685e-05 2.944672469e-05 3.829871282e-05)
5(-0.0001272187835 -5.627575313e-05 1.583855001e-05 6.797753165e-05 6.619019116e-05)
5(-6.36122904e-05 -4.500578448e-06 6.011805692e-05 9.93019653e-05 8.235990611e-05)
5(3.185496417e-07 4.518146384e-05 9.722396498e-05 0.0001170434283 8.454756984e-05)
5(5.892872244e-05 8.599996068e-05 0.0001206677224 0.0001182114298 6.701725856e-05)
5(0.0001050644637 0.0001135363509 0.0001270003585 9.808281804e-05 2.478697365e-05)
5(0.0001359869824 0.000126105621 0.0001109066638 5.135129774e-05 -4.259309261e-05)
5(0.000143597646 0.000113858058 6.882277865e-05 -2.008680816e-05 -0.0001345372401)
5(0.0001319900663 8.38013356e-05 5.925279906e-06 -0.0001118180474 -0.0002379140777)
5(9.72024878e-05 2.956476851e-05 -7.522106143e-05 -0.0002124382125 -0.0003363867719)
5(4.403356404e-05 -4.147607229e-05 -0.000162776621 -0.0003054666653 -0.0004099340737)
5(-2.180227815e-05 -0.0001161214643 -0.0002422605948 -0.0003708542964 -0.0004398103388)
5(-8.883499917e-05 -0.0001813137749 -0.0002957407996 -0.0003941822512 -0.0004205643942)
5(-0.00014007748 -0.0002240129679 -0.000315224076 -0.0003670578359 -0.0003537109051)
5(-0.0001670447372 -0.0002361487876 -0.0002923023163 -0.0002994250231 -0.0002616288599)
5(-0.0001609780975 -0.0002134371528 -0.0002359798289 -0.0002120758481 -0.0001669653069)
5(-0.0001303198797 -0.0001665443109 -0.0001646036395 -0.0001284250494 -9.001012188e-05)
5(-8.616361389e-05 -0.0001117901134 -9.66217115e-05 -6.500082551e-05 -4.083593199e-05)
5(-4.472498019e-05 -6.200197021e-05 -4.650094373e-05 -2.705378617e-05 -1.474703672e-05)
5(-1.80427075e-05 -2.721947566e-05 -1.782656888e-05 -8.914654507e-06 -4.371616373e-06)
5(-4.88234724e-06 -9.085716172e-06 -5.260829483e-06 -2.258560038e-06 -9.837759266e-07)
5(-7.135756797e-07 -2.224993084e-06 -1.116174922e-06 -4.251211573e-07 -1.719028503e-07)
5(-1.460265298e-07 -3.66628228e-07 -1.671049699e-07 -5.877617277e-08 -2.252354729e-08)
5(-5.54598308e-08 -3.819050665e-08 -1.452506154e-08 -5.603959057e-09 -1.84391076e-09)
5(-2.124854339e-09 -2.191757334e-09 -7.469004596e-10 -6.697438236e-10 -8.330765511e-11)
5(-3.053773309e-09 5.927786401e-09 6.361539281e-09 3.102249756e-09 1.859452272e-09)
5(7.422867294e-13 7.674990198e-07 4.1497984e-09 -8.422050598e-09 -1.187952539e-14)
)


60
(
5(-0.000568607599 -0.0004869406909 -0.0003951038815 -0.0003604622851 -0.0002660287692)
5(-0.0006152912366 -0.0005095857042 -0.0004368873402 -0.0003654431697 -0.0003428648342)
5(-0.0006298133557 -0.0004955437646 -0.0004422310697 -0.0003605194432 -0.0003358708842)
5(-0.0006331241631 -0.0004877207542 -0.0004414670694 -0.0003589695877 -0.0003381868032)
5(-0.0006225068855 -0.0004838985999 -0.0004346913622 -0.000358992744 -0.0003360070191)
5(-0.0006056255659 -0.0004809679486 -0.0004260341235 -0.0003583714406 -0.0003318297123)
5(-0.0005918417612 -0.0004775958076 -0.0004186492171 -0.0003525876435 -0.0003268301676)
5(-0.0005814166025 -0.0004694668278 -0.0004143121483 -0.0003499655527 -0.0003232109061)
5(-0.0005720897878 -0.0004643494456 -0.0004113877253 -0.0003450005321 -0.0003223127188)
5(-0.0005683827189 -0.0004571134486 -0.000407836612 -0.0003405873874 -0.0003187016707)
5(-0.0005573251173 -0.0004495125849 -0.0003994822439 -0.0003323469991 -0.0003132190218)
5(-0.000544866927 -0.0004429901034 -0.000390724665 -0.0003292149903 -0.0003114898462)
5(-0.0005343937275 -0.0004322833237 -0.0003836471601 -0.0003239970602 -0.0003025173672)
5(-0.0005228410117 -0.0004215890867 -0.0003768728087 -0.0003145050818 -0.0002949500754)
5(-0.000504524895 -0.0004114589892 -0.0003684988835 -0.0003066117125 -0.0002938968885)
5(-0.0004901733225 -0.0004034493876 -0.0003572663929 -0.000298813269 -0.0002846688656)
5(-0.0004784616795 -0.0003935959895 -0.0003445686338 -0.0002883394148 -0.0002768672869)
5(-0.0004570546016 -0.0003791095694 -0.0003338093871 -0.0002750481998 -0.0002679602991)
5(-0.0004426902908 -0.0003667717679 -0.0003169341225 -0.0002649466476 -0.0002582222163)
5(-0.0004220872783 -0.0003486336328 -0.0003044602376 -0.0002534399649 -0.0002514531306)
5(-0.0003997425509 -0.000333487406 -0.000289967406 -0.0002401449452 -0.0002357670423)
5(-0.0003776837507 -0.0003168872808 -0.0002717382383 -0.000226389065 -0.0002207136497)
5(-0.0003609032595 -0.0002943201716 -0.0002505064978 -0.0002093826543 -0.0002071945545)
5(-0.0003255124263 -0.0002687429251 -0.0002327970859 -0.0001920056883 -0.0001930492149)
5(-0.0002914807936 -0.0002490045196 -0.0002137536287 -0.0001746642994 -0.0001801099572)
5(-0.0002584711141 -0.0002229384674 -0.00018946881 -0.0001521915786 -0.0001553954584)
5(-0.0002241653671 -0.0002040686157 -0.0001651314158 -0.0001279304517 -0.0001336116253)
5(-0.0001946228493 -0.0001739537778 -0.0001356024635 -0.0001002537101 -0.00010973228)
5(-0.0001504973917 -0.0001444878693 -0.0001077000696 -7.09590783e-05 -7.61145733e-05)
5(-0.0001066354465 -0.0001130815978 -7.419413874e-05 -3.840478949e-05 -4.748764362e-05)
5(-6.183782326e-05 -7.631721834e-05 -3.561558778e-05 3.950560187e-07 -4.629557785e-06)
5(-1.859214436e-05 -4.010921417e-05 1.199651326e-06 3.926110097e-05 3.564043822e-05)
5(3.159426018e-05 -4.665362075e-06 4.277245885e-05 8.514093253e-05 8.048500256e-05)
5(7.716189951e-05 4.026013595e-05 8.747598682e-05 0.000131501479 0.0001241624494)
5(0.0001289453803 8.304758158e-05 0.0001309851012 0.0001770799659 0.0001685353171)
5(0.000171237453 0.0001261684486 0.0001764960099 0.000216813146 0.0002021973345)
5(0.00021637493 0.0001681429622 0.0002152943981 0.0002491211355 0.0002264509777)
5(0.0002604464141 0.0002055908477 0.0002454399179 0.0002679870398 0.0002332683466)
5(0.0002905010155 0.0002328660915 0.0002618461334 0.0002662594228 0.0002131403466)
5(0.0003098767274 0.0002479475792 0.0002591490012 0.0002394954407 0.0001646411563)
5(0.0003178432613 0.0002491977152 0.0002358420201 0.0001827381822 8.610763484e-05)
5(0.0003069095142 0.0002300969062 0.0001858235905 9.999494922e-05 -1.31589606e-05)
5(0.0002774845924 0.000190234321 0.0001128528463 -4.819720672e-06 -0.0001274822129)
5(0.0002320367568 0.000129367158 2.231232915e-05 -0.0001166782939 -0.0002342241114)
5(0.000171737815 5.370378673e-05 -7.403557933e-05 -0.0002177759008 -0.0003169503947)
5(0.0001039951086 -2.310974326e-05 -0.0001587361053 -0.0002898283875 -0.0003577385849)
5(4.311802492e-05 -8.913489425e-05 -0.0002173716386 -0.0003164739226 -0.0003494622277)
5(-3.242810758e-06 -0.0001329508052 -0.0002405589242 -0.0002979368452 -0.000298368333)
5(-2.431823399e-05 -0.000148202832 -0.0002247443676 -0.0002416947443 -0.0002198631252)
5(-1.848086591e-05 -0.0001348089537 -0.0001784138919 -0.000166483715 -0.0001397688151)
5(7.552038028e-07 -0.0001035323273 -0.0001183672601 -9.775139756e-05 -7.551136995e-05)
5(2.281252563e-05 -6.484267077e-05 -6.534587787e-05 -4.774870931e-05 -3.296938646e-05)
5(3.791582453e-05 -3.086887362e-05 -2.934596767e-05 -1.859321924e-05 -1.178668121e-05)
5(3.536731566e-05 -1.079103389e-05 -1.020993251e-05 -5.635479933e-06 -3.203920049e-06)
5(1.980825133e-05 -3.074999967e-06 -2.538970933e-06 -1.282076194e-06 -6.490134244e-07)
5(9.459640895e-06 -4.124631541e-07 -4.250599647e-07 -2.047485285e-07 -9.438085993e-08)
5(2.479272499e-06 4.345248783e-10 -5.537106408e-08 -2.040259806e-08 -9.629163747e-09)
5(2.987092677e-07 9.587790431e-11 -3.056961868e-09 2.002969809e-09 -5.749308387e-10)
5(4.824073049e-08 1.904738018e-07 4.796250174e-10 5.639817732e-09 -1.654593882e-08)
5(1.546085481e-06 6.174557179e-07 -4.007073136e-07 -1.849899131e-09 -1.442570465e-08)
)


60
(
5(-0.0004954334511 -0.0004412444318 -0.0003381292222 -0.000307846127 -0.0002263121845)
5(-0.0005229522253 -0.0004558332451 -0.0003678917722 -0.000308913947 -0.000304352079)
5(-0.0005186244305 -0.0004046239162 -0.0003702387213 -0.0002976168891 -0.0003041183584)
5(-0.00049694413 -0.0003723511421 -0.0003539241649 -0.0002846958433 -0.0003016655405)
5(-0.0004581570497 -0.000351373339 -0.0003284145197 -0.0002726905777 -0.0002886499305)
5(-0.0004069214416 -0.0003288359357 -0.0002993460262 -0.0002567810582 -0.0002687191975)
5(-0.0003653462454 -0.0003041394872 -0.0002729345976 -0.0002411019147 -0.0002539471687)
5(-0.0003346216998 -0.0002814961403 -0.0002570421976 -0.0002286391527 -0.0002450438146)
5(-0.0003076138887 -0.0002569955054 -0.0002404374548 -0.0002116812909 -0.0002356927064)
5(-0.0002794609731 -0.0002344542658 -0.0002265975166 -0.0001959971033 -0.0002264515988)
5(-0.0002425566048 -0.0002093725174 -0.0002043686445 -0.0001807207796 -0.0002154169807)
5(-0.0002111121894 -0.0001844729541 -0.00018535558 -0.0001670284714 -0.0002024198097)
5(-0.0001686770615 -0.0001616950737 -0.0001626435167 -0.000148151804 -0.0001888370825)
5(-0.0001515981336 -0.0001426874486 -0.0001410645888 -0.0001322035566 -0.0001806505164)
5(-0.00011595287 -0.0001155268473 -0.0001176258321 -0.000115694346 -0.000162500807)
5(-7.127737654e-05 -8.48878086e-05 -9.624981575e-05 -0.0001006753343 -0.0001545866682)
5(-4.013157097e-05 -6.311611388e-05 -7.748917951e-05 -7.925177433e-05 -0.0001455287812)
5(-9.112192714e-07 -4.038092394e-05 -5.368363527e-05 -6.768436676e-05 -0.000135295677)
5(2.776696493e-05 -1.216327565e-05 -3.125881334e-05 -5.338822239e-05 -0.0001236349842)
5(6.942424148e-05 1.208093202e-05 -1.495626324e-05 -3.83423268e-05 -0.0001117982381)
5(0.0001016074296 3.181184008e-05 8.448607562e-06 -2.119940367e-05 -0.0001018971361)
5(0.0001325382656 6.106342603e-05 2.70702815e-05 -6.384387826e-06 -8.985024378e-05)
5(0.0001719352152 8.189579939e-05 4.643984563e-05 6.725589142e-06 -8.82771229e-05)
5(0.0002072843072 0.0001005826792 5.535871422e-05 1.737935945e-05 -8.181865741e-05)
5(0.0002401620711 0.0001176999051 7.302376619e-05 2.77167238e-05 -6.755488706e-05)
5(0.0002706787585 0.0001327065142 8.95298361e-05 3.939184331e-05 -5.806426851e-05)
5(0.0003051152915 0.0001497544852 0.000104836393 4.903675491e-05 -5.331291731e-05)
5(0.0003284151868 0.0001662449436 0.0001148716732 6.191081011e-05 -3.412458692e-05)
5(0.0003535145642 0.0001773016467 0.0001238397164 7.462270819e-05 -1.676095715e-05)
5(0.0003701970957 0.0001789302753 0.0001397077122 9.432465007e-05 1.083404749e-05)
5(0.0003815901718 0.0001919812419 0.0001566399225 0.0001155352258 4.108101418e-05)
5(0.0004035039817 0.0002070395332 0.000165635764 0.0001428427108 7.84868322e-05)
5(0.0004204380664 0.0002169360613 0.0001888802547 0.0001716949766 0.0001106281404)
5(0.000431819569 0.0002283152813 0.0002123861679 0.0002089392639 0.0001602321896)
5(0.0004427556902 0.0002392533733 0.0002412049441 0.0002472855387 0.0002026553593)
5(0.00044406236 0.0002604799019 0.0002712730087 0.0002880592742 0.0002475571804)
5(0.0004628524787 0.000284414551 0.0002972831183 0.0003233461804 0.0002837983507)
5(0.0004718335318 0.0003022843663 0.000325481752 0.0003485432554 0.0003070357333)
5(0.000478439764 0.000321616857 0.0003452926086 0.0003587807419 0.0003091180167)
5(0.0004829840258 0.0003374813096 0.0003500632085 0.0003482294169 0.0002809018974)
5(0.0004788539386 0.0003417186154 0.0003372143208 0.0003089056084 0.0002241332383)
5(0.0004632068692 0.0003329230067 0.0003007273689 0.000240775877 0.0001377146556)
5(0.0004413285517 0.0003048521908 0.0002402315385 0.0001436128486 2.355650172e-05)
5(0.0003966718401 0.0002553741483 0.0001565579485 2.678979705e-05 -9.849860399e-05)
5(0.0003410049753 0.0001904477349 5.906578765e-05 -9.342725073e-05 -0.0002116423797)
5(0.0002775415396 0.0001159037727 -4.105324194e-05 -0.0001993848504 -0.0002962117645)
5(0.0002095479027 4.04159509e-05 -0.0001278305128 -0.0002713291172 -0.0003377985053)
5(0.0001499908753 -2.305950067e-05 -0.0001872470876 -0.0002954434551 -0.0003281990555)
5(0.0001065858234 -6.452506926e-05 -0.0002080561684 -0.0002719507338 -0.0002768584481)
5(9.052205191e-05 -8.059117693e-05 -0.0001887055635 -0.0002149085694 -0.0002031635557)
5(9.107361237e-05 -7.449763075e-05 -0.0001444716679 -0.0001441535905 -0.0001247713319)
5(0.0001008749581 -4.966240088e-05 -9.13666426e-05 -8.004242222e-05 -6.428979459e-05)
5(0.0001104292631 -2.655348497e-05 -4.736005818e-05 -3.734269107e-05 -2.759252201e-05)
5(0.000112884626 -8.792840949e-06 -2.008393169e-05 -1.274123988e-05 -8.378141492e-06)
5(8.610302424e-05 3.439440991e-07 -6.199654526e-06 -3.428996958e-06 -2.099385549e-06)
5(5.900091242e-05 9.044946992e-07 -1.617690107e-06 -6.40496857e-07 -3.74324921e-07)
5(2.649907247e-05 1.184460728e-06 -1.601965902e-07 -7.633558914e-08 -3.820125713e-08)
5(9.845545993e-06 1.880200307e-07 -1.175585061e-08 -4.847654508e-09 -2.40429781e-09)
5(3.221135772e-06 1.791521123e-08 4.752744886e-08 -9.7193822e-09 -7.970162211e-09)
5(5.007429236e-06 -6.14288718e-07 6.556420591e-07 -1.211871595e-07 4.5149807e-09)
)


60
(
5(-0.0003448426869 -0.0003221841567 -0.0002186370249 -0.0001970960965 -0.000137155459)
5(-0.0003493369074 -0.0003262046079 -0.0002260152731 -0.0001872271477 -0.0002102821227)
5(-0.0003050086818 -0.0002240573403 -0.0002170329841 -0.0001608123207 -0.0002121781852)
5(-0.0002459625636 -0.0001642307914 -0.0001783044337 -0.0001304518397 -0.0001979665049)
5(-0.0001713787628 -0.0001181966783 -0.00012543344 -9.930187885e-05 -0.0001715571447)
5(-8.859526494e-05 -6.678043726e-05 -7.096705986e-05 -6.770540266e-05 -0.0001353375974)
5(-1.217946186e-05 -2.021507701e-05 -2.200705788e-05 -3.528474564e-05 -0.0001063179992)
5(4.844251185e-05 2.404020889e-05 1.054916012e-05 -7.485315746e-06 -8.599046152e-05)
5(0.0001004295664 7.167190304e-05 4.371009239e-05 2.255261073e-05 -6.934981651e-05)
5(0.0001595390249 0.0001115833153 7.460291832e-05 5.012434593e-05 -5.204121545e-05)
5(0.0002183077026 0.000161972588 0.0001149841617 7.999606492e-05 -2.902134591e-05)
5(0.0002854718571 0.000202001475 0.0001498520021 0.0001077351598 -9.650141833e-06)
5(0.0003399273121 0.0002445539855 0.0001919698003 0.000136229611 1.233324305e-05)
5(0.0003953787649 0.0002888079398 0.0002225375377 0.0001617134831 2.873012487e-05)
5(0.0004605072071 0.0003304324621 0.0002612226455 0.000189656666 4.755991241e-05)
5(0.0005178093784 0.0003713668617 0.0002880482502 0.0002118034703 5.830447368e-05)
5(0.0005779043868 0.0004119501859 0.0003281779094 0.0002377160846 7.790908398e-05)
5(0.0006195779672 0.0004491545338 0.000359666834 0.0002486168922 8.662277477e-05)
5(0.0006870531841 0.0004882301401 0.0003844334926 0.0002768974653 9.93561863e-05)
5(0.0007342224585 0.000518111891 0.0004113882444 0.0002915290833 0.0001050641756)
5(0.0007780408391 0.0005420085084 0.0004312499807 0.0003049988639 0.0001049998253)
5(0.0008382293112 0.0005770686783 0.0004524881402 0.0003152930327 0.000107375429)
5(0.0008629487467 0.0005926664927 0.0004625913343 0.0003139598036 0.0001019049859)
5(0.0008940403099 0.0006044713123 0.000469568966 0.0003153317104 9.984595192e-05)
5(0.0009367703986 0.0006143699059 0.0004764587393 0.0003104212389 9.572221781e-05)
5(0.0009514977369 0.0006053396859 0.0004712780321 0.000301492054 8.270821948e-05)
5(0.0009674338531 0.0006095628223 0.000460007918 0.0002923289544 8.214442849e-05)
5(0.0009531370191 0.0005977751717 0.0004450871883 0.0002842314884 7.821666571e-05)
5(0.0009636401489 0.0005772115768 0.0004326123107 0.0002722941048 6.470116302e-05)
5(0.0009500327941 0.0005532225813 0.000417918726 0.0002626109972 7.524702124e-05)
5(0.0009452195474 0.0005383728146 0.0003969667192 0.0002592833982 8.445548214e-05)
5(0.0009057515887 0.0005057188091 0.0003747816762 0.0002576930383 9.468864052e-05)
5(0.0008672963786 0.0004784530044 0.0003615366024 0.0002649399202 0.0001259068341)
5(0.0008486319393 0.0004543906893 0.0003564193805 0.0002818985223 0.0001664110281)
5(0.0007998971395 0.0004314207864 0.0003540416013 0.0003004277505 0.0001964306001)
5(0.0007705925235 0.0004225690408 0.0003588465849 0.0003275990813 0.0002407807502)
5(0.0007390942891 0.0004037568708 0.0003658674841 0.0003556380876 0.0002836647595)
5(0.0007105051193 0.0004021287307 0.0003794438028 0.0003807645649 0.0003188751093)