/*--------------------------------*- C++ -*----------------------------------*\
| =========                 |                                                 |
| \\      /  F ield         | OpenFOAM: The Open Source CFD Toolbox           |
|  \\    /   O peration     | Version:  2.3.1                                 |
|   \\  /    A nd           | Web:      www.OpenFOAM.org                      |
|    \\/     M anipulation  |                                                 |
\*---------------------------------------------------------------------------*/
FoamFile
{
    version     2.0;
    format      ascii;
    class       dictionary;
    location    "constant";
    object      PM46;
}
// * * * * * * * * * * * * * * * * * * * * * * * * * * * * * * * * * * * * * //

PM46_table
60
(

60
(
5(-8.100498733e-12 2.412298617e-11 2.142205802e-11 -4.65669175e-11 1.251750132e-10)
5(4.487952221e-08 -9.22213694e-11 -9.992051242e-11 -7.116626301e-11 2.799682063e-10)
5(4.537129082e-08 -4.852161217e-09 -9.427626117e-11 -4.04425498e-11 -5.936310857e-11)
5(4.272053964e-08 -1.321769772e-08 -9.59531755e-11 -9.548115249e-11 -6.29184117e-11)
5(3.214833352e-08 -2.125019128e-08 -1.018776814e-10 -1.199402598e-10 -7.86280077e-11)
5(-4.660228909e-09 -2.322674788e-08 -1.431290115e-10 -1.455831861e-10 -1.500124749e-10)
5(-3.53098947e-08 -2.12354135e-10 -2.302640778e-10 -2.036970114e-10 -2.250247545e-10)
5(3.91870645e-08 -2.919415603e-10 -2.870000855e-10 -2.60602311e-10 -2.193387589e-10)
5(6.846011526e-08 -2.241586565e-08 -3.489423382e-10 -3.487794587e-10 -3.974576949e-10)
5(4.253402296e-08 -3.686406531e-08 -4.990127765e-10 -4.543865569e-10 -5.212351956e-10)
5(-2.690786341e-08 -4.125836152e-08 -6.709675885e-10 -6.168329864e-10 -6.794072829e-10)
5(-6.257524592e-08 -1.274499942e-08 -8.406026354e-10 -8.263280148e-10 -8.872054671e-10)
5(-1.848618933e-08 -1.109775767e-09 -1.142199332e-09 -1.088553906e-09 -1.209328189e-09)
5(-1.05595676e-09 -1.444919116e-09 -1.496851647e-09 -1.420755992e-09 -1.57330571e-09)
5(-8.801952898e-11 -1.708074339e-09 -1.902810742e-09 -1.877260295e-09 -2.064866544e-09)
5(-3.805680026e-10 -2.954129731e-09 -2.51193254e-09 -2.476246006e-09 -2.762324664e-09)
5(-2.91757682e-09 -3.86251379e-09 -3.463184793e-09 -3.343617613e-09 -3.660861672e-09)
5(-4.089140561e-09 -4.560781032e-09 -4.683474358e-09 -4.331280485e-09 -4.692873506e-09)
5(-4.559367711e-09 -5.708960678e-09 -5.982121318e-09 -5.686585502e-09 -6.140465821e-09)
5(-5.534934852e-09 -7.424624549e-09 -7.826271627e-09 -7.546171169e-09 -8.293992821e-09)
5(-7.269430793e-09 -9.693554654e-09 -1.03107268e-08 -1.005218772e-08 -1.134028586e-08)
5(-9.666014087e-09 -1.289413604e-08 -1.375070296e-08 -1.374404945e-08 -1.561962845e-08)
5(-1.273603998e-08 -1.717673979e-08 -1.878009723e-08 -1.923177384e-08 -2.206190858e-08)
5(-1.684938019e-08 -2.254639661e-08 -2.580549378e-08 -2.679933376e-08 -3.117564132e-08)
5(-2.224083348e-08 -2.905412528e-08 -3.623079597e-08 -3.834596909e-08 -4.567394851e-08)
5(-2.926623534e-08 -4.097115552e-08 -5.210326788e-08 -5.585256827e-08 -6.814355993e-08)
5(-4.136085826e-08 -6.286250103e-08 -7.5435661e-08 -8.37762798e-08 -1.046633516e-07)
5(-6.038820584e-08 -9.340690285e-08 -1.119558737e-07 -1.287217612e-07 -1.627091891e-07)
5(-8.731586449e-08 -1.364422334e-07 -1.715703341e-07 -2.030829029e-07 -2.585137626e-07)
5(-1.28253803e-07 -2.065996943e-07 -2.677529597e-07 -3.237165425e-07 -4.131908053e-07)
5(-1.946148201e-07 -3.194279369e-07 -4.24390831e-07 -5.181688731e-07 -6.565513028e-07)
5(-3.021022056e-07 -5.01058647e-07 -6.721813805e-07 -8.208490452e-07 -1.02696426e-06)
5(-4.728703746e-07 -7.825464706e-07 -1.0569881e-06 -1.298434634e-06 -1.616805403e-06)
5(-7.438659254e-07 -1.221950677e-06 -1.642068117e-06 -1.987618783e-06 -2.396670874e-06)
5(-1.177144927e-06 -1.886802691e-06 -2.498771649e-06 -2.982714799e-06 -3.540396154e-06)
5(-1.835717376e-06 -2.863526672e-06 -3.750290424e-06 -4.321550317e-06 -4.912919565e-06)
5(-2.856539444e-06 -4.300161354e-06 -5.532049685e-06 -6.068346103e-06 -6.384087439e-06)
5(-4.29039119e-06 -6.179038264e-06 -7.753624235e-06 -7.910528471e-06 -7.852160178e-06)
5(-6.270975709e-06 -8.608215116e-06 -1.030488874e-05 -1.025865519e-05 -8.456245488e-06)
5(-8.850712028e-06 -1.154528841e-05 -1.310930054e-05 -1.059689461e-05 -2.244083904e-06)
5(-1.208498355e-05 -1.479256331e-05 -1.578137123e-05 -1.0682744e-05 -7.400519584e-06)
5(-1.563014906e-05 -1.78013307e-05 -1.710773912e-05 -7.43914483e-06 -7.941127757e-06)
5(-1.904650507e-05 -2.004408658e-05 -1.651842571e-05 -8.367074455e-06 -7.943556932e-06)
5(-2.173225119e-05 -2.078030659e-05 -1.545201329e-05 -8.94596988e-06 -5.87163214e-06)
5(-2.28711733e-05 -1.981819122e-05 -1.274577149e-05 -6.725797605e-06 -3.788992288e-06)
5(-2.213749825e-05 -1.683914086e-05 -7.370721956e-06 -4.500150771e-06 -2.09687076e-06)
5(-1.890513136e-05 -1.13492092e-05 -4.282104523e-06 -2.836962091e-06 -9.796671372e-07)
5(-1.414892176e-05 -7.47622975e-06 -3.445237195e-06 -1.397545545e-06 -3.822116681e-07)
5(-9.804310274e-06 -3.41815399e-06 -1.788818379e-06 -5.584986969e-07 -1.24552145e-07)
5(-3.669892329e-06 -1.431554286e-06 -8.140486638e-07 -1.803352261e-07 -3.503916322e-08)
5(-1.416383029e-06 -7.703046691e-07 -2.61188653e-07 -4.919305836e-08 -8.473797352e-09)
5(-7.290652082e-07 -2.644947346e-07 -6.728685615e-08 -1.110274538e-08 -1.774904994e-09)
5(-2.605908241e-07 -6.373623542e-08 -1.414815584e-08 -2.055190809e-09 -3.070992771e-10)
5(-5.364428657e-08 -1.063176728e-08 -2.214110399e-09 -2.900036e-10 -4.247189116e-11)
5(-7.240975015e-09 -1.363024448e-09 -2.586404423e-10 -2.549143772e-11 -3.464536788e-12)
5(-5.360974104e-10 -9.3284707e-11 -1.886016998e-11 -2.003077771e-13 5.337750097e-15)
5(-1.911837964e-11 -3.468725459e-12 -2.693441429e-13 2.403032726e-13 2.985672385e-14)
5(2.175084114e-13 1.052029272e-13 3.252926487e-14 4.620257916e-14 1.981669232e-15)
5(7.403394055e-15 -5.858102559e-14 1.229649041e-13 -9.987688351e-15 2.645443371e-17)
5(8.477853464e-19 3.054306321e-18 1.141985058e-09 2.044328807e-17 4.285247044e-17)
)


60
(
5(-8.875582328e-11 -7.551124786e-11 -1.327551519e-10 -1.037443158e-10 -1.231540227e-10)
5(-1.09881186e-10 -1.143782869e-10 -1.559427246e-10 -1.17126942e-10 -1.594688867e-10)
5(8.616730595e-09 -1.149855712e-10 -1.304537594e-10 -1.132138935e-10 -1.27970203e-10)
5(2.510584781e-08 -1.255175267e-10 -1.293146526e-10 -1.222377843e-10 -1.077920801e-10)
5(3.274052046e-08 -1.531454905e-10 -1.614397439e-10 -1.470056578e-10 -1.517097856e-10)
5(2.633467022e-08 -1.94920489e-10 -2.104280101e-10 -1.932572084e-10 -2.079693186e-10)
5(-2.059290296e-10 -2.518264113e-10 -2.775858114e-10 -2.543510315e-10 -2.827073554e-10)
5(-2.620047836e-10 -3.276202374e-10 -3.668671071e-10 -3.335530442e-10 -3.604520877e-10)
5(2.609307298e-08 -4.315604358e-10 -4.717040316e-10 -4.394647302e-10 -4.811002596e-10)
5(4.402201486e-08 -5.417540151e-10 -6.217850893e-10 -5.811484128e-10 -6.322753744e-10)
5(4.699821061e-08 -7.103052302e-10 -8.29737072e-10 -7.723035352e-10 -8.526414637e-10)
5(1.275620977e-08 -1.008032844e-09 -1.108462814e-09 -1.026290935e-09 -1.119021671e-09)
5(-1.072301961e-09 -1.328448588e-09 -1.464296549e-09 -1.347677813e-09 -1.460675541e-09)
5(-1.427689076e-09 -1.741680543e-09 -1.922192187e-09 -1.760598264e-09 -1.889495123e-09)
5(-1.895723681e-09 -2.287057932e-09 -2.511279936e-09 -2.275084723e-09 -2.425949545e-09)
5(-1.584847127e-09 -2.881915415e-09 -3.220961111e-09 -2.907263478e-09 -3.066619532e-09)
5(-2.463685757e-09 -3.780071721e-09 -4.126245182e-09 -3.70284682e-09 -3.888057993e-09)
5(-3.966070153e-09 -4.905060159e-09 -5.327240877e-09 -4.691604534e-09 -4.925274753e-09)
5(-5.550092044e-09 -6.310835153e-09 -6.756258844e-09 -5.910117539e-09 -6.164056928e-09)
5(-7.134636692e-09 -8.01181514e-09 -8.494915549e-09 -7.375594142e-09 -7.639298449e-09)
5(-9.141337132e-09 -1.007267185e-08 -1.05631064e-08 -9.114224149e-09 -9.371960027e-09)
5(-1.1601537e-08 -1.250981741e-08 -1.295800664e-08 -1.11529523e-08 -1.155250597e-08)
5(-1.449716511e-08 -1.524386451e-08 -1.561411903e-08 -1.320871878e-08 -1.373797538e-08)
5(-1.771339168e-08 -1.81429426e-08 -1.828906649e-08 -1.519972854e-08 -1.571760715e-08)
5(-2.132725357e-08 -2.069515948e-08 -2.0622853e-08 -1.656371789e-08 -1.676404968e-08)
5(-2.466290304e-08 -2.207937521e-08 -2.167383378e-08 -1.635404209e-08 -1.609633929e-08)
5(-2.723467024e-08 -2.250756221e-08 -1.962459404e-08 -1.31619329e-08 -1.331666267e-08)
5(-2.749370454e-08 -2.000398882e-08 -1.277567124e-08 -5.746511457e-09 -6.494050616e-09)
5(-2.345406928e-08 -1.065004818e-08 1.973737811e-09 8.047708829e-09 4.572225424e-09)
5(-1.173256905e-08 7.905868004e-09 2.71753093e-08 2.918494124e-08 1.499449184e-08)
5(1.104577418e-08 3.787351073e-08 6.175347916e-08 4.928237012e-08 1.645482284e-08)
5(4.803977266e-08 7.887702861e-08 1.043412277e-07 6.164252079e-08 -5.518934049e-10)
5(1.002448443e-07 1.26606052e-07 1.353920636e-07 3.474754036e-08 -1.151706277e-07)
5(1.643436371e-07 1.662902978e-07 1.224587678e-07 -8.86375799e-08 -3.731789768e-07)
5(2.245331049e-07 1.581294872e-07 3.047667431e-09 -3.994267208e-07 -9.021192961e-07)
5(2.396048433e-07 3.696318748e-08 -3.388432188e-07 -1.032245915e-06 -1.866162262e-06)
5(1.200789915e-07 -3.037519956e-07 -1.042325045e-06 -2.165131613e-06 -3.408964301e-06)
5(-1.998252335e-07 -1.022195399e-06 -2.331576154e-06 -3.969729066e-06 -5.735628939e-06)
5(-9.615294076e-07 -2.319060133e-06 -4.383332973e-06 -6.628428615e-06 -8.800902753e-06)
5(-2.314733919e-06 -4.383403271e-06 -7.341865083e-06 -1.008779636e-05 -1.319100945e-05)
5(-4.533960041e-06 -7.409799297e-06 -1.133973595e-05 -1.423233333e-05 -1.742566795e-05)
5(-7.763417387e-06 -1.130550394e-05 -1.590638018e-05 -1.896508856e-05 -2.070322577e-05)
5(-1.192639618e-05 -1.592810732e-05 -2.056743214e-05 -2.357638775e-05 -2.178346128e-05)
5(-1.672793402e-05 -2.014835996e-05 -2.323240402e-05 -2.501789264e-05 -2.014897044e-05)
5(-2.132743665e-05 -2.341809305e-05 -2.500861308e-05 -2.328292792e-05 -1.651255484e-05)
5(-2.482539489e-05 -2.445056634e-05 -2.430204976e-05 -1.901880202e-05 -1.164531389e-05)
5(-2.591061558e-05 -2.334606333e-05 -2.205493716e-05 -1.334166522e-05 -7.004506154e-06)
5(-2.398649559e-05 -2.024633634e-05 -1.619024713e-05 -7.958528753e-06 -3.529319676e-06)
5(-1.952744237e-05 -1.441052884e-05 -9.786391009e-06 -3.973808439e-06 -1.470186002e-06)
5(-1.359550362e-05 -9.676287899e-06 -4.852804689e-06 -1.618449591e-06 -5.004273353e-07)
5(-8.011240886e-06 -4.736038223e-06 -1.934543071e-06 -5.340014714e-07 -1.421902815e-07)
5(-4.050103833e-06 -1.791392753e-06 -5.972553377e-07 -1.408298206e-07 -3.441855393e-08)
5(-1.466556505e-06 -5.168576736e-07 -1.427957808e-07 -3.006503035e-08 -6.948552876e-09)
5(-3.732577734e-07 -1.051301769e-07 -2.504964608e-08 -4.867057991e-09 -1.132785375e-09)
5(-6.111481516e-08 -1.431071994e-08 -3.243292148e-09 -6.171378305e-10 -1.486856099e-10)
5(-5.660021044e-09 -1.249340348e-09 -2.695971758e-10 -5.355036591e-11 -1.281358605e-11)
5(-2.355369615e-10 -5.296250362e-11 -1.454423183e-11 -2.395204485e-12 -6.835770052e-13)
5(-3.565636634e-12 -1.370488344e-12 -2.914308476e-13 -3.264989564e-13 -2.663310609e-14)
5(-1.920994419e-13 -3.150541469e-10 8.373086525e-11 -3.453916679e-11 1.426189439e-14)
5(-3.858961423e-15 3.941804086e-10 1.262796918e-09 -3.212908655e-10 2.962702621e-17)
)


60
(
5(-9.785559499e-11 -4.970883217e-11 -1.670499837e-10 -1.181357215e-10 -1.674027387e-10)
5(-1.352580263e-10 -9.001170362e-11 -1.931334283e-10 -1.349032954e-10 -2.04927112e-10)
5(-1.36533472e-10 -1.042989613e-10 -1.779837344e-10 -1.32618342e-10 -1.690261537e-10)
5(-1.444174595e-10 -1.158908239e-10 -1.909570154e-10 -1.434259172e-10 -1.76026209e-10)
5(-1.689387964e-10 -1.332416128e-10 -2.290290514e-10 -1.711440718e-10 -2.154685364e-10)
5(-2.108284695e-10 -1.60894905e-10 -2.890893122e-10 -2.193876108e-10 -2.854201623e-10)
5(-2.660923453e-10 -1.996828599e-10 -3.764065165e-10 -2.848046746e-10 -3.771424437e-10)
5(-3.435840427e-10 -2.577638511e-10 -4.899043392e-10 -3.714197042e-10 -4.90481791e-10)
5(-4.429897678e-10 -3.373072162e-10 -6.419805675e-10 -4.924086852e-10 -6.559584609e-10)
5(-5.777896433e-10 -4.407090576e-10 -8.467873589e-10 -6.570133561e-10 -8.810358179e-10)
5(-7.576223932e-10 -5.738407554e-10 -1.120197002e-09 -8.698105639e-10 -1.1562438e-09)
5(-1.007639783e-09 -7.603857931e-10 -1.471211151e-09 -1.144665516e-09 -1.499968183e-09)
5(-1.327818996e-09 -9.868575179e-10 -1.921782533e-09 -1.493975817e-09 -1.942019274e-09)
5(-1.707971867e-09 -1.274669216e-09 -2.483653496e-09 -1.9163407e-09 -2.467968563e-09)
5(-2.195172825e-09 -1.637122065e-09 -3.184222256e-09 -2.432033381e-09 -3.066521083e-09)
5(-2.874127466e-09 -2.083553952e-09 -4.037797512e-09 -3.063620111e-09 -3.821902908e-09)
5(-3.706092951e-09 -2.615162957e-09 -5.081057265e-09 -3.809270748e-09 -4.677037715e-09)
5(-4.634405477e-09 -3.258355757e-09 -6.34024163e-09 -4.668226007e-09 -5.658473424e-09)
5(-5.895930705e-09 -4.043199947e-09 -7.808295184e-09 -5.659121031e-09 -6.872262267e-09)
5(-7.238490715e-09 -4.913085718e-09 -9.513576908e-09 -6.742450732e-09 -8.198734837e-09)
5(-9.027574203e-09 -5.898182831e-09 -1.141605585e-08 -7.883747042e-09 -9.442475722e-09)
5(-1.129151435e-08 -6.800464593e-09 -1.346883197e-08 -8.79301332e-09 -1.075206776e-08)
5(-1.35632631e-08 -7.573394958e-09 -1.553494031e-08 -9.327909829e-09 -1.147410148e-08)
5(-1.553890682e-08 -7.850883875e-09 -1.69262568e-08 -8.726807666e-09 -1.096101703e-08)
5(-1.787379221e-08 -7.039563419e-09 -1.692874125e-08 -5.686961388e-09 -7.309951211e-09)
5(-1.901687144e-08 -3.807549599e-09 -1.364565773e-08 1.792727206e-09 1.481878737e-09)
5(-1.800120481e-08 3.440431035e-09 -5.20001841e-09 1.700346206e-08 1.870161158e-08)
5(-1.383456208e-08 1.81003838e-08 1.356673303e-08 4.553596744e-08 5.115653102e-08)
5(-1.618354261e-09 4.567595798e-08 4.937538624e-08 9.515365031e-08 1.09267147e-07)
5(2.202061916e-08 9.206169582e-08 1.103611845e-07 1.768487191e-07 1.970200358e-07)
5(6.571074791e-08 1.690287113e-07 2.096166504e-07 2.995292211e-07 3.207646608e-07)
5(1.393399514e-07 2.886683991e-07 3.593366011e-07 4.776695078e-07 4.948402712e-07)
5(2.544195433e-07 4.635345049e-07 5.70924631e-07 7.091635888e-07 7.037565585e-07)
5(4.225366355e-07 7.065834579e-07 8.485036877e-07 9.938484905e-07 9.211407074e-07)
5(6.609214696e-07 1.027066428e-06 1.176686659e-06 1.281783783e-06 1.055166875e-06)
5(9.718735911e-07 1.403048242e-06 1.512315285e-06 1.499977461e-06 1.02298598e-06)
5(1.322902798e-06 1.803912656e-06 1.761913608e-06 1.491317554e-06 5.735156744e-07)
5(1.72317859e-06 2.155784366e-06 1.771054258e-06 1.050282213e-06 -5.027529268e-07)
5(2.060528384e-06 2.288861693e-06 1.321479609e-06 -7.290504931e-08 -2.439564055e-06)
5(2.232804674e-06 2.053233627e-06 1.473349351e-07 -2.133642234e-06 -5.453023368e-06)
5(2.065778814e-06 1.151163683e-06 -2.014278931e-06 -5.310019714e-06 -9.566373035e-06)
5(1.363037473e-06 -5.453876108e-07 -5.213481532e-06 -9.53126008e-06 -1.428797224e-05)
5(-3.266838794e-09 -3.211280556e-06 -9.337219594e-06 -1.437889454e-05 -1.865011205e-05)
5(-2.066875737e-06 -6.747542268e-06 -1.387234565e-05 -1.890847609e-05 -2.14416554e-05)
5(-4.749943479e-06 -1.054113399e-05 -1.798758468e-05 -2.186205138e-05 -2.175284825e-05)
5(-7.640012822e-06 -1.383673312e-05 -2.056831277e-05 -2.214774537e-05 -1.93401494e-05)
5(-9.950255812e-06 -1.574432208e-05 -2.082912689e-05 -1.947755491e-05 -1.489695401e-05)
5(-1.113384678e-05 -1.574828257e-05 -1.830679327e-05 -1.472258058e-05 -9.819469897e-06)
5(-1.053481776e-05 -1.361077738e-05 -1.371896642e-05 -9.451812811e-06 -5.463135687e-06)
5(-8.61301663e-06 -1.004493571e-05 -8.567929836e-06 -5.045437294e-06 -2.490743274e-06)
5(-5.810225572e-06 -6.164421517e-06 -4.384633552e-06 -2.196469263e-06 -9.323156115e-07)
5(-3.154606678e-06 -2.9896298e-06 -1.779849789e-06 -7.554507394e-07 -2.730826186e-07)
5(-1.295466736e-06 -1.105877685e-06 -5.475683504e-07 -2.01632371e-07 -6.583870463e-08)
5(-3.788404221e-07 -2.947188947e-07 -1.22055997e-07 -4.058094669e-08 -1.221566354e-08)
5(-7.257577027e-08 -5.247260971e-08 -1.839208716e-08 -5.890835343e-09 -1.790048223e-09)
5(-7.816757796e-09 -5.602547132e-09 -1.88977548e-09 -6.15385539e-10 -2.032103685e-10)
5(-5.049155242e-10 -3.55639812e-10 -1.07026777e-10 -4.354656575e-11 -1.326013196e-11)
5(4.682766998e-12 -6.00514758e-11 -3.479930015e-12 -4.403935e-11 3.141039339e-13)
5(-2.989162151e-10 6.033487084e-10 1.457477351e-10 -8.506301141e-11 1.173557163e-10)
5(2.890004587e-14 6.924149581e-10 2.870790032e-11 -1.289745797e-10 -1.124817836e-17)
)


60
(
5(-1.137681977e-10 -2.508338752e-11 -2.161875286e-10 -1.475130031e-10 -2.3466381e-10)
5(-1.667257437e-10 -8.237618864e-11 -2.431686306e-10 -1.646649572e-10 -2.648672166e-10)
5(-1.712156201e-10 -8.76299524e-11 -2.22099982e-10 -1.496158897e-10 -2.16466958e-10)
5(-1.721043882e-10 -7.573871097e-11 -2.274913359e-10 -1.460735284e-10 -2.14359295e-10)
5(-1.826027617e-10 -5.92359034e-11 -2.541933812e-10 -1.52669718e-10 -2.430391662e-10)
5(-2.091370354e-10 -4.209676807e-11 -2.960453718e-10 -1.694931374e-10 -3.01634696e-10)
5(-2.436551011e-10 -1.907885796e-11 -3.557894269e-10 -1.959619392e-10 -3.904330653e-10)
5(-2.866671083e-10 1.037401925e-11 -4.418523958e-10 -2.463015203e-10 -5.008250731e-10)
5(-3.385696511e-10 4.981275683e-11 -5.557397895e-10 -3.129244038e-10 -6.622071794e-10)
5(-4.137018368e-10 1.049768364e-10 -7.139689026e-10 -4.098593826e-10 -8.722292031e-10)
5(-5.074192865e-10 1.752799917e-10 -9.086939395e-10 -5.282812656e-10 -1.164295049e-09)
5(-6.199427744e-10 2.739336268e-10 -1.152583908e-09 -7.00159135e-10 -1.515691613e-09)
5(-7.611646648e-10 4.20447927e-10 -1.459434848e-09 -9.018137507e-10 -1.910132655e-09)
5(-9.203641887e-10 6.207205287e-10 -1.833504835e-09 -1.123501738e-09 -2.384968172e-09)
5(-1.038848203e-09 8.739086995e-10 -2.259438696e-09 -1.383157863e-09 -2.970247484e-09)
5(-1.164438502e-09 1.23120212e-09 -2.715437578e-09 -1.642639985e-09 -3.553877725e-09)
5(-1.40750067e-09 1.73807387e-09 -3.184169626e-09 -1.852731822e-09 -4.211922543e-09)
5(-1.392979376e-09 2.474019925e-09 -3.70287882e-09 -1.964753603e-09 -4.802312235e-09)
5(-1.552503901e-09 3.411980499e-09 -4.088323458e-09 -1.978093861e-09 -5.367548914e-09)
5(-1.372994858e-09 4.919843929e-09 -4.439910555e-09 -1.7690728e-09 -5.946590361e-09)
5(-7.057069233e-10 6.849726936e-09 -4.598771037e-09 -1.100922024e-09 -5.745295432e-09)
5(-1.265415277e-10 9.428330883e-09 -4.170767309e-09 4.223984311e-10 -5.105713323e-09)
5(4.718404072e-10 1.341424811e-08 -2.784059777e-09 3.021948573e-09 -3.468002382e-09)
5(3.342298466e-09 1.94053887e-08 -1.938831715e-10 7.925082618e-09 3.828044344e-10)
5(7.151031698e-09 2.72327851e-08 4.944775095e-09 1.638033198e-08 8.667918932e-09)
5(1.337661721e-08 3.923221031e-08 1.497999126e-08 3.172372059e-08 2.542547276e-08)
5(2.301043384e-08 5.719532924e-08 3.277176351e-08 5.784862887e-08 5.490390235e-08)
5(3.887778519e-08 8.566979247e-08 6.400122571e-08 1.023151474e-07 1.05274473e-07)
5(6.487439059e-08 1.292007036e-07 1.1658224e-07 1.747246919e-07 1.900624582e-07)
5(1.0681572e-07 1.965561441e-07 2.031155945e-07 2.911769091e-07 3.270299543e-07)
5(1.733174725e-07 3.008463411e-07 3.400731764e-07 4.728933181e-07 5.367723566e-07)
5(2.758063208e-07 4.57467627e-07 5.477078738e-07 7.405717309e-07 8.362135256e-07)
5(4.30945384e-07 6.861024742e-07 8.511649074e-07 1.121842133e-06 1.246950559e-06)
5(6.599887679e-07 1.015084835e-06 1.274291455e-06 1.628731332e-06 1.775821738e-06)
5(9.823757784e-07 1.461461385e-06 1.830996488e-06 2.276313081e-06 2.385981452e-06)
5(1.419070213e-06 2.042309754e-06 2.519710384e-06 2.997791052e-06 2.961344551e-06)
5(1.994174221e-06 2.760292811e-06 3.292024874e-06 3.729184118e-06 3.420970681e-06)
5(2.685439646e-06 3.572536043e-06 4.05564484e-06 4.290256343e-06 3.439507809e-06)
5(3.474608705e-06 4.411504641e-06 4.637591589e-06 4.410545767e-06 2.720300102e-06)
5(4.315208058e-06 5.14252184e-06 4.799342365e-06 3.798807522e-06 9.449304713e-07)
5(5.077567193e-06 5.563505571e-06 4.24639836e-06 2.082382332e-06 -2.235929228e-06)
5(5.664873367e-06 5.480353755e-06 2.677798773e-06 -9.489119091e-07 -6.789776558e-06)
5(5.904809289e-06 4.632913608e-06 -2.589027448e-08 -5.401580737e-06 -1.232471151e-05)
5(5.724139474e-06 2.904504827e-06 -3.783298725e-06 -1.076205828e-05 -1.764988936e-05)
5(5.054338507e-06 3.612405347e-07 -8.202037216e-06 -1.597787508e-05 -2.149730487e-05)
5(3.934872013e-06 -2.523912996e-06 -1.244885261e-05 -1.969014113e-05 -2.271828749e-05)
5(2.680558494e-06 -5.199045361e-06 -1.542972137e-05 -2.061905651e-05 -2.079567731e-05)
5(1.484980171e-06 -7.055995583e-06 -1.61717903e-05 -1.853669253e-05 -1.639036243e-05)
5(7.695622462e-07 -7.705429439e-06 -1.437447858e-05 -1.41744546e-05 -1.092809889e-05)
5(7.43418282e-07 -6.839761529e-06 -1.068202409e-05 -9.034936316e-06 -6.078037613e-06)
5(1.122566346e-06 -5.01336172e-06 -6.464914185e-06 -4.731428899e-06 -2.789680234e-06)
5(1.551591303e-06 -2.900442311e-06 -3.125239548e-06 -1.997501697e-06 -1.016238778e-06)
5(1.72394642e-06 -1.236606571e-06 -1.172372534e-06 -6.385324997e-07 -2.82609339e-07)
5(1.3655615e-06 -3.591793164e-07 -3.193119542e-07 -1.513558798e-07 -6.168543354e-08)
5(6.960903683e-07 -6.669516458e-08 -5.801375537e-08 -2.483949828e-08 -9.461292676e-09)
5(2.934337064e-07 -2.090429077e-09 -6.293119473e-09 -2.716414321e-09 -9.692289583e-10)
5(6.566670058e-08 1.228808556e-09 -4.489183588e-10 -1.778955351e-10 -7.439936617e-11)
5(6.896025213e-09 5.645824573e-10 -1.703166145e-11 3.766215281e-10 -9.14217164e-12)
5(3.695536619e-09 1.927326069e-09 -5.468669534e-11 3.24223017e-10 -1.268409833e-09)
5(7.97022416e-10 -1.859694272e-09 2.424502715e-09 -4.221487295e-10 -7.251235852e-16)
)


60
(
5(-1.397010625e-10 -6.294225718e-12 -2.94434956e-10 -2.085297938e-10 -3.377180678e-10)
5(-2.088177417e-10 -8.427322131e-11 -3.0842377e-10 -2.133708378e-10 -3.45528279e-10)
5(-2.029920755e-10 -6.510427946e-11 -2.641395098e-10 -1.64031893e-10 -2.661015879e-10)
5(-1.85958394e-10 -9.75518208e-12 -2.38962241e-10 -1.22809161e-10 -2.442186266e-10)
5(-1.682742059e-10 7.014709075e-11 -2.228167869e-10 -8.058831484e-11 -2.427825247e-10)
5(-1.468605269e-10 1.744223312e-10 -2.034778301e-10 -3.12678315e-11 -2.566611048e-10)
5(-1.190635548e-10 3.210225188e-10 -1.766720374e-10 3.064954273e-11 -3.044816636e-10)
5(-7.645511482e-11 5.063029984e-10 -1.591421444e-10 8.72480531e-11 -3.624726317e-10)
5(-2.515271607e-11 7.5477421e-10 -1.359397673e-10 1.541281833e-10 -4.742179988e-10)
5(6.176125834e-11 1.095835246e-09 -1.195167214e-10 2.164659737e-10 -6.35952168e-10)
5(1.878014547e-10 1.547607178e-09 -8.201253545e-11 2.966432199e-10 -8.485298863e-10)
5(3.631966387e-10 2.139822341e-09 -3.660965626e-11 3.780255176e-10 -1.119136551e-09)
5(6.532495586e-10 2.906925268e-09 6.062982966e-11 5.18105528e-10 -1.42491428e-09)
5(9.528935548e-10 3.877244497e-09 2.132990603e-10 6.948784882e-10 -1.755553739e-09)
5(1.428400901e-09 5.158235723e-09 4.78295854e-10 1.011801306e-09 -2.006561302e-09)
5(2.260967934e-09 6.863867652e-09 9.217164541e-10 1.497438216e-09 -2.225165955e-09)
5(3.220576821e-09 9.019453637e-09 1.59700763e-09 2.339902833e-09 -2.38043574e-09)
5(4.620061698e-09 1.186538425e-08 2.707778909e-09 3.442537661e-09 -2.259253105e-09)
5(6.606838553e-09 1.56384271e-08 4.352105777e-09 5.236838103e-09 -1.665627231e-09)
5(9.290303442e-09 2.05207529e-08 6.695432111e-09 7.890363618e-09 -4.384627393e-10)
5(1.286013382e-08 2.682914666e-08 1.025042745e-08 1.174498457e-08 1.773611547e-09)
5(1.784746347e-08 3.537031958e-08 1.514398929e-08 1.730480133e-08 5.140155092e-09)
5(2.477957739e-08 4.642174457e-08 2.211128272e-08 2.511824069e-08 1.053653047e-08)
5(3.401336771e-08 6.067221798e-08 3.175675949e-08 3.675438352e-08 1.959989278e-08)
5(4.575134324e-08 7.933259114e-08 4.610800909e-08 5.302716674e-08 3.305491679e-08)
5(6.260246387e-08 1.040293445e-07 6.668457745e-08 7.80001678e-08 5.772782322e-08)
5(8.531800591e-08 1.370566793e-07 9.737731101e-08 1.158192537e-07 9.55934623e-08)
5(1.161079297e-07 1.825657148e-07 1.427053602e-07 1.739457521e-07 1.586463392e-07)
5(1.578301628e-07 2.451737658e-07 2.121523418e-07 2.640102141e-07 2.605800948e-07)
5(2.198413762e-07 3.337055832e-07 3.181819663e-07 4.024997385e-07 4.214567106e-07)
5(3.082266563e-07 4.598868687e-07 4.772953969e-07 6.130944526e-07 6.722476349e-07)
5(4.343946424e-07 6.411011366e-07 7.128712039e-07 9.284154847e-07 1.03752733e-06)
5(6.178871992e-07 8.98395959e-07 1.057977004e-06 1.371678433e-06 1.538317815e-06)
5(8.804053676e-07 1.259164213e-06 1.538427348e-06 1.988210874e-06 2.228920482e-06)
5(1.246641766e-06 1.74679938e-06 2.190770327e-06 2.799779389e-06 3.093351859e-06)
5(1.736098309e-06 2.395131643e-06 3.034603885e-06 3.809909354e-06 4.099051472e-06)
5(2.376828421e-06 3.224925028e-06 4.063669796e-06 4.978548026e-06 5.169463314e-06)
5(3.197963353e-06 4.233643809e-06 5.238324281e-06 6.205720805e-06 6.08257259e-06)
5(4.180147205e-06 5.388996441e-06 6.456533008e-06 7.273655253e-06 6.522846126e-06)
5(5.317779808e-06 6.629040947e-06 7.538234774e-06 7.926076436e-06 6.183466024e-06)
5(6.530084361e-06 7.828588894e-06 8.24169492e-06 7.807652245e-06 4.630145439e-06)
5(7.779474275e-06 8.845462482e-06 8.256056622e-06 6.501257128e-06 1.307593442e-06)
5(8.965616657e-06 9.477866509e-06 7.35738594e-06 3.630149869e-06 -3.749569985e-06)
5(1.000419984e-05 9.548128888e-06 5.332517341e-06 -8.7217987e-07 -9.934253539e-06)
5(1.083883344e-05 9.015460458e-06 2.280043937e-06 -6.481800819e-06 -1.606447794e-05)
5(1.149719733e-05 7.933468267e-06 -1.57741701e-06 -1.204652761e-05 -2.063852604e-05)
5(1.179826066e-05 6.417128173e-06 -5.422536666e-06 -1.614074965e-05 -2.238791618e-05)
5(1.209812667e-05 4.856823886e-06 -8.41752034e-06 -1.746366036e-05 -2.074366071e-05)
5(1.204161139e-05 3.447600757e-06 -9.606989223e-06 -1.576949044e-05 -1.637614381e-05)
5(1.206556027e-05 2.386449502e-06 -8.63580093e-06 -1.194064994e-05 -1.091109138e-05)
5(1.170996884e-05 1.577240702e-06 -6.287126002e-06 -7.424151804e-06 -5.928717962e-06)
5(1.072806964e-05 1.438649952e-06 -3.581815301e-06 -3.686671868e-06 -2.621029052e-06)
5(9.214349045e-06 1.158015147e-06 -1.576538794e-06 -1.43476528e-06 -8.992782335e-07)
5(7.392071355e-06 8.754368333e-07 -5.179957951e-07 -3.985868603e-07 -2.211608984e-07)
5(4.719547115e-06 5.388347586e-07 -1.093273259e-07 -7.767718483e-08 -3.948189854e-08)
5(2.723372345e-06 2.085687225e-07 -1.767762738e-08 -9.292703787e-09 -4.7129522e-09)
5(1.078918958e-06 7.640114709e-08 6.680735726e-11 -6.083623857e-10 -3.116148826e-10)
5(3.456443162e-07 1.022616549e-08 6.532566053e-11 1.753972409e-10 -1.7355412e-11)
5(9.458288006e-08 -2.311070523e-09 7.656601156e-10 -1.333083698e-09 -7.132077045e-10)
5(1.212182927e-07 3.513406671e-09 1.643080916e-08 -2.042108168e-09 -6.122133505e-15)
)


60
(
5(-1.779414385e-10 -4.204611596e-12 -4.1412888e-10 -3.262363175e-10 -4.964589715e-10)
5(-2.751041311e-10 -1.134843223e-10 -3.999855573e-10 -3.068124978e-10 -4.668641851e-10)
5(-2.489113986e-10 -5.772246129e-11 -3.109338593e-10 -1.979822416e-10 -3.220051192e-10)
5(-1.939351332e-10 5.707859053e-11 -2.353174296e-10 -8.502296602e-11 -2.239727386e-10)
5(-1.406640179e-10 2.145844512e-10 -1.488766944e-10 4.374767397e-11 -1.849063706e-10)
5(-5.602097484e-11 4.315804926e-10 -2.093013173e-11 1.957650969e-10 -1.280178809e-10)
5(5.121368733e-11 7.275052755e-10 1.429868879e-10 3.961471397e-10 -7.709812496e-11)
5(2.01144313e-10 1.111644381e-09 3.298920564e-10 6.120972341e-10 -7.344283814e-11)
5(4.028316014e-10 1.611612367e-09 5.667853963e-10 8.733605171e-10 -6.777794405e-11)
5(6.730238858e-10 2.265599453e-09 8.462743545e-10 1.167448387e-09 -1.506411777e-10)
5(1.008340549e-09 3.12871783e-09 1.215563357e-09 1.537963328e-09 -2.284094723e-10)
5(1.530294224e-09 4.236593118e-09 1.681319966e-09 1.980733389e-09 -3.643460869e-10)
5(2.135326163e-09 5.629079887e-09 2.321796614e-09 2.55759206e-09 -4.649710963e-10)
5(2.995664943e-09 7.419481452e-09 3.138469977e-09 3.298490385e-09 -5.094017081e-10)
5(4.049084243e-09 9.669089427e-09 4.278092266e-09 4.350078882e-09 -3.796988667e-10)
5(5.465228969e-09 1.25628738e-08 5.753990883e-09 5.799692544e-09 -3.210642898e-11)
5(7.490410713e-09 1.630138176e-08 7.94058131e-09 7.965750951e-09 7.951528798e-10)
5(1.000102959e-08 2.107126361e-08 1.095009468e-08 1.079062048e-08 2.133011004e-09)
5(1.351223587e-08 2.726679138e-08 1.503520712e-08 1.514600845e-08 4.604258549e-09)
5(1.825533444e-08 3.523294969e-08 2.072560136e-08 2.078056243e-08 7.734234193e-09)
5(2.37873078e-08 4.5345084e-08 2.826052127e-08 2.867782536e-08 1.329767991e-08)
5(3.225024866e-08 5.888766237e-08 3.860247011e-08 3.95981087e-08 2.080980387e-08)
5(4.290022521e-08 7.571959129e-08 5.218047292e-08 5.387786887e-08 3.119212151e-08)
5(5.584005856e-08 9.72245058e-08 7.022320484e-08 7.353822839e-08 4.728659007e-08)
5(7.388820649e-08 1.24713418e-07 9.458656064e-08 1.004460415e-07 6.93744975e-08)
5(9.708516337e-08 1.599287532e-07 1.269498932e-07 1.363636385e-07 1.004542378e-07)
5(1.268255786e-07 2.051722634e-07 1.706583499e-07 1.874985098e-07 1.500755873e-07)
5(1.652199641e-07 2.635619704e-07 2.301934433e-07 2.606212756e-07 2.249197745e-07)
5(2.179430489e-07 3.39691444e-07 3.161195181e-07 3.667214925e-07 3.368818783e-07)
5(2.898257739e-07 4.429574608e-07 4.37699222e-07 5.195811105e-07 5.113196094e-07)
5(3.87214967e-07 5.837147315e-07 6.114726763e-07 7.476887706e-07 7.76137614e-07)
5(5.217780374e-07 7.747252156e-07 8.589448892e-07 1.0754723e-06 1.158385328e-06)
5(7.103889377e-07 1.039897538e-06 1.212587611e-06 1.543329638e-06 1.720292227e-06)
5(9.821436569e-07 1.402049337e-06 1.706705014e-06 2.203956529e-06 2.494794721e-06)
5(1.35154076e-06 1.891588685e-06 2.374723974e-06 3.076354201e-06 3.467606681e-06)
5(1.845916903e-06 2.544779272e-06 3.256196685e-06 4.203339286e-06 4.694392843e-06)
5(2.514159897e-06 3.377791516e-06 4.362063844e-06 5.572234382e-06 6.101947061e-06)
5(3.357391821e-06 4.40985743e-06 5.685498703e-06 7.134001472e-06 7.58925624e-06)
5(4.393245289e-06 5.638101629e-06 7.172745799e-06 8.78525501e-06 8.956512935e-06)
5(5.59629642e-06 7.011640177e-06 8.713507851e-06 1.031348111e-05 9.817561179e-06)
5(6.9431777e-06 8.480719456e-06 1.013407102e-05 1.136507428e-05 9.751805376e-06)