/*--------------------------------*- C++ -*----------------------------------*\
| =========                 |                                                 |
| \\      /  F ield         | OpenFOAM: The Open Source CFD Toolbox           |
|  \\    /   O peration     | Version:  2.3.1                                 |
|   \\  /    A nd           | Web:      www.OpenFOAM.org                      |
|    \\/     M anipulation  |                                                 |
\*---------------------------------------------------------------------------*/
FoamFile
{
    version     2.0;
    format      ascii;
    class       dictionary;
    location    "constant";
    object      PM47;
}
// * * * * * * * * * * * * * * * * * * * * * * * * * * * * * * * * * * * * * //

PM47_table
60
(

60
(
5(2.764013861e-10 1.039704065e-10 3.015048571e-10 1.35528048e-10 3.197124006e-10)
5(3.538204605e-08 4.884743789e-11 8.409146062e-11 5.861500788e-11 2.616949308e-10)
5(-5.625445118e-09 4.225509999e-09 8.439948847e-11 3.300460961e-11 1.544558435e-11)
5(-2.903442518e-08 1.193974862e-08 1.185471877e-10 6.493322212e-11 1.827018938e-10)
5(-3.978821415e-08 1.340198893e-08 9.498679858e-11 1.136546471e-10 5.740987058e-11)
5(-1.30700456e-08 8.646940758e-09 7.568405215e-11 1.140656313e-10 8.795630833e-11)
5(1.915563639e-08 1.635729725e-10 1.676985291e-10 1.455227164e-10 1.815452343e-10)
5(-2.171609773e-08 2.518341914e-10 2.456302345e-10 1.965356155e-10 1.002890033e-10)
5(-6.781293439e-08 1.06185469e-08 2.7825292e-10 2.718822997e-10 2.76443787e-10)
5(-6.123655646e-08 1.830296831e-08 4.369210634e-10 3.396083848e-10 3.580057315e-10)
5(-2.224597719e-08 1.967932291e-08 5.303941837e-10 4.728958472e-10 4.485225059e-10)
5(2.67560157e-08 6.277231175e-09 6.378519327e-10 6.482013335e-10 5.587683974e-10)
5(1.219272727e-08 1.024058634e-09 8.908673066e-10 8.80893019e-10 7.892009243e-10)
5(1.183211393e-09 1.331221933e-09 1.180020359e-09 1.092961631e-09 1.003693614e-09)
5(6.649107264e-10 1.642186847e-09 1.523661647e-09 1.539060164e-09 1.333935586e-09)
5(3.204263141e-10 2.464657437e-09 2.05385371e-09 2.013670579e-09 1.821518849e-09)
5(2.315749708e-09 3.259620988e-09 2.768847675e-09 2.745842903e-09 2.506547062e-09)
5(3.83881942e-09 4.117409975e-09 3.797297947e-09 3.677646853e-09 3.259911157e-09)
5(4.915216815e-09 5.455196426e-09 5.006445664e-09 4.898669449e-09 4.311519042e-09)
5(6.325881604e-09 7.340294085e-09 6.702722095e-09 6.730361788e-09 5.735464455e-09)
5(8.226771347e-09 9.400492516e-09 8.76569854e-09 8.678974513e-09 7.803032104e-09)
5(1.108958183e-08 1.273864003e-08 1.187343174e-08 1.140030709e-08 1.080793488e-08)
5(1.48825924e-08 1.742548907e-08 1.633966258e-08 1.721477129e-08 1.613190409e-08)
5(1.981253327e-08 2.39537493e-08 2.287026261e-08 2.418230396e-08 2.281344994e-08)
5(2.685647885e-08 3.170987628e-08 3.321623397e-08 3.612522616e-08 3.438906232e-08)
5(3.609858611e-08 4.444813212e-08 4.887720787e-08 5.434338216e-08 5.135515549e-08)
5(5.086659191e-08 6.657153474e-08 7.085903265e-08 8.32292485e-08 8.010598214e-08)
5(7.37278809e-08 1.018141184e-07 1.09236277e-07 1.288053952e-07 1.261331562e-07)
5(1.093932434e-07 1.535029954e-07 1.658885477e-07 2.013455373e-07 2.036867674e-07)
5(1.627414178e-07 2.386691167e-07 2.615965031e-07 3.190100626e-07 3.279149451e-07)
5(2.505265037e-07 3.736108915e-07 4.220962748e-07 5.17808779e-07 5.105605123e-07)
5(3.853809959e-07 5.81605634e-07 6.559421205e-07 7.833697313e-07 7.691619612e-07)
5(6.003775594e-07 9.216170347e-07 1.054660056e-06 1.256848529e-06 1.30277733e-06)
5(9.425035927e-07 1.44449816e-06 1.646274859e-06 1.866411369e-06 1.731597091e-06)
5(1.46455015e-06 2.207488022e-06 2.508214648e-06 2.802217718e-06 2.647507022e-06)
5(2.251790898e-06 3.370595812e-06 3.772573821e-06 3.962789468e-06 3.692348578e-06)
5(3.370320472e-06 4.744840599e-06 5.017445293e-06 5.463543011e-06 4.620731453e-06)
5(4.968651438e-06 6.905999044e-06 7.229113786e-06 7.090619471e-06 4.996144927e-06)
5(7.12663983e-06 9.384968262e-06 9.828242691e-06 9.156651052e-06 5.841905631e-06)
5(9.874146774e-06 1.235984246e-05 1.247565193e-05 9.25509553e-06 2.498562744e-06)
5(1.279088349e-05 1.505369354e-05 1.404493832e-05 9.108530422e-06 4.10438464e-06)
5(1.599125898e-05 1.771401626e-05 1.480956314e-05 5.987126087e-06 4.723344236e-06)
5(1.898763934e-05 1.93920288e-05 1.449015126e-05 4.60314658e-06 5.941958269e-06)
5(2.158479267e-05 2.116432632e-05 1.579943316e-05 5.664926038e-06 4.949882796e-06)
5(2.223554111e-05 1.978764688e-05 1.197809327e-05 4.766733301e-06 3.430545754e-06)
5(2.123716218e-05 1.708347739e-05 6.787270293e-06 3.635686842e-06 2.149966851e-06)
5(1.812266639e-05 1.050706835e-05 2.847742561e-06 2.753694508e-06 1.155565574e-06)
5(1.334630352e-05 6.443433966e-06 2.392632703e-06 1.591498681e-06 5.296387752e-07)
5(9.833208396e-06 3.273251308e-06 1.450495395e-06 7.448849663e-07 2.066389213e-07)
5(4.564001097e-06 9.901907211e-07 8.225100906e-07 2.87528191e-07 7.09251962e-08)
5(1.793423743e-06 6.773785264e-07 3.103586103e-07 9.677656507e-08 2.153915264e-08)
5(5.861256966e-07 2.935424207e-07 9.663266886e-08 2.811862143e-08 5.88638596e-09)
5(2.591342876e-07 8.954689144e-08 2.546299172e-08 7.166311231e-09 1.431739811e-09)
5(6.760028849e-08 1.933692597e-08 5.295107027e-09 1.560278266e-09 3.124902362e-10)
5(1.204775526e-08 3.428258856e-09 9.062396127e-10 2.794147774e-10 5.444163732e-11)
5(1.363095183e-09 3.751085266e-10 1.205317345e-10 3.667405294e-11 7.604447774e-12)
5(1.127809425e-10 3.450044924e-11 8.593378517e-12 3.219642522e-12 6.065756753e-13)
5(5.003023953e-12 1.472643918e-12 3.591746164e-13 2.795805872e-13 2.150384157e-14)
5(3.229280735e-14 -2.401666664e-13 5.099872231e-13 -1.75967315e-13 2.24965428e-16)
5(1.833210597e-18 6.367505576e-18 2.160536713e-09 4.15091928e-17 9.699474478e-17)
)


60
(
5(5.13566587e-10 2.789364937e-10 5.355275144e-10 3.337662189e-10 4.381922783e-10)
5(2.753321422e-10 1.520969976e-10 2.426260868e-10 2.004265201e-10 1.793177857e-10)
5(-9.322147456e-09 2.083777341e-10 1.972036633e-10 1.629754343e-10 7.519047439e-11)
5(-1.99530894e-08 2.628379774e-10 2.622978472e-10 1.557448381e-10 2.422072648e-10)
5(-3.326494095e-08 3.03885477e-10 3.168452461e-10 2.478106309e-10 2.354113377e-10)
5(-4.218155937e-08 3.604545538e-10 2.762537483e-10 3.21272044e-10 2.601465472e-10)
5(4.672949236e-10 4.476782809e-10 3.754276953e-10 3.717568237e-10 4.324799043e-10)
5(4.744230135e-10 5.874397881e-10 5.786538677e-10 5.232434009e-10 4.004686065e-10)
5(-4.399088462e-08 7.991391908e-10 7.234431701e-10 7.162482631e-10 6.209293395e-10)
5(-7.271172556e-08 1.052488009e-09 1.062927825e-09 9.361606607e-10 8.595773953e-10)
5(-7.965715492e-08 1.389061895e-09 1.41846687e-09 1.262963162e-09 1.16465505e-09)
5(-2.130753227e-08 1.954298113e-09 1.795303523e-09 1.686681295e-09 1.483076812e-09)
5(2.185565391e-09 2.611751722e-09 2.349425997e-09 2.292382415e-09 1.987172579e-09)
5(3.082232776e-09 3.482539361e-09 3.137470585e-09 2.894411676e-09 2.531920937e-09)
5(3.930559962e-09 4.514676984e-09 4.057973784e-09 3.855932498e-09 3.280734615e-09)
5(3.755791717e-09 5.830812351e-09 5.348911663e-09 5.01294693e-09 4.245760912e-09)
5(5.61039885e-09 7.677960233e-09 6.956218358e-09 6.501227576e-09 5.569695859e-09)
5(8.654346452e-09 1.006479361e-08 9.12246932e-09 8.512462989e-09 7.253827287e-09)
5(1.197352505e-08 1.317072781e-08 1.181592708e-08 1.095542096e-08 9.364967179e-09)
5(1.583619904e-08 1.744743153e-08 1.547863496e-08 1.450239861e-08 1.205736927e-08)
5(2.049989453e-08 2.214388232e-08 1.962479127e-08 1.860958579e-08 1.559258783e-08)
5(2.649811818e-08 2.839440683e-08 2.54070871e-08 2.29912427e-08 1.99360628e-08)
5(3.454848915e-08 3.663983355e-08 3.250738516e-08 3.064881717e-08 2.679327133e-08)
5(4.374900177e-08 4.766729149e-08 4.180436886e-08 3.991174682e-08 3.509497109e-08)
5(5.602986092e-08 6.04474487e-08 5.4218565e-08 5.315654857e-08 4.707404024e-08)
5(7.067161878e-08 7.588519038e-08 7.134160011e-08 7.196531547e-08 6.335917627e-08)
5(8.924285027e-08 9.718488384e-08 9.071890582e-08 9.757587025e-08 8.787014494e-08)
5(1.111604997e-07 1.270377429e-07 1.203391961e-07 1.350940976e-07 1.243393819e-07)
5(1.404299561e-07 1.670490756e-07 1.593657052e-07 1.901060994e-07 1.834889756e-07)
5(1.763274844e-07 2.249962162e-07 2.188601361e-07 2.725539465e-07 2.79524821e-07)
5(2.253524189e-07 3.111838266e-07 3.209384054e-07 4.246968451e-07 4.391921258e-07)
5(2.939403386e-07 4.409864582e-07 4.727591351e-07 6.435436758e-07 6.566583497e-07)
5(3.984129216e-07 6.55039899e-07 7.427362796e-07 1.024552618e-06 1.129997281e-06)
5(5.727296892e-07 1.004964724e-06 1.201717802e-06 1.620611172e-06 1.71220036e-06)
5(8.605796507e-07 1.554739378e-06 1.905539146e-06 2.562096265e-06 2.711243117e-06)
5(1.347198048e-06 2.478485529e-06 3.145084856e-06 3.997648833e-06 4.180681214e-06)
5(2.166788082e-06 3.733466316e-06 4.595528912e-06 5.869262925e-06 6.223647712e-06)
5(3.390634731e-06 5.789779096e-06 6.956412618e-06 8.646066822e-06 7.966232872e-06)
5(5.36114987e-06 8.559571876e-06 1.027195717e-05 1.190128172e-05 1.181547477e-05)
5(8.248925807e-06 1.232978921e-05 1.463310205e-05 1.591828408e-05 1.127863402e-05)
5(1.205379976e-05 1.671117668e-05 1.886819039e-05 1.954425735e-05 1.383831111e-05)
5(1.674678029e-05 2.182759075e-05 2.337515978e-05 2.061299438e-05 1.551874189e-05)
5(2.222828141e-05 2.660331012e-05 2.692630304e-05 1.85466031e-05 1.606775196e-05)
5(2.793622347e-05 3.124764206e-05 3.107903411e-05 1.889609452e-05 1.529117815e-05)
5(3.284951188e-05 3.351446525e-05 3.003906503e-05 1.744697275e-05 1.28766035e-05)
5(3.534595775e-05 3.349394163e-05 2.607126606e-05 1.46221671e-05 9.64079556e-06)
5(3.511505079e-05 2.964879099e-05 1.751930349e-05 1.086527065e-05 6.32288947e-06)
5(3.128347508e-05 2.256454913e-05 1.201567164e-05 7.046368459e-06 3.571162078e-06)
5(2.545100968e-05 1.626340185e-05 7.599252377e-06 3.959727251e-06 1.721894162e-06)
5(1.781642339e-05 8.275223887e-06 4.128875551e-06 1.865772486e-06 6.984978398e-07)
5(1.043129519e-05 4.320548062e-06 1.869947772e-06 7.442684629e-07 2.389166767e-07)
5(4.327688578e-06 1.84567941e-06 6.79051333e-07 2.414932422e-07 7.163349408e-08)
5(1.594047444e-06 6.246852497e-07 1.965974763e-07 6.490024214e-08 1.81836452e-08)
5(4.699112434e-07 1.568540935e-07 4.2854437e-08 1.357854657e-08 3.863781726e-09)
5(9.777937626e-08 2.792640606e-08 7.17511557e-09 2.390450192e-09 7.062993331e-10)
5(1.274599979e-08 3.406930665e-09 8.147232307e-10 3.074725387e-10 9.046063374e-11)
5(9.57160202e-10 2.082274101e-10 6.286035006e-11 2.293300251e-11 7.172838023e-12)
5(1.787480343e-11 -2.194801882e-12 1.924951881e-12 -4.383764825e-12 3.105563746e-13)
5(-5.574631726e-13 -1.913128196e-09 2.749850509e-10 -8.863221093e-10 -1.10594125e-14)
5(-8.651784114e-15 7.343203377e-10 2.57773467e-09 -7.210969125e-10 1.030397674e-16)
)


60
(
5(1.184737726e-09 7.972168686e-10 1.301926077e-09 9.356606384e-10 1.07676341e-09)
5(8.749620527e-10 8.096435794e-10 8.437289888e-10 7.4375574e-10 6.412237448e-10)
5(8.261576325e-10 9.032988754e-10 7.772225687e-10 7.540178626e-10 5.784753794e-10)
5(9.361660391e-10 1.090866465e-09 9.231547707e-10 9.081972953e-10 6.985378791e-10)
5(1.198523773e-09 1.39800444e-09 1.252755687e-09 1.21159141e-09 9.93517903e-10)
5(1.633939026e-09 1.847780901e-09 1.743016231e-09 1.656337165e-09 1.453739309e-09)
5(2.187877516e-09 2.468461359e-09 2.345037279e-09 2.256671011e-09 1.999517361e-09)
5(2.883933296e-09 3.301883004e-09 3.118622824e-09 3.030542005e-09 2.64328986e-09)
5(3.814592922e-09 4.414599648e-09 4.128488802e-09 4.033222528e-09 3.499452993e-09)
5(5.158623732e-09 5.933865863e-09 5.530762759e-09 5.396131777e-09 4.634603962e-09)
5(6.925172502e-09 7.977766136e-09 7.419898128e-09 7.191335668e-09 6.163644708e-09)
5(9.410236876e-09 1.065369514e-08 9.943711892e-09 9.496674096e-09 8.094012313e-09)
5(1.267088691e-08 1.414776287e-08 1.318287303e-08 1.2387221e-08 1.047942486e-08)
5(1.677421096e-08 1.86384325e-08 1.72593741e-08 1.604385063e-08 1.347138479e-08)
5(2.216506377e-08 2.436928168e-08 2.239548623e-08 2.05934414e-08 1.705919858e-08)
5(2.930725582e-08 3.168746375e-08 2.893664964e-08 2.632713889e-08 2.166767548e-08)
5(3.855053506e-08 4.103026234e-08 3.728393374e-08 3.356139893e-08 2.74320903e-08)
5(4.992379e-08 5.296096328e-08 4.788022194e-08 4.273182372e-08 3.478943412e-08)
5(6.530151387e-08 6.783267689e-08 6.112824043e-08 5.438906676e-08 4.443001638e-08)
5(8.361422435e-08 8.675050959e-08 7.795647424e-08 6.921135481e-08 5.666960039e-08)
5(1.075877191e-07 1.107140705e-07 9.905064665e-08 8.779064127e-08 7.214114651e-08)
5(1.392917333e-07 1.403804068e-07 1.255973897e-07 1.117283077e-07 9.336022488e-08)
5(1.778150596e-07 1.775999882e-07 1.592771088e-07 1.416785442e-07 1.193845509e-07)
5(2.226085006e-07 2.242586173e-07 2.017796e-07 1.792877096e-07 1.536191177e-07)
5(2.816948207e-07 2.818765197e-07 2.534719709e-07 2.276371235e-07 1.96216074e-07)
5(3.537552681e-07 3.519223748e-07 3.187937117e-07 2.892193302e-07 2.532605661e-07)
5(4.412101829e-07 4.368295188e-07 3.996294711e-07 3.681825189e-07 3.298574728e-07)
5(5.462604342e-07 5.411601427e-07 4.994958317e-07 4.704486411e-07 4.318847868e-07)
5(6.725992494e-07 6.68408414e-07 6.256592837e-07 6.070897397e-07 5.750430414e-07)
5(8.245436685e-07 8.24454486e-07 7.890587894e-07 7.955045283e-07 7.816517146e-07)
5(1.002763117e-06 1.020336095e-06 1.009198178e-06 1.067677446e-06 1.105007131e-06)
5(1.223176787e-06 1.277334033e-06 1.318701268e-06 1.474915939e-06 1.591914522e-06)
5(1.501162402e-06 1.63069081e-06 1.770887843e-06 2.098867138e-06 2.345422233e-06)
5(1.868162631e-06 2.139014401e-06 2.455222484e-06 3.048223969e-06 3.497315734e-06)
5(2.37688611e-06 2.895025857e-06 3.501777526e-06 4.502793962e-06 5.291867024e-06)
5(3.09766953e-06 4.036834135e-06 5.094472622e-06 6.681896963e-06 7.79885045e-06)
5(4.182989253e-06 5.747969617e-06 7.493644639e-06 9.813352828e-06 1.1428765e-05)
5(5.901937941e-06 8.31286967e-06 1.096181452e-05 1.418066891e-05 1.628802684e-05)
5(8.395288964e-06 1.200787978e-05 1.581005179e-05 1.996431417e-05 2.226226693e-05)
5(1.200098555e-05 1.716028114e-05 2.221854093e-05 2.709518911e-05 2.910109979e-05)
5(1.708846753e-05 2.393471397e-05 3.010574249e-05 3.517687513e-05 3.576090181e-05)
5(2.388638021e-05 3.233998841e-05 3.9106814e-05 4.319754686e-05 4.131992526e-05)
5(3.251804428e-05 4.180835645e-05 4.818834666e-05 4.966341259e-05 4.438170972e-05)
5(4.238034664e-05 5.128461145e-05 5.5843569e-05 5.299550552e-05 4.423466465e-05)
5(5.274492588e-05 5.931892018e-05 6.011146234e-05 5.214998875e-05 4.045423293e-05)
5(6.171207007e-05 6.398142518e-05 5.939799734e-05 4.696288691e-05 3.338494966e-05)
5(6.726702689e-05 6.371992394e-05 5.314808484e-05 3.834079778e-05 2.466194889e-05)
5(6.776925397e-05 5.751338013e-05 4.279422715e-05 2.786291799e-05 1.599136192e-05)
5(6.217001184e-05 4.63325149e-05 3.036163623e-05 1.779306333e-05 9.042053474e-06)
5(5.092976515e-05 3.272602145e-05 1.848227899e-05 9.730316422e-06 4.351563214e-06)
5(3.657421518e-05 1.97388105e-05 9.626429838e-06 4.533089119e-06 1.754977782e-06)
5(2.23748424e-05 9.750624574e-06 4.121280806e-06 1.702221022e-06 5.74943701e-07)
5(1.090073571e-05 3.88230912e-06 1.381947187e-06 5.157465009e-07 1.590645324e-07)
5(4.087482016e-06 1.16653404e-06 3.407000167e-07 1.212297266e-07 3.530926938e-08)
5(1.133995285e-06 2.428667197e-07 5.794992182e-08 2.068839907e-08 6.148296147e-09)
5(1.812040874e-07 3.109255817e-08 6.861981507e-09 2.520456943e-09 8.592681523e-10)
5(1.170766914e-08 2.659182632e-09 4.358313607e-10 2.030796872e-10 6.54680902e-11)
5(7.668986783e-10 1.34224447e-10 1.561618038e-11 1.008099753e-10 3.143967559e-12)
5(-7.263059373e-10 1.253970585e-08 -2.889199817e-11 1.082563519e-08 1.087882279e-10)
5(1.690950614e-13 2.199923253e-09 -1.064190483e-09 -5.411480568e-10 6.006647448e-17)
)


60
(
5(2.12928333e-09 1.584345794e-09 2.458387247e-09 1.91799908e-09 2.039423628e-09)
5(1.773784579e-09 1.716507757e-09 1.83450766e-09 1.662552748e-09 1.430088745e-09)
5(1.798694552e-09 1.977889205e-09 1.811767658e-09 1.761164669e-09 1.392528064e-09)
5(2.075675641e-09 2.420118759e-09 2.181388285e-09 2.152804733e-09 1.685621205e-09)
5(2.660842527e-09 3.11455056e-09 2.935473839e-09 2.856347221e-09 2.351954333e-09)
5(3.587908503e-09 4.137254876e-09 4.036000624e-09 3.886894263e-09 3.362953786e-09)
5(4.820954651e-09 5.529828898e-09 5.454194959e-09 5.269799315e-09 4.640375007e-09)
5(6.408791717e-09 7.422914454e-09 7.280502018e-09 7.068804062e-09 6.151077602e-09)
5(8.55645729e-09 9.949556185e-09 9.665596724e-09 9.421189109e-09 8.119514891e-09)
5(1.149892022e-08 1.333299263e-08 1.287269772e-08 1.249263638e-08 1.069262282e-08)
5(1.547020865e-08 1.780226713e-08 1.715792807e-08 1.647279168e-08 1.407707949e-08)
5(2.083096502e-08 2.361533794e-08 2.271131958e-08 2.148580398e-08 1.818555324e-08)
5(2.779101289e-08 3.114916177e-08 2.973774123e-08 2.775788993e-08 2.328638109e-08)
5(3.706451612e-08 4.066261475e-08 3.854760838e-08 3.54702292e-08 2.936935752e-08)
5(4.831255925e-08 5.26789883e-08 4.952168495e-08 4.500517186e-08 3.698942387e-08)
5(6.25611186e-08 6.768444546e-08 6.321046731e-08 5.685182516e-08 4.637625963e-08)
5(8.182705754e-08 8.656932361e-08 8.024952108e-08 7.16560317e-08 5.819732736e-08)
5(1.053072417e-07 1.102684997e-07 1.014545138e-07 9.02199042e-08 7.271232089e-08)
5(1.351044862e-07 1.398606146e-07 1.28217657e-07 1.132173857e-07 9.148435868e-08)
5(1.726680151e-07 1.769196954e-07 1.615340369e-07 1.42412285e-07 1.156318827e-07)
5(2.189838792e-07 2.231452911e-07 2.03293626e-07 1.791112481e-07 1.462158543e-07)
5(2.774845757e-07 2.805809246e-07 2.553618252e-07 2.248641067e-07 1.85712853e-07)
5(3.501485093e-07 3.51884532e-07 3.204901937e-07 2.826833404e-07 2.342131089e-07)
5(4.407848306e-07 4.401130697e-07 4.00865117e-07 3.540179982e-07 2.987250493e-07)
5(5.520760925e-07 5.480464515e-07 4.995261821e-07 4.420118296e-07 3.739302807e-07)
5(6.846318759e-07 6.788509468e-07 6.195418046e-07 5.496388557e-07 4.703777006e-07)
5(8.459642365e-07 8.301448268e-07 7.628172498e-07 6.806328492e-07 5.893162725e-07)
5(1.038511005e-06 1.012607742e-06 9.333403205e-07 8.391143992e-07 7.344598337e-07)
5(1.271996856e-06 1.22326697e-06 1.131387538e-06 1.029660267e-06 9.196665416e-07)
5(1.525572367e-06 1.465389565e-06 1.365161789e-06 1.264222508e-06 1.14847289e-06)
5(1.827213535e-06 1.743627639e-06 1.644482566e-06 1.558750852e-06 1.478804279e-06)
5(2.163271618e-06 2.05510835e-06 1.978582611e-06 1.95217092e-06 1.953028659e-06)
5(2.529351823e-06 2.422218866e-06 2.408535285e-06 2.499483331e-06 2.608917055e-06)
5(2.942147714e-06 2.891412858e-06 2.993762711e-06 3.305037712e-06 3.607242763e-06)
5(3.451149089e-06 3.492175886e-06 3.817039728e-06 4.506798802e-06 5.171341066e-06)
5(4.082153935e-06 4.339948191e-06 5.069045546e-06 6.308130165e-06 7.445442555e-06)
5(4.884629507e-06 5.600530283e-06 6.980579673e-06 9.009190072e-06 1.084663856e-05)
5(6.164445412e-06 7.510259632e-06 9.872402788e-06 1.297293284e-05 1.578793312e-05)
5(7.961958274e-06 1.041332952e-05 1.414320233e-05 1.854379592e-05 2.229510091e-05)
5(1.081874223e-05 1.472478312e-05 2.013138939e-05 2.598055863e-05 3.04131631e-05)
5(1.508394839e-05 2.089056578e-05 2.819378824e-05 3.526304884e-05 3.971622835e-05)
5(2.111913842e-05 2.921327089e-05 3.827069372e-05 4.577928336e-05 4.89228837e-05)
5(2.955063313e-05 3.971432193e-05 4.983561781e-05 5.613857163e-05 5.640368144e-05)
5(4.035310541e-05 5.181055899e-05 6.156980542e-05 6.452416342e-05 6.077919489e-05)
5(5.309902559e-05 6.419578379e-05 7.125489868e-05 6.893071893e-05 6.060264279e-05)
5(6.64763521e-05 7.503068065e-05 7.663959976e-05 6.795880009e-05 5.541343653e-05)
5(7.895556151e-05 8.164344622e-05 7.550678368e-05 6.151205509e-05 4.580603887e-05)
5(8.755266794e-05 8.192123628e-05 6.732211112e-05 5.01652334e-05 3.384127268e-05)
5(8.959238244e-05 7.43933132e-05 5.383112765e-05 3.633467123e-05 2.19878084e-05)
5(8.402718044e-05 6.034819342e-05 3.780836697e-05 2.317599734e-05 1.231026084e-05)
5(7.086731916e-05 4.269697486e-05 2.280882707e-05 1.254353395e-05 5.853647044e-06)
5(5.287807337e-05 2.543696494e-05 1.147688231e-05 5.682540326e-06 2.340412712e-06)
5(3.388721795e-05 1.281972877e-05 4.645495464e-06 2.020247871e-06 7.125164699e-07)
5(1.780520212e-05 5.148725749e-06 1.416501591e-06 5.537420047e-07 1.86961785e-07)
5(6.964100272e-06 1.45321003e-06 3.084231135e-07 1.058336368e-07 3.441771576e-08)
5(2.283838436e-06 2.866276813e-07 4.203675398e-08 1.385585179e-08 3.885655567e-09)
5(4.324269891e-07 3.276982873e-08 2.671733888e-09 1.156253619e-09 3.649975145e-10)
5(3.994253613e-08 3.540532305e-09 1.011394108e-10 2.475046268e-10 6.153026743e-12)
5(1.106119017e-08 1.228055279e-08 -1.354128429e-10 6.538694869e-09 -1.946528604e-09)
5(2.632802845e-09 -5.677229093e-09 1.471407133e-08 -2.370907463e-09 -3.945806526e-15)
)


60
(
5(3.374337285e-09 2.709785182e-09 4.05145601e-09 3.354577676e-09 3.354280477e-09)
5(3.046050317e-09 3.03328617e-09 3.30342433e-09 3.05209796e-09 2.607190616e-09)
5(3.155412831e-09 3.539656277e-09 3.396960086e-09 3.298655457e-09 2.634720562e-09)
5(3.710404534e-09 4.354102737e-09 4.1168675e-09 4.048735502e-09 3.276172594e-09)
5(4.767071739e-09 5.595981681e-09 5.462975372e-09 5.347262038e-09 4.498127797e-09)
5(6.375793948e-09 7.410185896e-09 7.445038915e-09 7.25257843e-09 6.2958437e-09)
5(8.576018078e-09 9.913705833e-09 1.004386284e-08 9.773327031e-09 8.678304255e-09)
5(1.143224066e-08 1.329417026e-08 1.33890502e-08 1.305810352e-08 1.145268752e-08)
5(1.527488738e-08 1.780314786e-08 1.776137084e-08 1.733132572e-08 1.505644267e-08)
5(2.041193065e-08 2.376132345e-08 2.354714745e-08 2.284440306e-08 1.967194556e-08)
5(2.751269039e-08 3.154698465e-08 3.11311669e-08 2.984724203e-08 2.558064024e-08)
5(3.647209135e-08 4.155390427e-08 4.077596324e-08 3.856229167e-08 3.275999722e-08)
5(4.843163211e-08 5.425183331e-08 5.28466574e-08 4.932918832e-08 4.153702183e-08)
5(6.351327161e-08 7.013916587e-08 6.77473714e-08 6.247564481e-08 5.177123818e-08)
5(8.313924179e-08 8.999052073e-08 8.617274384e-08 7.848563354e-08 6.48038655e-08)
5(1.071593089e-07 1.147424814e-07 1.089098867e-07 9.804481423e-08 8.024443398e-08)
5(1.370371573e-07 1.452873878e-07 1.368732828e-07 1.223279427e-07 1.001339169e-07)
5(1.758326384e-07 1.831879003e-07 1.71357607e-07 1.522330465e-07 1.241818872e-07)
5(2.217060042e-07 2.30198262e-07 2.142950472e-07 1.898303496e-07 1.554083999e-07)
5(2.821314709e-07 2.882851912e-07 2.675430338e-07 2.366746602e-07 1.9430937e-07)
5(3.562103695e-07 3.601752786e-07 3.341682358e-07 2.957015895e-07 2.438471062e-07)
5(4.416611609e-07 4.49633825e-07 4.16533715e-07 3.691084496e-07 3.066841502e-07)
5(5.544183846e-07 5.596075889e-07 5.192144231e-07 4.608504501e-07 3.85802676e-07)
5(6.974162279e-07 6.944607766e-07 6.446286932e-07 5.745845266e-07 4.847399545e-07)
5(8.630647476e-07 8.578179539e-07 7.994631018e-07 7.136269726e-07 6.11695575e-07)
5(1.067529414e-06 1.055922339e-06 9.868756445e-07 8.813326417e-07 7.566960495e-07)
5(1.316387658e-06 1.292368492e-06 1.208812381e-06 1.081183937e-06 9.325329839e-07)
5(1.608614881e-06 1.569373824e-06 1.467631589e-06 1.315807772e-06 1.144981274e-06)
5(1.944055241e-06 1.884760262e-06 1.764059267e-06 1.585068865e-06 1.38998546e-06)
5(2.332504193e-06 2.238793762e-06 2.100052677e-06 1.894984357e-06 1.676111299e-06)
5(2.781384488e-06 2.632190926e-06 2.471861218e-06 2.24919842e-06 2.025658766e-06)
5(3.257537983e-06 3.056076214e-06 2.876806222e-06 2.658510329e-06 2.461325473e-06)
5(3.763341706e-06 3.50674011e-06 3.340597896e-06 3.154678715e-06 3.013742278e-06)
5(4.28208519e-06 3.980919926e-06 3.866234829e-06 3.810494524e-06 3.91797709e-06)
5(4.847314162e-06 4.496601644e-06 4.525603531e-06 4.718752404e-06 5.041681917e-06)
5(5.473258723e-06 5.13083316e-06 5.438456221e-06 6.069040844e-06 6.934827803e-06)
5(6.126085739e-06 6.004979151e-06 6.784549412e-06 8.143268868e-06 9.703507328e-06)
5(6.959972118e-06 7.283418886e-06 8.903832737e-06 1.127296415e-05 1.38899753e-05)
5(8.168871652e-06 9.266655813e-06 1.213766554e-05 1.593315519e-05 2.006025372e-05)
5(1.018396233e-05 1.239649177e-05 1.703016877e-05 2.263927275e-05 2.835580204e-05)
5(1.318763314e-05 1.722197571e-05 2.41327861e-05 3.171574791e-05 3.852482228e-05)
5(1.798572636e-05 2.433450598e-05 3.382689714e-05 4.305555182e-05 5.027320576e-05)
5(2.507515401e-05 3.417362552e-05 4.614465389e-05 5.586694316e-05 6.152360867e-05)
5(3.493185334e-05 4.680017449e-05 6.034721467e-05 6.84822474e-05 7.08560107e-05)
5(4.774017139e-05 6.174264312e-05 7.472650648e-05 7.855684178e-05 7.588520836e-05)
5(6.323126904e-05 7.750973985e-05 8.669394037e-05 8.374183728e-05 7.544287023e-05)
5(7.90906407e-05 9.145047132e-05 9.321812449e-05 8.229061288e-05 6.840948914e-05)
5(9.545655432e-05 0.000100595317 9.149509482e-05 7.412180964e-05 5.613433399e-05)
5(0.000107188961 0.0001020125662 8.164165231e-05 6.001724208e-05 4.091083937e-05)
5(0.0001115990668 9.406887788e-05 6.516664313e-05 4.287416331e-05 2.600751017e-05)
5(0.0001077678929 7.727045116e-05 4.53067354e-05 2.658258716e-05 1.41900825e-05)
5(9.373534948e-05 5.676432053e-05 2.68816759e-05 1.397097724e-05 6.597100222e-06)
5(7.246106301e-05 3.459147339e-05 1.338674134e-05 5.862942827e-06 2.416440582e-06)
5(5.007704842e-05 1.7743842e-05 5.110085126e-06 1.992251912e-06 7.107209726e-07)
5(2.788276183e-05 7.330680712e-06 1.426049412e-06 4.730280881e-07 1.445486568e-07)
5(1.401052202e-05 2.206803744e-06 2.293142012e-07 7.214057517e-08 2.028352918e-08)
5(5.003552174e-06 5.602767782e-07 3.450284223e-08 6.341239842e-09 1.41991988e-09)
5(1.443091763e-06 6.094791887e-08 1.972107793e-09 6.468607805e-10 5.807943352e-11)
5(3.234174235e-07 -8.817909624e-09 2.957885939e-09 -1.089970767e-08 -1.43459664e-09)
5(3.450472557e-07 9.459283807e-09 5.977597128e-08 -7.348544692e-09 -2.958348853e-14)
)


60
(
5(4.945540418e-09 4.197552131e-09 6.119469991e-09 5.287206283e-09 5.080489203e-09)
5(4.709529e-09 4.80743306e-09 5.281465214e-09 4.976681878e-09 4.218287682e-09)
5(4.975001162e-09 5.646932996e-09 5.566173366e-09 5.43235514e-09 4.383422114e-09)
5(5.880194589e-09 6.938337337e-09 6.769186518e-09 6.656482143e-09 5.388371985e-09)
5(7.577059872e-09 8.894551688e-09 8.928060819e-09 8.734963272e-09 7.416974415e-09)
5(1.006714549e-08 1.175115654e-08 1.203422008e-08 1.174653245e-08 1.030234914e-08)
5(1.351763566e-08 1.566490758e-08 1.614741427e-08 1.576818055e-08 1.399790052e-08)
5(1.807822608e-08 2.093934314e-08 2.146697254e-08 2.101208522e-08 1.858926766e-08)
5(2.396740519e-08 2.799127138e-08 2.839541752e-08 2.774504454e-08 2.426670307e-08)
5(3.218803928e-08 3.714593665e-08 3.743330512e-08 3.635196834e-08 3.176549764e-08)
5(4.276809576e-08 4.901847558e-08 4.912791973e-08 4.713462093e-08 4.076002225e-08)
5(5.660346373e-08 6.399382184e-08 6.379188208e-08 6.047279006e-08 5.188899967e-08)
5(7.460432702e-08 8.283134244e-08 8.203324794e-08 7.665931139e-08 6.503181065e-08)
5(9.696924965e-08 1.063348194e-07 1.041476617e-07 9.624717723e-08 8.089792912e-08)
5(1.256956774e-07 1.353955112e-07 1.312591771e-07 1.199159598e-07 9.999412231e-08)
5(1.609818009e-07 1.710251912e-07 1.641196092e-07 1.48566497e-07 1.233035403e-07)
5(2.04430764e-07 2.146235431e-07 2.047390462e-07 1.836971535e-07 1.521609158e-07)
5(2.574528763e-07 2.682141117e-07 2.544322907e-07 2.267670679e-07 1.884686106e-07)
5(3.265938932e-07 3.343062628e-07 3.154354222e-07 2.81006729e-07 2.328503798e-07)
5(4.065379895e-07 4.15207977e-07 3.907286981e-07 3.479457176e-07 2.910571793e-07)
5(5.087109659e-07 5.146172061e-07 4.84001369e-07 4.317549591e-07 3.608406011e-07)
5(6.361223531e-07 6.381467806e-07 6.000768764e-07 5.36329627e-07 4.525008115e-07)
5(7.836488001e-07 7.892562347e-07 7.434659304e-07 6.658763505e-07 5.666299843e-07)
5(9.793355706e-07 9.740155066e-07 9.203258948e-07 8.266541958e-07 7.07121238e-07)
5(1.205005404e-06 1.198947366e-06 1.136849106e-06 1.023812879e-06 8.854104157e-07)
5(1.480130811e-06 1.467520854e-06 1.396247423e-06 1.262064944e-06 1.092827256e-06)
5(1.828793719e-06 1.79440834e-06 1.706265979e-06 1.544613991e-06 1.351995721e-06)
5(2.23074423e-06 2.175612395e-06 2.070371288e-06 1.872573503e-06 1.644480464e-06)
5(2.66369955e-06 2.609715631e-06 2.484842561e-06 2.247313763e-06 1.971552668e-06)
5(3.209056456e-06 3.098611286e-06 2.946715751e-06 2.665083152e-06 2.346511689e-06)
5(3.800697373e-06 3.640182219e-06 3.448261625e-06 3.118154424e-06 2.78228292e-06)
5(4.447277148e-06 4.215152072e-06 3.977309485e-06 3.597136319e-06 3.217351744e-06)
5(5.106362137e-06 4.801278186e-06 4.52089232e-06 4.121877756e-06 3.735391521e-06)
5(5.814306542e-06 5.36949942e-06 5.080621008e-06 4.71499717e-06 4.425223111e-06)
5(6.509691593e-06 5.927231088e-06 5.684647898e-06 5.433555403e-06 5.372112195e-06)
5(7.1456898e-06 6.486155511e-06 6.375177628e-06 6.413569294e-06 6.693643678e-06)
5(7.78406457e-06 7.089128984e-06 7.25957462e-06 7.862445003e-06 8.868364615e-06)
5(8.476143891e-06 7.863362874e-06 8.611985633e-06 1.006803708e-05 1.201516814e-05)
5(9.28364504e-06 9.039902017e-06 1.078720452e-05 1.355436016e-05 1.703505581e-05)
5(1.040765402e-05 1.100648124e-05 1.43360483e-05 1.894013362e-05 2.459250719e-05)
5(1.233717571e-05 1.433225755e-05 1.986843125e-05 2.677743637e-05 3.454421734e-05)
5(1.55657106e-05 1.967188024e-05 2.810200126e-05 3.759726724e-05 4.685999577e-05)
5(2.060824898e-05 2.77622306e-05 3.959184809e-05 5.115623269e-05 6.100996817e-05)
5(2.86204083e-05 3.933174519e-05 5.440032942e-05 6.637512263e-05 7.441734434e-05)
5(3.983770242e-05 5.448161402e-05 7.185210758e-05 8.136037121e-05 8.571216302e-05)
5(5.46503655e-05 7.268390985e-05 8.953003984e-05 9.329768799e-05 9.126072175e-05)
5(7.261443942e-05 9.230465816e-05 0.0001042928811 9.933509045e-05 9.001282868e-05)
5(9.161174813e-05 0.0001100203219 0.000112508662 9.77521204e-05 8.072690165e-05)
5(0.000110578637 0.0001224048314 0.0001114042198 8.744410946e-05 6.574547188e-05)
5(0.0001254363876 0.0001255470186 0.0001001163395 7.027180073e-05 4.716607087e-05)
5(0.0001331434595 0.0001173650268 8.056418814e-05 4.990863309e-05 2.931888392e-05)
5(0.0001310973915 9.94216784e-05 5.667035027e-05 3.068933238e-05 1.527707678e-05)
5(0.0001197827686 7.412086392e-05 3.449131818e-05 1.552410617e-05 6.839294345e-06)