/*--------------------------------*- C++ -*----------------------------------*\
| =========                 |                                                 |
| \\      /  F ield         | OpenFOAM: The Open Source CFD Toolbox           |
|  \\    /   O peration     | Version:  2.3.1                                 |
|   \\  /    A nd           | Web:      www.OpenFOAM.org                      |
|    \\/     M anipulation  |                                                 |
\*---------------------------------------------------------------------------*/
FoamFile
{
    version     2.0;
    format      ascii;
    class       dictionary;
    location    "constant";
    object      PM48;
}
// * * * * * * * * * * * * * * * * * * * * * * * * * * * * * * * * * * * * * //

PM48_table
60
(

60
(
5(-8.179602298e-12 4.768102464e-12 5.515222989e-12 -1.879721518e-11 3.59474007e-11)
5(1.780408115e-08 -3.375269566e-11 -3.123364118e-11 -2.625387967e-11 8.21935432e-11)
5(2.035415306e-08 -2.002819815e-09 -3.270424191e-11 -1.448785428e-11 -1.86494803e-11)
5(2.018884119e-08 -5.581816872e-09 -3.520910453e-11 -3.933827399e-11 -2.269912409e-11)
5(1.523264387e-08 -8.810967782e-09 -3.738759002e-11 -5.126449319e-11 -2.709336119e-11)
5(-3.805617269e-09 -9.430992532e-09 -5.364498563e-11 -6.122055789e-11 -5.442526705e-11)
5(-1.790966057e-08 -8.433816108e-11 -8.820813637e-11 -8.661652477e-11 -8.160824693e-11)
5(2.000343241e-08 -1.191025487e-10 -1.102334738e-10 -1.111337229e-10 -7.748918531e-11)
5(3.399161435e-08 -9.561377672e-09 -1.35260534e-10 -1.50833176e-10 -1.464691894e-10)
5(1.950208681e-08 -1.601813932e-08 -1.983712584e-10 -1.984358755e-10 -1.944210886e-10)
5(-1.779253884e-08 -1.815069955e-08 -2.699611248e-10 -2.737550591e-10 -2.563040326e-10)
5(-3.484210227e-08 -5.676608043e-09 -3.409238916e-10 -3.715078032e-10 -3.385002265e-10)
5(-1.010544353e-08 -4.843167609e-10 -4.710664881e-10 -4.94732294e-10 -4.67303618e-10)
5(-5.396152416e-10 -6.380050879e-10 -6.245382086e-10 -6.505146438e-10 -6.143275909e-10)
5(1.568397275e-11 -7.602900696e-10 -8.034937814e-10 -8.732996282e-10 -8.163537169e-10)
5(-2.1033479e-10 -1.3566113e-09 -1.079690594e-09 -1.166024698e-09 -1.109057077e-09)
5(-1.646446744e-09 -1.796083293e-09 -1.515465516e-09 -1.597412455e-09 -1.48916978e-09)
5(-2.268731963e-09 -2.140417297e-09 -2.078377136e-09 -2.091624326e-09 -1.927053109e-09)
5(-2.49124965e-09 -2.71317774e-09 -2.685394891e-09 -2.776842555e-09 -2.550212128e-09)
5(-3.033727234e-09 -3.576702144e-09 -3.557837024e-09 -3.727217454e-09 -3.485149039e-09)
5(-4.018961131e-09 -4.711709595e-09 -4.742284208e-09 -4.991030335e-09 -4.819199142e-09)
5(-5.396239014e-09 -6.356559383e-09 -6.401486879e-09 -6.889504122e-09 -6.728367354e-09)
5(-7.162175933e-09 -8.578291186e-09 -8.858262617e-09 -9.801709529e-09 -9.628050788e-09)
5(-9.54603412e-09 -1.137858764e-08 -1.231029795e-08 -1.376315029e-08 -1.373227631e-08)
5(-1.262638586e-08 -1.474513429e-08 -1.74930631e-08 -1.990171857e-08 -2.03358293e-08)
5(-1.657406377e-08 -2.103055431e-08 -2.542054808e-08 -2.918223795e-08 -3.059755488e-08)
5(-2.34983341e-08 -3.261177579e-08 -3.703995687e-08 -4.402925295e-08 -4.743593346e-08)
5(-3.450458654e-08 -4.876318161e-08 -5.530384542e-08 -6.792383026e-08 -7.439269493e-08)
5(-4.963712709e-08 -7.138615954e-08 -8.514744393e-08 -1.076151145e-07 -1.193363069e-07)
5(-7.234700165e-08 -1.083218651e-07 -1.335677302e-07 -1.724479059e-07 -1.926255859e-07)
5(-1.086238833e-07 -1.67497756e-07 -2.126975007e-07 -2.773402155e-07 -3.087142463e-07)
5(-1.668435255e-07 -2.621542585e-07 -3.379447847e-07 -4.396310159e-07 -4.882108969e-07)
5(-2.579311646e-07 -4.087409122e-07 -5.332365509e-07 -7.008562926e-07 -7.778047312e-07)
5(-3.998930193e-07 -6.360131271e-07 -8.294159664e-07 -1.07347406e-06 -1.163228189e-06)
5(-6.241454657e-07 -9.76000809e-07 -1.263620697e-06 -1.618744027e-06 -1.742687692e-06)
5(-9.572483845e-07 -1.472251259e-06 -1.895378356e-06 -2.349668161e-06 -2.445778071e-06)
5(-1.470434555e-06 -2.196487594e-06 -2.815966786e-06 -3.326289028e-06 -3.21036076e-06)
5(-2.167300956e-06 -3.127504028e-06 -3.954803162e-06 -4.326757726e-06 -4.018595153e-06)
5(-3.101466533e-06 -4.324517259e-06 -5.248050544e-06 -5.678024625e-06 -4.265607771e-06)
5(-4.276699945e-06 -5.751677251e-06 -6.660521612e-06 -5.643200628e-06 -5.717593287e-07)
5(-5.768167889e-06 -7.34435656e-06 -8.096908484e-06 -5.583319618e-06 -3.746712101e-06)
5(-7.354431501e-06 -8.80074444e-06 -8.783515157e-06 -3.552212268e-06 -4.220777733e-06)
5(-8.803940189e-06 -9.919257803e-06 -8.368194213e-06 -4.643017007e-06 -4.489326976e-06)
5(-9.835348789e-06 -1.023174636e-05 -7.564370447e-06 -5.226787347e-06 -3.440110812e-06)
5(-1.022553661e-05 -9.852484758e-06 -6.264166231e-06 -4.02204256e-06 -2.321014028e-06)
5(-9.910944881e-06 -8.411496405e-06 -3.348392306e-06 -2.803789345e-06 -1.354172477e-06)
5(-8.492852806e-06 -5.63548185e-06 -2.28312133e-06 -1.901612336e-06 -6.736602761e-07)
5(-6.444178731e-06 -3.90799992e-06 -2.132927933e-06 -1.00240238e-06 -2.83700513e-07)
5(-4.403335068e-06 -1.679420478e-06 -1.16692735e-06 -4.323195223e-07 -1.01284822e-07)
5(-8.894910214e-07 -8.809938034e-07 -5.767648729e-07 -1.533637523e-07 -3.179346807e-08)
5(-3.213987074e-07 -5.265829694e-07 -2.011384285e-07 -4.708110435e-08 -8.805520989e-09)
5(-4.761756817e-07 -1.995612973e-07 -5.740100594e-08 -1.233419401e-08 -2.187284212e-09)
5(-1.851819478e-07 -5.35148423e-08 -1.372430459e-08 -2.800832866e-09 -4.787009977e-10)
5(-4.087888376e-08 -1.026083179e-08 -2.545361848e-09 -5.380174019e-10 -9.390309837e-11)
5(-6.19971188e-09 -1.58949998e-09 -3.793276951e-10 -8.277481124e-11 -1.448306268e-11)
5(-5.376749841e-10 -1.458455959e-10 -4.228333863e-11 -9.112761557e-12 -1.770119201e-12)
5(-2.601695824e-11 -1.035009462e-11 -2.354060817e-12 -6.322956054e-13 -1.26459342e-13)
5(-2.471415847e-13 -2.380572058e-13 -6.520996772e-14 -3.05451173e-14 -3.773348865e-15)
5(4.812783943e-15 -4.153158334e-15 -9.589150249e-15 5.533114727e-14 -3.389021902e-17)
5(1.319175807e-18 3.813377532e-18 1.494894409e-09 2.990117965e-17 5.827716374e-17)
)


60
(
5(-4.40574622e-11 -4.086389014e-11 -4.677539853e-11 -4.596484536e-11 -3.667380069e-11)
5(-4.568484572e-11 -4.594743059e-11 -5.101102609e-11 -4.665094045e-11 -4.69880838e-11)
5(3.676011112e-09 -4.68135777e-11 -4.507984575e-11 -4.547696036e-11 -4.176859147e-11)
5(1.126653254e-08 -5.178974176e-11 -4.606070183e-11 -4.968446081e-11 -3.56189442e-11)
5(1.502407932e-08 -6.283913511e-11 -5.846893489e-11 -6.091890638e-11 -5.2902206e-11)
5(1.19899611e-08 -7.927364074e-11 -7.670113204e-11 -7.993394215e-11 -7.30938124e-11)
5(-8.794440532e-11 -1.019958821e-10 -1.002072824e-10 -1.042862783e-10 -9.680837352e-11)
5(-1.12266009e-10 -1.332253623e-10 -1.317221104e-10 -1.369604256e-10 -1.243214754e-10)
5(1.188593177e-08 -1.77243295e-10 -1.709609733e-10 -1.816794651e-10 -1.658017975e-10)
5(2.035984336e-08 -2.249885571e-10 -2.274593984e-10 -2.423511892e-10 -2.201701196e-10)
5(2.199201824e-08 -2.977910581e-10 -3.077349796e-10 -3.252864746e-10 -3.015329883e-10)
5(6.029478816e-09 -4.274734705e-10 -4.171322886e-10 -4.361654251e-10 -4.004349817e-10)
5(-4.790791014e-10 -5.695256794e-10 -5.569655588e-10 -5.778736761e-10 -5.26088493e-10)
5(-6.421325695e-10 -7.550912831e-10 -7.384218303e-10 -7.60655379e-10 -6.878393496e-10)
5(-8.635255101e-10 -1.000601238e-09 -9.770496306e-10 -9.91567968e-10 -8.908616671e-10)
5(-7.000377166e-10 -1.274473237e-09 -1.2658755e-09 -1.276866638e-09 -1.133798737e-09)
5(-1.117432708e-09 -1.689476477e-09 -1.637430127e-09 -1.636443624e-09 -1.445376169e-09)
5(-1.846398756e-09 -2.213582566e-09 -2.132677397e-09 -2.083675509e-09 -1.838677921e-09)
5(-2.616721484e-09 -2.873825851e-09 -2.72245955e-09 -2.630374525e-09 -2.301999177e-09)
5(-3.377620374e-09 -3.680735265e-09 -3.432375417e-09 -3.277174036e-09 -2.837552786e-09)
5(-4.341202489e-09 -4.642675371e-09 -4.267196652e-09 -4.015744698e-09 -3.432643693e-09)
5(-5.509284865e-09 -5.771209552e-09 -5.190012126e-09 -4.841073094e-09 -4.155430859e-09)
5(-6.833480756e-09 -7.001392516e-09 -6.13372154e-09 -5.538358942e-09 -4.699176611e-09)
5(-8.201981896e-09 -8.217873145e-09 -6.887241076e-09 -5.975790249e-09 -4.890122939e-09)
5(-9.565649221e-09 -9.05584877e-09 -7.12066646e-09 -5.657568272e-09 -4.123554681e-09)
5(-1.036700851e-08 -8.917748353e-09 -6.063745223e-09 -3.712691691e-09 -1.678417189e-09)
5(-1.001248091e-08 -7.562219007e-09 -2.378988975e-09 1.166779819e-09 3.268279809e-09)
5(-7.10923593e-09 -3.402983647e-09 5.741121363e-09 1.062721092e-08 1.266752609e-08)
5(4.177741322e-10 6.588978388e-09 2.118145953e-08 2.740404491e-08 2.848497496e-08)
5(1.609252508e-08 2.534987258e-08 4.761282082e-08 5.442074639e-08 5.066793675e-08)
5(4.418504388e-08 5.665349601e-08 8.811689712e-08 9.105544629e-08 7.832031956e-08)
5(9.018878374e-08 1.041650995e-07 1.462296203e-07 1.374572221e-07 1.09465089e-07)
5(1.600464633e-07 1.71476637e-07 2.195234481e-07 1.838552701e-07 1.153031134e-07)
5(2.603051496e-07 2.588093457e-07 3.001097453e-07 2.02914725e-07 6.248500009e-08)
5(3.917905506e-07 3.541482149e-07 3.615166305e-07 1.516346968e-07 -9.984094127e-08)
5(5.438776873e-07 4.364487178e-07 3.610459318e-07 -4.067211304e-08 -4.663363337e-07)
5(6.796702652e-07 4.511317428e-07 1.969134252e-07 -4.904662219e-07 -1.123711506e-06)
5(7.727233478e-07 3.365720875e-07 -2.17707894e-07 -1.280420525e-06 -2.291632936e-06)
5(7.061949541e-07 -2.625979977e-08 -9.937271493e-07 -2.571368071e-06 -3.71347488e-06)
5(4.044572123e-07 -7.403298883e-07 -2.218250475e-06 -4.315187582e-06 -6.411051386e-06)
5(-3.23763457e-07 -1.973589082e-06 -4.127108819e-06 -6.53912292e-06 -8.663207237e-06)
5(-1.578359488e-06 -3.683125932e-06 -6.442201034e-06 -9.455625901e-06 -1.050088906e-05)
5(-3.358490655e-06 -5.937366783e-06 -9.009545102e-06 -1.267158733e-05 -1.129770095e-05)
5(-5.56753124e-06 -8.059837176e-06 -1.025301905e-05 -1.35605914e-05 -1.074142202e-05)
5(-7.826037054e-06 -1.001479891e-05 -1.162474734e-05 -1.278823968e-05 -9.116155173e-06)
5(-9.849212958e-06 -1.094915686e-05 -1.178808464e-05 -1.066971004e-05 -6.672403962e-06)
5(-1.088262964e-05 -1.107504365e-05 -1.193287584e-05 -7.705484387e-06 -4.180021976e-06)
5(-1.067213267e-05 -1.029310937e-05 -9.114848763e-06 -4.764866713e-06 -2.205226763e-06)
5(-8.896987033e-06 -7.462200594e-06 -5.68608035e-06 -2.479785141e-06 -9.688494828e-07)
5(-6.353594762e-06 -5.738734843e-06 -2.940912616e-06 -1.063956599e-06 -3.508641679e-07)
5(-3.912878616e-06 -2.909641667e-06 -1.238318266e-06 -3.727664798e-07 -1.077409924e-07)
5(-2.318671255e-06 -1.158462432e-06 -4.093625779e-07 -1.066039824e-07 -2.861771647e-08)
5(-8.982372602e-07 -3.607177558e-07 -1.067271868e-07 -2.529017758e-08 -6.512894325e-09)
5(-2.437291226e-07 -8.0904733e-08 -2.09870521e-08 -4.731335622e-09 -1.241587525e-09)
5(-4.37096445e-08 -1.257542497e-08 -3.161245452e-09 -7.282403254e-10 -1.997416373e-10)
5(-4.699138801e-09 -1.330809479e-09 -3.253538406e-10 -8.418349051e-11 -2.303219003e-11)
5(-2.523133897e-10 -7.847942937e-11 -2.434196663e-11 -5.928513928e-12 -1.8291019e-12)
5(-7.467928191e-12 -2.686973222e-12 -8.072130647e-13 -2.281124164e-14 -1.049682387e-13)
5(-3.280237574e-13 -2.040686596e-10 1.331465173e-10 8.745621118e-11 4.79063323e-14)
5(-6.124463821e-15 7.15211146e-10 2.186250326e-09 -6.714817352e-10 4.803117305e-17)
)


60
(
5(-5.11304684e-11 -4.694308531e-11 -5.752477229e-11 -5.622309525e-11 -4.664671941e-11)
5(-5.099289901e-11 -4.9996464e-11 -5.792283401e-11 -5.379492483e-11 -5.559056797e-11)
5(-4.755950723e-11 -4.939314731e-11 -5.188888171e-11 -4.965726324e-11 -4.596718066e-11)
5(-4.80425486e-11 -5.195147871e-11 -5.331949323e-11 -5.075476221e-11 -4.695010415e-11)
5(-5.276307099e-11 -5.789989089e-11 -5.943208864e-11 -5.69152343e-11 -5.4363315e-11)
5(-5.972373723e-11 -6.693863823e-11 -6.780688254e-11 -6.810133018e-11 -6.543665738e-11)
5(-6.83419322e-11 -7.95591613e-11 -8.113015473e-11 -8.204576346e-11 -7.804837566e-11)
5(-8.360924573e-11 -9.860705626e-11 -9.899191344e-11 -1.002027877e-10 -9.400266628e-11)
5(-1.031711464e-10 -1.244149066e-10 -1.254188637e-10 -1.274080667e-10 -1.240526115e-10)
5(-1.288773072e-10 -1.574601826e-10 -1.615183222e-10 -1.653410886e-10 -1.687689001e-10)
5(-1.640603377e-10 -1.989342607e-10 -2.093967026e-10 -2.124836602e-10 -2.169362642e-10)
5(-2.142027609e-10 -2.575605068e-10 -2.665514125e-10 -2.71546424e-10 -2.748679701e-10)
5(-2.760555242e-10 -3.2496776e-10 -3.38310739e-10 -3.454282929e-10 -3.51292213e-10)
5(-3.422733691e-10 -4.075562112e-10 -4.2489234e-10 -4.268493838e-10 -4.330587288e-10)
5(-4.245168712e-10 -5.06689033e-10 -5.296894055e-10 -5.178799616e-10 -5.133513796e-10)
5(-5.580734696e-10 -6.233272897e-10 -6.44444514e-10 -6.174688993e-10 -6.088013493e-10)
5(-7.050469529e-10 -7.444245439e-10 -7.654218997e-10 -7.071793596e-10 -6.772223968e-10)
5(-8.29616814e-10 -8.709681852e-10 -8.776389257e-10 -7.604793874e-10 -6.98570807e-10)
5(-1.002570094e-09 -1.000981983e-09 -9.50253977e-10 -7.467440278e-10 -6.760808203e-10)
5(-1.10334507e-09 -1.074899185e-09 -9.332455677e-10 -5.979674731e-10 -5.131439119e-10)
5(-1.247261831e-09 -1.059901807e-09 -7.494807736e-10 -2.28800926e-10 -2.797095017e-11)
5(-1.339214744e-09 -8.029901288e-10 -2.726834203e-10 6.531291426e-10 9.143711241e-10)
5(-1.074666235e-09 -1.764110798e-10 7.346020477e-10 2.257206354e-09 2.665211488e-09)
5(-2.479100536e-10 1.144949641e-09 2.86154671e-09 5.258841945e-09 5.978090424e-09)
5(1.192879443e-09 3.733324047e-09 6.730806776e-09 1.082339058e-08 1.214417345e-08)
5(4.38555823e-09 8.617427176e-09 1.40054757e-08 2.069860084e-08 2.312089627e-08)
5(1.042990717e-08 1.722469131e-08 2.646713788e-08 3.784937406e-08 4.185837397e-08)
5(2.053374027e-08 3.236395822e-08 4.827175533e-08 6.719702918e-08 7.393148643e-08)
5(3.925159524e-08 5.868520572e-08 8.548016781e-08 1.161540298e-07 1.285729476e-07)
5(7.040083751e-08 1.017989937e-07 1.462437307e-07 1.957598397e-07 2.129902703e-07)
5(1.223745434e-07 1.723832809e-07 2.437402833e-07 3.181906252e-07 3.396763695e-07)
5(2.067710285e-07 2.833819492e-07 3.940225066e-07 5.033482309e-07 5.284788597e-07)
5(3.379032958e-07 4.509405524e-07 6.163703433e-07 7.649192299e-07 7.871410976e-07)
5(5.331418733e-07 6.963142817e-07 9.321602107e-07 1.122623348e-06 1.124116015e-06)
5(8.199686244e-07 1.042780043e-06 1.355953035e-06 1.573895081e-06 1.518621538e-06)
5(1.217228855e-06 1.500288181e-06 1.892569028e-06 2.108270049e-06 1.940368653e-06)
5(1.719710205e-06 2.07594004e-06 2.523777947e-06 2.655343144e-06 2.285936733e-06)
5(2.38212519e-06 2.763545081e-06 3.18150247e-06 3.119368612e-06 2.437421624e-06)
5(3.127137982e-06 3.475750844e-06 3.766936627e-06 3.355229026e-06 2.233498299e-06)
5(3.907762491e-06 4.141298358e-06 4.121606916e-06 3.173824676e-06 1.512195233e-06)
5(4.611915222e-06 4.577936279e-06 4.038047387e-06 2.408240253e-06 1.221311538e-07)
5(5.063611464e-06 4.654681399e-06 3.398266403e-06 1.008293129e-06 -1.773293898e-06)
5(5.125889835e-06 4.172341024e-06 2.110385755e-06 -9.44216239e-07 -3.899074774e-06)
5(4.656265044e-06 3.039152873e-06 2.900069699e-07 -3.109351813e-06 -5.712108492e-06)
5(3.616476623e-06 1.424405668e-06 -1.758576039e-06 -4.978075314e-06 -6.719069125e-06)
5(2.109355872e-06 -4.106814955e-07 -3.547049885e-06 -6.0398465e-06 -6.653758762e-06)
5(5.450264329e-07 -2.040995211e-06 -4.704380739e-06 -5.950168588e-06 -5.564109875e-06)
5(-7.589808497e-07 -3.097553345e-06 -4.842725647e-06 -4.880246552e-06 -3.958167956e-06)
5(-1.363276357e-06 -3.291019806e-06 -4.073521573e-06 -3.341676383e-06 -2.360928713e-06)
5(-1.332290664e-06 -2.766097402e-06 -2.827594635e-06 -1.896284546e-06 -1.146705792e-06)
5(-8.338884998e-07 -1.891283942e-06 -1.576111189e-06 -8.646018621e-07 -4.601649443e-07)
5(-2.828930903e-07 -1.018097736e-06 -6.923691095e-07 -3.164024174e-07 -1.43456596e-07)
5(-2.998876587e-09 -4.088590862e-07 -2.324208638e-07 -8.939804525e-08 -3.702893793e-08)
5(6.015808102e-08 -1.184489803e-07 -5.886274214e-08 -1.923880022e-08 -7.356683266e-09)
5(3.531626967e-08 -2.43881961e-08 -1.049523924e-08 -3.170350102e-09 -1.214143428e-09)
5(5.936422682e-09 -3.297430478e-09 -1.336921129e-09 -4.106397589e-10 -1.588724147e-10)
5(-8.272557631e-11 -2.66781725e-10 -1.040082617e-10 -3.987086503e-11 -1.367574188e-11)
5(2.225009285e-11 -1.146562306e-10 -5.007170686e-12 -7.875289273e-11 1.179673493e-12)
5(-6.628292461e-10 1.608020454e-09 3.733080527e-10 7.423527907e-10 3.719058378e-10)
5(3.811513814e-14 1.745020168e-09 1.81060546e-10 -5.302504958e-10 -5.613771182e-17)
)


60
(
5(-4.982129322e-11 -4.520307412e-11 -5.809056634e-11 -5.799715753e-11 -4.936923509e-11)
5(-4.425797577e-11 -4.50169114e-11 -5.298841798e-11 -5.002693342e-11 -5.466326083e-11)
5(-3.275259603e-11 -3.245892978e-11 -3.715611422e-11 -3.327365108e-11 -3.55590991e-11)
5(-2.100367673e-11 -1.884217879e-11 -2.335542813e-11 -1.775982704e-11 -2.332095123e-11)
5(-5.316631975e-12 -2.574976254e-12 -5.441678675e-12 8.826703093e-13 -7.839724624e-12)
5(1.576735711e-11 1.908970565e-11 2.08573912e-11 2.601056668e-11 1.382079937e-11)
5(4.472881521e-11 4.83845857e-11 5.555299751e-11 5.96103643e-11 3.953463592e-11)
5(8.250057614e-11 8.808450751e-11 9.676379562e-11 9.728869715e-11 6.951427073e-11)
5(1.355100351e-10 1.418683564e-10 1.481922047e-10 1.468281487e-10 9.890701116e-11)
5(2.038628883e-10 2.157873372e-10 2.133098668e-10 2.075315553e-10 1.346028932e-10)
5(2.981740072e-10 3.138024201e-10 3.069464135e-10 2.910866461e-10 1.751954839e-10)
5(4.294668177e-10 4.46219409e-10 4.333621432e-10 3.875798179e-10 2.279661264e-10)
5(5.981165501e-10 6.282103117e-10 5.942541261e-10 5.18098862e-10 3.171858722e-10)
5(8.344326539e-10 8.694680403e-10 8.021171167e-10 6.977267036e-10 4.243061903e-10)
5(1.156233061e-09 1.178503648e-09 1.079333875e-09 9.350530988e-10 5.640165063e-10)
5(1.571800036e-09 1.590452939e-09 1.466703739e-09 1.271405738e-09 8.124228481e-10)
5(2.079468159e-09 2.149969005e-09 2.00489998e-09 1.767499851e-09 1.174429701e-09)
5(2.874700893e-09 2.918832435e-09 2.722289722e-09 2.49416399e-09 1.753282049e-09)
5(3.765618916e-09 3.91319365e-09 3.781943774e-09 3.50926877e-09 2.626423277e-09)
5(5.118723772e-09 5.379447555e-09 5.210471658e-09 4.967272e-09 3.87082834e-09)
5(7.086787216e-09 7.288055277e-09 7.206784262e-09 7.126143828e-09 6.033887814e-09)
5(9.400221577e-09 9.85007771e-09 1.014035475e-08 1.03564151e-08 9.145853698e-09)
5(1.224098844e-08 1.360996133e-08 1.44153968e-08 1.501516762e-08 1.362298545e-08)
5(1.727601944e-08 1.91181506e-08 2.042534754e-08 2.20955469e-08 2.080148575e-08)
5(2.387027717e-08 2.647175757e-08 2.933952881e-08 3.283257438e-08 3.187320027e-08)
5(3.306485311e-08 3.747094966e-08 4.311523277e-08 4.982137251e-08 5.046076872e-08)
5(4.623860596e-08 5.341495193e-08 6.414041219e-08 7.665573875e-08 7.991062123e-08)
5(6.593517915e-08 7.833968197e-08 9.713116955e-08 1.193952445e-07 1.267578559e-07)
5(9.596448953e-08 1.159913709e-07 1.487121379e-07 1.867550733e-07 2.023164297e-07)
5(1.409916033e-07 1.741697408e-07 2.298146768e-07 2.928090892e-07 3.214005135e-07)
5(2.108128226e-07 2.644978764e-07 3.561093635e-07 4.577439945e-07 5.064264622e-07)
5(3.166226582e-07 4.011772103e-07 5.468907464e-07 7.047236598e-07 7.78950334e-07)
5(4.754128408e-07 6.052986577e-07 8.310589284e-07 1.065300915e-06 1.164493231e-06)
5(7.1224141e-07 9.071619425e-07 1.239763801e-06 1.566598055e-06 1.694748536e-06)
5(1.053513725e-06 1.332333411e-06 1.801922331e-06 2.245676169e-06 2.379427937e-06)
5(1.531915995e-06 1.912909322e-06 2.54892736e-06 3.082576241e-06 3.166379599e-06)
5(2.17966941e-06 2.674715002e-06 3.479489446e-06 4.073172052e-06 4.066272601e-06)
5(3.007717739e-06 3.611979512e-06 4.56388718e-06 5.133440155e-06 4.896094917e-06)
5(4.008117986e-06 4.703546884e-06 5.7205164e-06 6.086280494e-06 5.445861567e-06)
5(5.167199997e-06 5.867890857e-06 6.777514452e-06 6.726270187e-06 5.499470485e-06)
5(6.366510494e-06 6.955960151e-06 7.533106582e-06 6.773801341e-06 4.80317439e-06)
5(7.474886907e-06 7.778558909e-06 7.719479214e-06 6.03310065e-06 3.249313312e-06)
5(8.281133666e-06 8.092281636e-06 7.125554561e-06 4.339589813e-06 8.588451308e-07)
5(8.610846234e-06 7.712727801e-06 5.645200777e-06 1.880457527e-06 -1.861720869e-06)
5(8.289450406e-06 6.516960702e-06 3.40066253e-06 -9.252158355e-07 -4.41279421e-06)
5(7.309105836e-06 4.704447148e-06 8.045511827e-07 -3.46990829e-06 -6.158183916e-06)
5(5.942568569e-06 2.57967017e-06 -1.589865526e-06 -5.057304794e-06 -6.637421975e-06)
5(4.398108299e-06 6.054761065e-07 -3.272410183e-06 -5.43430233e-06 -5.876815269e-06)
5(3.100878006e-06 -8.225211335e-07 -3.873342473e-06 -4.641636327e-06 -4.295099678e-06)
5(2.432783327e-06 -1.438688753e-06 -3.403187722e-06 -3.15862288e-06 -2.607215884e-06)
5(2.217423292e-06 -1.394587647e-06 -2.306987775e-06 -1.770332112e-06 -1.312379206e-06)
5(2.160376902e-06 -9.576757008e-07 -1.240310945e-06 -8.001699941e-07 -5.115339817e-07)
5(2.038443934e-06 -3.997143358e-07 -5.211745745e-07 -2.765575007e-07 -1.585312894e-07)
5(1.518703535e-06 -9.386834858e-08 -1.634658344e-07 -7.183927638e-08 -3.697150436e-08)
5(7.54266284e-07 -1.7334191e-08 -3.456731437e-08 -1.396503189e-08 -6.448474471e-09)
5(3.24684977e-07 4.014796062e-09 -4.743876354e-09 -1.933981182e-09 -8.631955524e-10)
5(7.45327062e-08 1.770840989e-09 -5.839914003e-10 -1.703391496e-10 -8.606138745e-11)
5(7.984434673e-09 9.81863976e-10 -3.397016457e-11 8.074564215e-10 -2.023271389e-11)
5(6.299539561e-09 2.896588318e-09 -1.365578491e-10 8.756270225e-10 -3.93561205e-09)
5(1.131571702e-09 -3.970010517e-09 4.90589968e-09 -1.256183948e-09 -2.729962084e-15)
)


60
(
5(-3.633959995e-11 -2.988095967e-11 -4.387023623e-11 -4.50237739e-11 -4.047353083e-11)
5(-1.962879587e-11 -2.113447755e-11 -2.585743993e-11 -2.448480065e-11 -3.62251573e-11)
5(1.131537753e-11 1.713815285e-11 1.273361251e-11 1.97861313e-11 3.33625658e-12)
5(4.836314666e-11 6.364424483e-11 6.174632103e-11 7.23264059e-11 4.504174038e-11)
5(1.024675658e-10 1.262144683e-10 1.314208214e-10 1.43641991e-10 1.077107803e-10)
5(1.822761634e-10 2.129656656e-10 2.308470835e-10 2.425527333e-10 1.977874126e-10)
5(2.899687373e-10 3.322134927e-10 3.6471779e-10 3.731321961e-10 3.075925635e-10)
5(4.330148605e-10 4.88562347e-10 5.29781897e-10 5.326167736e-10 4.360984747e-10)
5(6.22413016e-10 6.981816262e-10 7.435115749e-10 7.375993684e-10 5.84217807e-10)
5(8.816259404e-10 9.811360595e-10 1.017457544e-09 9.900894345e-10 7.628667567e-10)
5(1.238295218e-09 1.354653415e-09 1.381210931e-09 1.311951914e-09 9.88578426e-10)
5(1.690133277e-09 1.839272296e-09 1.83973041e-09 1.702783239e-09 1.256988724e-09)
5(2.316685667e-09 2.462110265e-09 2.428412075e-09 2.205101366e-09 1.596692211e-09)
5(3.060117976e-09 3.243995816e-09 3.165438985e-09 2.821482615e-09 2.010646064e-09)
5(4.061278107e-09 4.25677947e-09 4.1098685e-09 3.633183286e-09 2.619127445e-09)
5(5.410027791e-09 5.576178921e-09 5.329000672e-09 4.682116088e-09 3.39081809e-09)
5(7.026794884e-09 7.231539433e-09 6.894101364e-09 6.124511106e-09 4.455135755e-09)
5(9.192267874e-09 9.382669926e-09 8.970816634e-09 7.968095702e-09 5.926842295e-09)
5(1.192381228e-08 1.219846956e-08 1.171726158e-08 1.053649607e-08 8.114344757e-09)
5(1.555620043e-08 1.582846505e-08 1.53135786e-08 1.404176577e-08 1.114881941e-08)
5(2.016150152e-08 2.051568479e-08 2.020812201e-08 1.88433114e-08 1.547920519e-08)
5(2.597766893e-08 2.681305766e-08 2.661745287e-08 2.540651635e-08 2.141450379e-08)
5(3.393920664e-08 3.502083949e-08 3.526110352e-08 3.430678926e-08 2.976875132e-08)
5(4.441777109e-08 4.572647009e-08 4.66853432e-08 4.692186388e-08 4.192914117e-08)
5(5.728521391e-08 5.974398132e-08 6.262129519e-08 6.415567438e-08 5.905329766e-08)
5(7.504007606e-08 7.856328905e-08 8.455189302e-08 8.918278496e-08 8.532872535e-08)
5(9.848336758e-08 1.041178999e-07 1.153801773e-07 1.255940819e-07 1.235019662e-07)
5(1.296979725e-07 1.396073873e-07 1.592942679e-07 1.796969978e-07 1.82742784e-07)
5(1.710529591e-07 1.889344462e-07 2.237653058e-07 2.612906721e-07 2.742026453e-07)
5(2.309144473e-07 2.600727896e-07 3.198027541e-07 3.848737003e-07 4.143453887e-07)
5(3.16038659e-07 3.633352246e-07 4.621176505e-07 5.719807795e-07 6.311657278e-07)
5(4.361193746e-07 5.14371063e-07 6.730351836e-07 8.535505632e-07 9.493172058e-07)
5(6.115128995e-07 7.361051321e-07 9.854556338e-07 1.255353477e-06 1.394394041e-06)
5(8.660837444e-07 1.054805762e-06 1.429603826e-06 1.828541405e-06 2.035705297e-06)
5(1.229320051e-06 1.5023976e-06 2.049720142e-06 2.607664134e-06 2.865970093e-06)
5(1.731204215e-06 2.119296947e-06 2.886953684e-06 3.621378077e-06 3.924669827e-06)
5(2.405525009e-06 2.943974522e-06 3.96241012e-06 4.876261608e-06 5.185879957e-06)
5(3.303111712e-06 3.998693804e-06 5.27867102e-06 6.322547878e-06 6.53003575e-06)
5(4.424635355e-06 5.270603938e-06 6.771972065e-06 7.807188335e-06 7.750174962e-06)
5(5.768979235e-06 6.712581755e-06 8.321007563e-06 9.138544786e-06 8.617591993e-06)
5(7.24863077e-06 8.210266982e-06 9.722065181e-06 1.001088446e-05 8.780268798e-06)
5(8.779145783e-06 9.591846573e-06 1.068068267e-05 1.006467774e-05 7.919743853e-06)
5(1.015763701e-05 1.060336075e-05 1.088826517e-05 9.026397072e-06 5.858080714e-06)
5(1.117801753e-05 1.100306069e-05 1.008827622e-05 6.822323431e-06 2.847666447e-06)
5(1.161637379e-05 1.058029722e-05 8.234153951e-06 3.652232905e-06 -7.10681194e-07)
5(1.142272993e-05 9.322426944e-06 5.484006314e-06 1.091382333e-07 -3.964780594e-06)
5(1.044570956e-05 7.345334152e-06 2.349008449e-06 -3.06042981e-06 -6.302411306e-06)
5(9.166831793e-06 5.054554076e-06 -5.700334778e-07 -5.049957158e-06 -7.114543606e-06)
5(7.658252315e-06 2.950067062e-06 -2.549255491e-06 -5.51265189e-06 -6.454865928e-06)
5(6.498335338e-06 1.385213219e-06 -3.230256667e-06 -4.734107656e-06 -4.860780273e-06)
5(5.843600123e-06 4.276980221e-07 -2.875353721e-06 -3.245051323e-06 -2.931073009e-06)
5(5.344394216e-06 2.880739365e-07 -1.890846693e-06 -1.75232992e-06 -1.423588653e-06)
5(5.029374941e-06 2.57167138e-07 -9.62608483e-07 -7.705558556e-07 -5.536053764e-07)
5(4.636675873e-06 2.870708332e-07 -3.951175344e-07 -2.312004676e-07 -1.484433363e-07)
5(3.35760736e-06 2.628273069e-07 -1.108787598e-07 -5.410199513e-08 -3.198132621e-08)
5(2.187859293e-06 1.093154665e-07 -2.848529382e-08 -8.589258271e-09 -4.856208631e-09)
5(9.552439683e-07 5.824957592e-08 -1.542560395e-09 -8.631328562e-10 -4.526579268e-10)
5(3.387901276e-07 8.890487805e-09 -9.223659584e-11 3.583624059e-10 -3.811204933e-11)
5(1.089369313e-07 -3.15174346e-09 1.390554293e-09 -2.256346679e-09 -2.106749688e-09)
5(1.616012815e-07 6.461583272e-09 2.854527491e-08 -5.697642907e-09 -1.89775995e-14)
)


60
(
5(-6.905134824e-12 3.652830464e-12 -1.00757995e-11 -1.45141825e-11 -1.805637531e-11)
5(2.533088633e-11 2.718845823e-11 3.100110228e-11 2.733232569e-11 2.964376596e-12)
5(9.028746149e-11 1.090715198e-10 1.100816972e-10 1.180808973e-10 8.370503325e-11)
5(1.734584054e-10 2.097274603e-10 2.17512773e-10 2.3701228e-10 1.881237437e-10)
5(2.885407163e-10 3.451248986e-10 3.734328615e-10 3.997616969e-10 3.252835037e-10)
5(4.598253606e-10 5.377232372e-10 5.945890446e-10 6.179351557e-10 5.261377106e-10)
5(6.910864296e-10 7.984862145e-10 8.871249901e-10 9.072817784e-10 7.753425796e-10)
5(1.003377596e-09 1.144950457e-09 1.253932309e-09 1.261523545e-09 1.054436473e-09)
5(1.41420216e-09 1.603346423e-09 1.726516179e-09 1.708707904e-09 1.399364139e-09)
5(1.980138885e-09 2.202480379e-09 2.326481807e-09 2.259758888e-09 1.808004555e-09)
5(2.698201162e-09 2.986821781e-09 3.10116065e-09 2.945673071e-09 2.304920771e-09)
5(3.675370244e-09 3.986280785e-09 4.065251666e-09 3.779280606e-09 2.895228534e-09)
5(4.9026408e-09 5.242027215e-09 5.283811526e-09 4.804502586e-09 3.616100035e-09)
5(6.481142235e-09 6.833044947e-09 6.768112557e-09 6.058166425e-09 4.519157103e-09)
5(8.47103447e-09 8.819409086e-09 8.647898955e-09 7.653941348e-09 5.69863956e-09)
5(1.097023957e-08 1.13223611e-08 1.095958166e-08 9.670006634e-09 7.23814838e-09)
5(1.418969566e-08 1.449152623e-08 1.399729645e-08 1.236887908e-08 9.354967594e-09)
5(1.812775842e-08 1.848319203e-08 1.78705505e-08 1.578607959e-08 1.220205487e-08)
5(2.340037883e-08 2.360883388e-08 2.287189819e-08 2.05662145e-08 1.61715871e-08)
5(2.988150528e-08 3.01047443e-08 2.939213079e-08 2.665541893e-08 2.136521369e-08)
5(3.785512453e-08 3.832821631e-08 3.778163665e-08 3.486929274e-08 2.871723816e-08)
5(4.8793522e-08 4.919507067e-08 4.887368323e-08 4.585556591e-08 3.865691556e-08)
5(6.204477045e-08 6.279592321e-08 6.317394803e-08 6.014425212e-08 5.185387334e-08)
5(7.898789326e-08 8.013617483e-08 8.176713398e-08 7.9427263e-08 7.046172858e-08)
5(1.005546963e-07 1.024633423e-07 1.063024496e-07 1.052912757e-07 9.563421344e-08)
5(1.281263951e-07 1.307401105e-07 1.380975818e-07 1.396259143e-07 1.291708123e-07)
5(1.635648294e-07 1.680029578e-07 1.802408124e-07 1.872037413e-07 1.792534877e-07)
5(2.079196555e-07 2.159157247e-07 2.372026011e-07 2.538349474e-07 2.506539952e-07)
5(2.642654477e-07 2.788529314e-07 3.157323724e-07 3.488600706e-07 3.535760193e-07)
5(3.414382157e-07 3.641586584e-07 4.25669574e-07 4.859805014e-07 5.091235667e-07)
5(4.414540607e-07 4.815919146e-07 5.813971768e-07 6.875050586e-07 7.432895683e-07)
5(5.769621051e-07 6.445093054e-07 8.040298729e-07 9.797042614e-07 1.077647012e-06)
5(7.624768121e-07 8.733505266e-07 1.123269942e-06 1.402524526e-06 1.573221533e-06)
5(1.027673487e-06 1.195135844e-06 1.577823906e-06 2.010194847e-06 2.272754274e-06)
5(1.391909016e-06 1.64450483e-06 2.212420867e-06 2.834625241e-06 3.188052e-06)
5(1.886625994e-06 2.263099534e-06 3.074140871e-06 3.935221624e-06 4.388716708e-06)
5(2.572374914e-06 3.094254949e-06 4.202111511e-06 5.329304718e-06 5.872384732e-06)
5(3.472974606e-06 4.166746176e-06 5.616356186e-06 6.999378112e-06 7.571282604e-06)
5(4.624072725e-06 5.501953067e-06 7.297521151e-06 8.871889329e-06 9.34958186e-06)
5(6.0167133e-06 7.077073468e-06 9.163929256e-06 1.075145546e-05 1.089175798e-05)
5(7.648652896e-06 8.823430701e-06 1.103565147e-05 1.228161483e-05 1.18382983e-05)
5(9.427179372e-06 1.058784127e-05 1.264964525e-05 1.322024899e-05 1.192573878e-05)
5(1.11634593e-05 1.215649732e-05 1.367248606e-05 1.304168765e-05 1.06191313e-05)
5(1.274589762e-05 1.330490753e-05 1.377003421e-05 1.155190712e-05 7.950755525e-06)