/*--------------------------------*- C++ -*----------------------------------*\
| =========                 |                                                 |
| \\      /  F ield         | OpenFOAM: The Open Source CFD Toolbox           |
|  \\    /   O peration     | Version:  2.3.1                                 |
|   \\  /    A nd           | Web:      www.OpenFOAM.org                      |
|    \\/     M anipulation  |                                                 |
\*---------------------------------------------------------------------------*/
FoamFile
{
    version     2.0;
    format      ascii;
    class       dictionary;
    location    "constant";
    object      PM52;
}
// * * * * * * * * * * * * * * * * * * * * * * * * * * * * * * * * * * * * * //

PM52_table
60
(

60
(
5(-1.1181727e-05 -4.061291396e-06 -1.255512227e-05 -2.311677552e-05 -1.279116888e-05)
5(9.826999286e-05 -4.193906888e-05 -3.651332703e-05 -2.590938865e-05 1.851122154e-05)
5(3.725864821e-05 -4.618178143e-05 -3.471831609e-05 -1.841720597e-05 -2.238412053e-05)
5(2.723602865e-05 -5.77568398e-05 -3.072558388e-05 -2.589217776e-05 -1.376006133e-05)
5(1.210222585e-05 -7.406012735e-05 -2.882212151e-05 -2.423985647e-05 -1.761080874e-05)
5(-4.909755045e-05 -7.977456311e-05 -3.280496767e-05 -2.399209317e-05 -2.093058873e-05)
5(-0.0001024267332 -4.146896698e-05 -3.671637489e-05 -2.598771129e-05 -2.164165143e-05)
5(2.966018982e-05 -4.309358488e-05 -3.645762066e-05 -2.594700753e-05 -2.232204065e-05)
5(7.442702226e-05 -8.478921461e-05 -3.686707487e-05 -2.674284543e-05 -2.43377331e-05)
5(2.235053246e-05 -0.0001057953957 -3.74397886e-05 -2.776323277e-05 -2.485752285e-05)
5(-8.265199797e-05 -0.000115442894 -3.892083096e-05 -2.896054555e-05 -2.586710963e-05)
5(-0.0001540799066 -7.499992325e-05 -4.063555248e-05 -3.030962538e-05 -2.731043177e-05)
5(-9.088864106e-05 -4.977907605e-05 -4.304701684e-05 -3.191749887e-05 -2.945025842e-05)
5(-5.340768283e-05 -5.214226508e-05 -4.523000119e-05 -3.416593857e-05 -3.152591051e-05)
5(-5.198574953e-05 -5.355391255e-05 -4.77256031e-05 -3.643843411e-05 -3.42454022e-05)
5(-5.343324413e-05 -5.812558463e-05 -5.100647248e-05 -3.952810024e-05 -3.763488121e-05)
5(-6.381457195e-05 -6.429711115e-05 -5.583005747e-05 -4.368884715e-05 -4.143522892e-05)
5(-7.020191322e-05 -6.862841511e-05 -6.147360844e-05 -4.761716241e-05 -4.546647513e-05)
5(-7.386951965e-05 -7.398022152e-05 -6.624766675e-05 -5.264858417e-05 -5.052336335e-05)
5(-7.883031575e-05 -8.042434566e-05 -7.285423087e-05 -5.87749296e-05 -5.783272463e-05)
5(-8.613354372e-05 -8.881835373e-05 -8.126887538e-05 -6.698099605e-05 -6.666982757e-05)
5(-9.509501147e-05 -9.908123714e-05 -9.135799363e-05 -7.765776944e-05 -7.6978606e-05)
5(-0.0001053607684 -0.0001111291329 -0.0001050221153 -9.01377051e-05 -9.087823797e-05)
5(-0.0001177969191 -0.0001243612882 -0.0001215708583 -0.0001060648687 -0.0001080818636)
5(-0.000132228558 -0.0001391242127 -0.0001424623549 -0.0001262438595 -0.000131432979)
5(-0.0001493993094 -0.000163450406 -0.0001706041752 -0.0001527121996 -0.0001627623338)
5(-0.0001755540403 -0.0002040030602 -0.000206276964 -0.0001885538282 -0.0002051851226)
5(-0.0002110805419 -0.0002491599847 -0.0002514806291 -0.0002382456605 -0.0002618825772)
5(-0.0002529097275 -0.0003003924627 -0.0003176166132 -0.0003081135356 -0.0003393728107)
5(-0.0003077908002 -0.0003725111299 -0.0004047973889 -0.0004016298109 -0.0004431684002)
5(-0.0003824914469 -0.0004724077629 -0.0005239572393 -0.0005284445557 -0.0005887328373)
5(-0.0004870693591 -0.0006107962343 -0.0006871717918 -0.0007015593849 -0.0007721964605)
5(-0.0006259087247 -0.0007860571437 -0.0008922451276 -0.0009251069537 -0.001007360102)
5(-0.0008117297756 -0.001023292627 -0.001165841437 -0.001213792491 -0.001313816749)
5(-0.001068625004 -0.001335915503 -0.00150597115 -0.001560858438 -0.001657369332)
5(-0.001400646083 -0.001727967259 -0.001952820136 -0.001988521676 -0.002021055506)
5(-0.001858084182 -0.00227449717 -0.002555955318 -0.002443612531 -0.002351252749)
5(-0.002401322844 -0.002841205012 -0.003116170582 -0.002846896918 -0.002649114357)
5(-0.003055756237 -0.003519720955 -0.003667611906 -0.003301180174 -0.002532513034)
5(-0.003806318465 -0.004231435657 -0.004216707518 -0.003199280837 -0.001007938777)
5(-0.00466749954 -0.004940644361 -0.004665823579 -0.002972949578 -0.001917866269)
5(-0.005443884867 -0.005417698761 -0.004655020561 -0.002062522405 -0.001838680662)
5(-0.0060391113 -0.005626458042 -0.004157866472 -0.002027156919 -0.001645348408)
5(-0.006301889728 -0.005346520786 -0.003556552415 -0.001942886079 -0.001156097818)
5(-0.006164875142 -0.004791076945 -0.002825127024 -0.001372773846 -0.0007246479082)
5(-0.005572849697 -0.003826954038 -0.001595820168 -0.0008691925489 -0.0003898855137)
5(-0.004467243511 -0.002518768779 -0.0008672404004 -0.000529280895 -0.000179399928)
5(-0.003204266953 -0.001597659243 -0.0006428010793 -0.0002562341876 -6.886101196e-05)
5(-0.002125013743 -0.0006955125864 -0.0003267132187 -0.0001011673909 -2.21165215e-05)
5(-0.000787624464 -0.000285154172 -0.0001465832351 -3.242130573e-05 -6.060002332e-06)
5(-0.0002974279144 -0.0001477784993 -4.708489863e-05 -8.720401516e-06 -1.403560546e-06)
5(-0.000147408894 -5.024378674e-05 -1.211408098e-05 -1.911474961e-06 -2.778295519e-07)
5(-5.191688955e-05 -1.209268436e-05 -2.520656521e-06 -3.384227137e-07 -4.518532388e-08)
5(-1.077329542e-05 -2.022048952e-06 -3.820178119e-07 -4.515323693e-08 -6.073209899e-09)
5(-1.488127812e-06 -2.56656582e-07 -4.297688061e-08 -3.863650445e-09 -5.508077805e-10)
5(-1.122191839e-07 -1.71684509e-08 -3.201605431e-09 6.252068156e-12 8.036948207e-11)
5(-4.184688635e-09 -7.534871281e-10 -7.84197875e-11 3.051675065e-10 2.800663365e-10)
5(1.378804994e-10 1.774836998e-10 2.670366602e-10 6.869186439e-10 5.029047911e-10)
5(5.873965515e-10 6.891818448e-10 8.943346236e-10 2.548178168e-10 6.798436891e-10)
5(6.234438343e-10 1.219862885e-09 1.093935615e-07 2.358491324e-09 3.217342545e-09)
)


60
(
5(-4.431334872e-05 -3.601129584e-05 -3.454881398e-05 -2.517311208e-05 -2.05067316e-05)
5(-5.790078402e-05 -5.157105716e-05 -4.428631285e-05 -2.854166423e-05 -2.613932106e-05)
5(-4.736646343e-05 -4.770835622e-05 -4.173629489e-05 -2.907282286e-05 -2.88337575e-05)
5(-1.776835824e-05 -4.646803826e-05 -3.80615955e-05 -3.029055425e-05 -2.014705112e-05)
5(-6.33725257e-06 -4.907378946e-05 -3.995024661e-05 -2.886470467e-05 -2.434461508e-05)
5(-1.62939728e-05 -5.217168858e-05 -4.62203606e-05 -3.022315856e-05 -2.703598503e-05)
5(-6.291811144e-05 -5.429436918e-05 -4.727002169e-05 -3.237097366e-05 -2.601109535e-05)
5(-6.702110076e-05 -5.524737497e-05 -4.653459962e-05 -3.233529263e-05 -2.920647822e-05)
5(-1.645163536e-05 -5.592457879e-05 -4.759364091e-05 -3.267079143e-05 -2.888469812e-05)
5(8.835976701e-06 -5.64849745e-05 -4.731704288e-05 -3.379743873e-05 -2.941572769e-05)
5(1.24437284e-05 -5.805212285e-05 -4.882739129e-05 -3.493325094e-05 -3.067711203e-05)
5(-4.175264591e-05 -6.051748842e-05 -5.154144197e-05 -3.650261082e-05 -3.254239399e-05)
5(-7.499548873e-05 -6.258907507e-05 -5.388003518e-05 -3.802993228e-05 -3.422540399e-05)
5(-7.702308092e-05 -6.485993885e-05 -5.619869058e-05 -4.060806289e-05 -3.654635164e-05)
5(-8.09198798e-05 -6.824113891e-05 -5.935519343e-05 -4.273239488e-05 -3.902556252e-05)
5(-8.127845444e-05 -7.058685144e-05 -6.218553949e-05 -4.532141155e-05 -4.169376953e-05)
5(-8.536294533e-05 -7.469546931e-05 -6.564799359e-05 -4.835331168e-05 -4.470695148e-05)
5(-9.197723085e-05 -7.91803589e-05 -7.004014844e-05 -5.164307007e-05 -4.833179288e-05)
5(-9.850117648e-05 -8.413484578e-05 -7.461925797e-05 -5.564293286e-05 -5.230059588e-05)
5(-0.000104008503 -8.899514918e-05 -7.940820795e-05 -5.950017746e-05 -5.681032937e-05)
5(-0.0001108772356 -9.512425487e-05 -8.516190491e-05 -6.437977891e-05 -6.179289546e-05)
5(-0.0001178795234 -0.0001012280113 -9.078242703e-05 -7.065434769e-05 -6.793112666e-05)
5(-0.0001251728967 -0.000107109432 -9.690998299e-05 -7.524164328e-05 -7.344598752e-05)
5(-0.0001327996146 -0.0001124889531 -0.0001029448608 -8.107241753e-05 -8.012661513e-05)
5(-0.0001403708057 -0.0001175996564 -0.0001090128486 -8.681957567e-05 -8.680599854e-05)
5(-0.000147543268 -0.0001215352094 -0.0001143103161 -9.254342388e-05 -9.492352425e-05)
5(-0.0001542085696 -0.0001275520952 -0.0001205749879 -9.925664947e-05 -0.0001054541012)
5(-0.0001604927996 -0.0001338394833 -0.0001256456812 -0.000108068956 -0.0001193581135)
5(-0.0001642450876 -0.0001372624866 -0.0001332413398 -0.0001210897346 -0.0001390717711)
5(-0.0001678808846 -0.0001404510268 -0.0001440271081 -0.0001419374713 -0.0001709206746)
5(-0.0001709890306 -0.0001467983506 -0.0001612925799 -0.0001735610668 -0.0002198842065)
5(-0.0001783821112 -0.0001645478471 -0.0001969904132 -0.0002314883186 -0.0003008294621)
5(-0.0001953742949 -0.0001961752144 -0.0002553466006 -0.0003196440998 -0.0004159387474)
5(-0.000227945174 -0.0002518799369 -0.0003507049272 -0.0004611064552 -0.0006105389704)
5(-0.0002890615162 -0.0003566792423 -0.0005129725712 -0.0006739919102 -0.000874608571)
5(-0.0004012727579 -0.0005167491717 -0.0007401607978 -0.0009768582863 -0.001237270276)
5(-0.0005906818138 -0.0007924467769 -0.001131047564 -0.001412289056 -0.001702560996)
5(-0.0008764498558 -0.00115920039 -0.001625157918 -0.00194088997 -0.002339988208)
5(-0.00129733531 -0.001682823497 -0.002235249474 -0.002598991704 -0.00290180632)
5(-0.001851956463 -0.002336659652 -0.002946614163 -0.003285796433 -0.003853135178)
5(-0.002594443337 -0.003154657585 -0.003812563003 -0.003987340994 -0.004408830009)
5(-0.003487935744 -0.004005772152 -0.004597524302 -0.004709671966 -0.004671337734)
5(-0.004431896492 -0.004868430238 -0.005241468514 -0.005336441584 -0.004492694157)
5(-0.005311172948 -0.005408686256 -0.005255975616 -0.005157593628 -0.003866780718)
5(-0.005948709814 -0.005657704821 -0.005188483714 -0.004461918159 -0.002998295957)
5(-0.006234149776 -0.00538679872 -0.004697424184 -0.003443476605 -0.002024898468)
5(-0.005949361934 -0.00477483775 -0.004060217626 -0.002314038738 -0.001180229014)
5(-0.005098149273 -0.003912527971 -0.002856089158 -0.001339138798 -0.0005819365593)
5(-0.003910745935 -0.002647347195 -0.001672511007 -0.0006542431054 -0.000238557741)
5(-0.002595397137 -0.001735892706 -0.0008130559995 -0.0002630426105 -8.005163053e-05)
5(-0.001477394556 -0.0008312214425 -0.0003208064329 -8.583613236e-05 -2.236237637e-05)
5(-0.0007367129206 -0.0003115368836 -9.880515884e-05 -2.24028176e-05 -5.24325215e-06)
5(-0.0002651564399 -9.005193279e-05 -2.362404696e-05 -4.706999333e-06 -1.01532666e-06)
5(-6.77786331e-05 -1.845487695e-05 -4.134529041e-06 -7.396423017e-07 -1.571425939e-07)
5(-1.124206307e-05 -2.533009916e-06 -5.280747274e-07 -9.029022881e-08 -1.98136679e-08)
5(-1.065843489e-06 -2.220257161e-07 -4.299932473e-08 -7.695252316e-09 -1.723989414e-09)
5(-4.591546676e-08 -9.667458022e-09 -2.487121893e-09 -2.030156654e-10 4.116891672e-11)
5(-6.248163963e-10 -1.106219634e-10 1.431294146e-10 4.256264388e-10 3.728776656e-10)
5(8.438698883e-10 -7.905388732e-08 9.037069927e-09 -7.219113361e-09 6.969156857e-10)
5(1.238037364e-09 3.882132289e-08 1.209443518e-07 -2.762967044e-08 3.053749202e-09)
)


60
(
5(-4.658288302e-05 -2.636128928e-05 -3.677706927e-05 -2.468255708e-05 -2.222318583e-05)
5(-6.643448882e-05 -3.706125886e-05 -4.538887246e-05 -2.618963267e-05 -2.616140826e-05)
5(-7.007276228e-05 -4.128086951e-05 -4.504474751e-05 -2.591585212e-05 -2.476854783e-05)
5(-7.066439203e-05 -4.296745684e-05 -4.483985683e-05 -2.600548231e-05 -2.398825532e-05)
5(-7.209874974e-05 -4.417281192e-05 -4.518563002e-05 -2.651699603e-05 -2.380464985e-05)
5(-7.406908279e-05 -4.564015508e-05 -4.607872032e-05 -2.753901115e-05 -2.427484607e-05)
5(-7.591550049e-05 -4.664087204e-05 -4.752601326e-05 -2.831550044e-05 -2.511878209e-05)
5(-7.753306024e-05 -4.759984056e-05 -4.856974602e-05 -2.891359259e-05 -2.594246856e-05)
5(-7.857640162e-05 -4.849606251e-05 -4.952275081e-05 -2.962865878e-05 -2.683371363e-05)
5(-7.914467795e-05 -4.922900578e-05 -5.053174623e-05 -3.044182305e-05 -2.788766041e-05)
5(-8.045382005e-05 -5.005495644e-05 -5.188161694e-05 -3.146006224e-05 -2.897629137e-05)
5(-8.195798813e-05 -5.138114701e-05 -5.342359679e-05 -3.277130218e-05 -3.035123352e-05)
5(-8.366371205e-05 -5.264019084e-05 -5.536349956e-05 -3.433014926e-05 -3.211991712e-05)
5(-8.544639192e-05 -5.407017416e-05 -5.759246262e-05 -3.594604002e-05 -3.408155275e-05)
5(-8.734829587e-05 -5.568476098e-05 -6.012081279e-05 -3.78316888e-05 -3.614910096e-05)
5(-9.001052971e-05 -5.738092336e-05 -6.284200923e-05 -3.997183935e-05 -3.857230356e-05)
5(-9.286331714e-05 -5.918910271e-05 -6.588737201e-05 -4.220929472e-05 -4.104591644e-05)
5(-9.550899868e-05 -6.123313721e-05 -6.924417674e-05 -4.454269702e-05 -4.361387571e-05)
5(-9.905085685e-05 -6.356585111e-05 -7.260627141e-05 -4.696476106e-05 -4.652074012e-05)
5(-0.0001021893438 -6.572591401e-05 -7.606756926e-05 -4.932014767e-05 -4.927961015e-05)
5(-0.0001064092615 -6.800144324e-05 -7.924085772e-05 -5.14923716e-05 -5.172547118e-05)
5(-0.0001106979426 -6.93640152e-05 -8.210750513e-05 -5.301929341e-05 -5.387843413e-05)
5(-0.0001142073561 -7.034323517e-05 -8.443461452e-05 -5.376845308e-05 -5.507102376e-05)
5(-0.000116052133 -6.999012037e-05 -8.491114415e-05 -5.310057465e-05 -5.506003047e-05)
5(-0.000117902382 -6.803318679e-05 -8.331118217e-05 -5.013389824e-05 -5.26708492e-05)
5(-0.0001169234112 -6.282111625e-05 -7.80502356e-05 -4.433314594e-05 -4.781135282e-05)
5(-0.0001125580405 -5.434335109e-05 -6.977523074e-05 -3.49100414e-05 -3.97600931e-05)
5(-0.0001056081107 -4.054279515e-05 -5.55036698e-05 -2.012550417e-05 -2.747669177e-05)
5(-9.150354795e-05 -1.941303986e-05 -3.390870388e-05 2.811247545e-07 -9.467955752e-06)
5(-7.085903481e-05 8.535378879e-06 -5.380475746e-06 2.709598149e-05 1.08983286e-05)
5(-4.141431361e-05 4.657946527e-05 3.177157716e-05 5.872694481e-05 3.132738089e-05)
5(-1.750622524e-06 9.423292935e-05 7.515799361e-05 9.326870079e-05 4.981872589e-05)
5(4.768321939e-05 0.0001489670392 0.0001221781209 0.0001220449394 5.559821521e-05)
5(0.0001043485349 0.0002081494207 0.0001653225044 0.0001394258687 3.873368677e-05)
5(0.0001671053976 0.0002668402304 0.0001925607682 0.00012791207 -2.316190945e-05)
5(0.0002279811952 0.0003085573039 0.0001882814688 6.824025086e-05 -0.0001467800353)
5(0.0002706564439 0.0003215166232 0.0001294482384 -6.574515018e-05 -0.0003604099535)
5(0.0002897803527 0.0002850817971 -1.001387687e-05 -0.0002982622073 -0.0006827677156)
5(0.0002588843406 0.0001663846686 -0.0002564765296 -0.0006485066293 -0.001128529907)
5(0.0001562543943 -4.751969694e-05 -0.0006293813738 -0.00112730925 -0.001689268173)
5(-3.844285076e-05 -0.0003899591987 -0.001138826598 -0.001719823623 -0.002333779049)
5(-0.0003367075368 -0.000843509962 -0.001745762771 -0.002378385761 -0.00295910355)
5(-0.0007340223265 -0.001401914005 -0.002392906434 -0.003013678072 -0.003416835901)
5(-0.001193556446 -0.002005815142 -0.002982833822 -0.003491613645 -0.003573983749)
5(-0.001675294594 -0.002534377329 -0.003402757124 -0.003665551376 -0.003362461542)
5(-0.002088332587 -0.002877628336 -0.003531761881 -0.003447091378 -0.002823961042)
5(-0.002310622035 -0.002941706088 -0.003316728369 -0.002862783548 -0.002081970305)
5(-0.002296203818 -0.002713745817 -0.002751130108 -0.002073893174 -0.001329819068)
5(-0.001994629104 -0.002205897994 -0.001975451201 -0.001291103638 -0.0007230770063)
5(-0.001527888541 -0.001554807246 -0.001198917898 -0.0006755456235 -0.0003254097272)
5(-0.0009860790602 -0.0009241808539 -0.0006023841535 -0.0002906241114 -0.0001208723128)
5(-0.0005203965028 -0.0004402855329 -0.0002424630689 -9.961253946e-05 -3.526067838e-05)
5(-0.0002112425831 -0.0001616641238 -7.469777663e-05 -2.656357087e-05 -8.390698124e-06)
5(-6.200843378e-05 -4.320183467e-05 -1.680282719e-05 -5.322116049e-06 -1.51555389e-06)
5(-1.219046278e-05 -7.80735596e-06 -2.562370684e-06 -7.614318148e-07 -2.140855135e-07)
5(-1.399208756e-06 -8.530994869e-07 -2.654422567e-07 -7.789634547e-08 -2.371121747e-08)
5(-9.611213533e-08 -5.557281297e-08 -1.527216154e-08 -5.774033018e-09 -1.937786606e-09)
5(1.754711273e-10 -1.431516921e-08 -6.39901416e-10 -9.655152432e-09 -1.132270154e-10)
5(-7.490730335e-08 1.293610206e-07 2.381281404e-08 -1.582928261e-08 2.615736238e-08)
5(1.64975454e-09 2.991235885e-07 2.815314875e-09 -7.757002354e-09 9.426803274e-10)
)


60
(
5(-5.348748927e-05 -2.442183937e-05 -4.257450759e-05 -2.865848874e-05 -2.709369406e-05)
5(-8.04782371e-05 -3.934141042e-05 -5.239601094e-05 -3.025315866e-05 -3.06067007e-05)
5(-8.863500296e-05 -4.55401697e-05 -5.351902099e-05 -3.028681223e-05 -2.930182381e-05)
5(-9.011233426e-05 -4.751469096e-05 -5.385298228e-05 -3.063786221e-05 -2.865254115e-05)
5(-9.075041768e-05 -4.857900214e-05 -5.424690159e-05 -3.132805028e-05 -2.856521591e-05)
5(-9.231128804e-05 -4.99130609e-05 -5.520437352e-05 -3.229383867e-05 -2.923372794e-05)
5(-9.371332757e-05 -5.069757537e-05 -5.631235448e-05 -3.296117802e-05 -3.024583107e-05)
5(-9.412961047e-05 -5.068371646e-05 -5.71806466e-05 -3.351791392e-05 -3.111317275e-05)
5(-9.38468589e-05 -5.051002267e-05 -5.770042269e-05 -3.384910725e-05 -3.189666785e-05)
5(-9.366696158e-05 -5.009358568e-05 -5.822907802e-05 -3.427926631e-05 -3.264636444e-05)
5(-9.318552835e-05 -4.970087032e-05 -5.876267371e-05 -3.476604109e-05 -3.373007983e-05)
5(-9.282368677e-05 -4.935074313e-05 -5.957832881e-05 -3.566253142e-05 -3.512578096e-05)
5(-9.26683845e-05 -4.869020516e-05 -6.074180182e-05 -3.665917358e-05 -3.657624537e-05)
5(-9.258663364e-05 -4.795483575e-05 -6.219391209e-05 -3.763873209e-05 -3.830261554e-05)
5(-9.180293317e-05 -4.728010346e-05 -6.369426723e-05 -3.879790295e-05 -4.045071737e-05)
5(-9.133993944e-05 -4.651703533e-05 -6.517082788e-05 -4.007649423e-05 -4.251706004e-05)
5(-9.141254665e-05 -4.548856023e-05 -6.659227996e-05 -4.127719551e-05 -4.479397267e-05)
5(-9.039703645e-05 -4.411764493e-05 -6.845738425e-05 -4.241044402e-05 -4.711492861e-05)
5(-9.035901012e-05 -4.29336652e-05 -6.982653823e-05 -4.368259763e-05 -4.940512888e-05)
5(-8.949665031e-05 -4.068647767e-05 -7.149458514e-05 -4.484044112e-05 -5.185534841e-05)
5(-8.785773863e-05 -3.868797039e-05 -7.296387817e-05 -4.540654027e-05 -5.299684112e-05)
5(-8.678983708e-05 -3.628948972e-05 -7.321664771e-05 -4.51530105e-05 -5.381372582e-05)
5(-8.618095403e-05 -3.199718131e-05 -7.20991697e-05 -4.391698864e-05 -5.363321473e-05)
5(-8.142227662e-05 -2.59016201e-05 -7.015345001e-05 -4.072514002e-05 -5.154568468e-05)
5(-7.587726025e-05 -1.941790907e-05 -6.575980707e-05 -3.501822285e-05 -4.686532206e-05)
5(-6.805188459e-05 -9.54437362e-06 -5.69923134e-05 -2.511284237e-05 -3.748235699e-05)
5(-5.730588562e-05 3.960960016e-06 -4.362005939e-05 -1.06791346e-05 -2.337757213e-05)
5(-4.253314062e-05 2.378162892e-05 -2.352088248e-05 1.08471933e-05 -3.197892524e-06)
5(-2.040772389e-05 4.996450738e-05 4.710838668e-06 3.978482599e-05 2.551811346e-05)
5(9.377059474e-06 8.451689991e-05 4.347391356e-05 7.878004512e-05 6.302786181e-05)
5(4.85756653e-05 0.000130233054 9.386004103e-05 0.0001287637492 0.0001098005123)
5(9.839981824e-05 0.0001874780933 0.0001556144504 0.0001880474071 0.0001618783401)
5(0.0001609779546 0.0002559567895 0.0002289445165 0.0002551494678 0.0002154713848)
5(0.0002361189168 0.0003380356651 0.000310121999 0.0003227253615 0.0002630888179)
5(0.0003224562723 0.0004268740352 0.0003918458175 0.0003837385228 0.0002891770306)
5(0.0004143504696 0.0005163404345 0.0004639427761 0.000417742721 0.0002694952426)
5(0.0005095502868 0.0005986733081 0.0005076834315 0.0004070063121 0.000189794643)
5(0.0005937143659 0.0006559592183 0.0005027635392 0.0003258752742 1.622665459e-05)
5(0.0006545140184 0.0006714998707 0.0004244368697 0.0001459455618 -0.0002783338648)
5(0.0006801788123 0.0006264005518 0.000248903353 -0.0001536498612 -0.000708998123)
5(0.0006511639203 0.0004977874661 -4.336974763e-05 -0.0005871679736 -0.00126794183)
5(0.0005674969842 0.000280194884 -0.0004572283984 -0.001140054304 -0.001912515776)
5(0.0004190636909 -3.575910764e-05 -0.0009664525111 -0.001781790048 -0.002552655103)
5(0.0002242197249 -0.0004273433999 -0.001523992147 -0.00241004484 -0.003034462447)
5(3.356938337e-06 -0.0008528578411 -0.002053988105 -0.002889398326 -0.003247264166)
5(-0.0002141528157 -0.00122913531 -0.002451550277 -0.003089904115 -0.003116740114)
5(-0.0003690080817 -0.001482158299 -0.002606610981 -0.002924893019 -0.002658430478)
5(-0.0004420897922 -0.00156450856 -0.002454040622 -0.002441862824 -0.001989018611)
5(-0.0003973096093 -0.001460689936 -0.00201623177 -0.001768757257 -0.001277300707)
5(-0.0002544204113 -0.001174386687 -0.001416207126 -0.001086153849 -0.0006928606138)
5(-7.588137935e-05 -0.0008042904613 -0.0008259298884 -0.0005547823265 -0.0003127425061)
5(8.167791954e-05 -0.0004464705121 -0.0003901405918 -0.0002307677893 -0.0001129604862)
5(0.0001686649179 -0.0001889165348 -0.000144835635 -7.352532648e-05 -3.140704256e-05)
5(0.0001552354455 -5.687610311e-05 -3.95472575e-05 -1.748175132e-05 -6.810258642e-06)
5(8.331730426e-05 -1.164441937e-05 -7.295487766e-06 -2.880949937e-06 -1.032010714e-06)
5(3.608068727e-05 -9.014210146e-07 -8.114384404e-07 -3.146817181e-07 -1.034699207e-07)
5(8.304229381e-06 8.568338944e-08 -5.868822716e-08 -1.979178294e-08 -7.647658741e-09)
5(8.982878319e-07 1.054112087e-07 -1.560507801e-09 7.252655222e-08 -1.026007403e-09)
5(7.483516388e-07 4.37892927e-07 -3.286121374e-08 5.859525193e-08 -2.392868805e-07)
5(5.458745258e-07 -2.311706206e-07 1.307605707e-07 -7.680981322e-08 1.253366728e-09)
)


60
(
5(-6.618633598e-05 -2.873984167e-05 -5.271576105e-05 -3.633549256e-05 -3.464593174e-05)
5(-0.0001009051887 -4.881879895e-05 -6.350613728e-05 -3.810637779e-05 -3.791922443e-05)
5(-0.0001134355509 -5.689479653e-05 -6.577878314e-05 -3.834034437e-05 -3.674783947e-05)
5(-0.0001156025424 -5.914200025e-05 -6.64508278e-05 -3.880675808e-05 -3.617482148e-05)
5(-0.0001158936699 -6.004429555e-05 -6.682103786e-05 -3.953982601e-05 -3.617126112e-05)
5(-0.0001167070391 -6.094424088e-05 -6.746143973e-05 -4.034533919e-05 -3.683665656e-05)
5(-0.0001171319908 -6.067156919e-05 -6.797707443e-05 -4.077716623e-05 -3.785388294e-05)
5(-0.0001164981975 -5.96132752e-05 -6.823570639e-05 -4.0846866e-05 -3.859654935e-05)
5(-0.0001148921009 -5.786785251e-05 -6.781015298e-05 -4.051750857e-05 -3.913877762e-05)
5(-0.0001127084277 -5.569383809e-05 -6.731872382e-05 -4.021181778e-05 -3.968820434e-05)
5(-0.0001100286533 -5.317010803e-05 -6.662680624e-05 -4.001124428e-05 -4.046630997e-05)
5(-0.0001074054264 -5.031898136e-05 -6.623402498e-05 -3.998086351e-05 -4.149413433e-05)
5(-0.0001041287088 -4.726330867e-05 -6.572563296e-05 -3.980565863e-05 -4.276396211e-05)
5(-0.0001018543831 -4.394257224e-05 -6.524501281e-05 -3.977628155e-05 -4.430562787e-05)
5(-9.846440902e-05 -3.982390879e-05 -6.46272332e-05 -3.963512401e-05 -4.570793238e-05)
5(-9.378778896e-05 -3.485598669e-05 -6.389764134e-05 -3.951496663e-05 -4.748272731e-05)
5(-8.962644945e-05 -2.974453818e-05 -6.322617074e-05 -3.890321205e-05 -4.950551419e-05)
5(-8.460520988e-05 -2.402026466e-05 -6.195759001e-05 -3.884786181e-05 -5.150841721e-05)
5(-7.92486438e-05 -1.720291557e-05 -6.050308973e-05 -3.822045044e-05 -5.308989542e-05)
5(-7.292890931e-05 -9.943724148e-06 -5.905827323e-05 -3.712018198e-05 -5.446566185e-05)
5(-6.644886733e-05 -2.321426353e-06 -5.636084969e-05 -3.540930521e-05 -5.533248477e-05)
5(-5.85769943e-05 7.450702675e-06 -5.317858379e-05 -3.293131941e-05 -5.538180387e-05)
5(-4.916569742e-05 1.781634965e-05 -4.87507146e-05 -2.908679309e-05 -5.464202534e-05)
5(-3.839788407e-05 2.937690314e-05 -4.313195163e-05 -2.335796968e-05 -5.138650857e-05)
5(-2.607476937e-05 4.311437098e-05 -3.394250906e-05 -1.539997143e-05 -4.566775613e-05)
5(-1.037387732e-05 5.885980481e-05 -2.174122875e-05 -3.386463132e-06 -3.494653425e-05)
5(8.406712334e-06 7.839233313e-05 -4.204593556e-06 1.346038865e-05 -2.002807506e-05)
5(3.096737474e-05 0.0001035026738 1.842382423e-05 3.71772966e-05 3.161482794e-06)
5(5.9063571e-05 0.0001338651385 4.975377843e-05 6.92832146e-05 3.514273652e-05)
5(9.513993105e-05 0.0001711840893 9.157130556e-05 0.0001118355973 7.842463655e-05)
5(0.0001395466606 0.0002185515699 0.0001444114557 0.0001666255799 0.0001341616732)
5(0.0001948947068 0.0002774391902 0.0002097700238 0.0002350791446 0.0002005167758)
5(0.0002625550148 0.0003477630709 0.0002908780013 0.0003134545494 0.0002725888241)
5(0.0003429167936 0.0004308216878 0.0003813927405 0.0004007593181 0.0003516024939)
5(0.000435410624 0.0005218968835 0.000480786757 0.0004908331225 0.0004224228882)
5(0.0005346827041 0.0006212272138 0.0005813261488 0.0005727449961 0.0004715803983)
5(0.0006402677651 0.0007219684351 0.0006703522505 0.0006295027307 0.0004784475754)
5(0.0007449355201 0.0008134800533 0.0007339695029 0.000640704157 0.0004155223578)
5(0.0008376680565 0.000883567277 0.0007516005416 0.0005815488896 0.0002576867324)
5(0.0009097223794 0.0009198962518 0.000703307445 0.0004298981067 -2.641269663e-05)
5(0.0009510387776 0.0009094092218 0.0005713454019 0.0001607909734 -0.0004449817903)
5(0.0009618065601 0.0008442625897 0.0003381239107 -0.0002350186227 -0.0009984730906)
5(0.0009425154849 0.0007186329241 1.139355726e-05 -0.00075348734 -0.001639912561)
5(0.0009069313826 0.0005358734612 -0.0003993269954 -0.001354271207 -0.002260025121)
5(0.0008748376336 0.0003223199386 -0.0008440683771 -0.00193441576 -0.002734465588)
5(0.0008673608808 0.0001079739685 -0.001274347692 -0.002374722874 -0.002952046585)
5(0.0008747479158 -8.664833006e-05 -0.001595925567 -0.002551747762 -0.002839356424)
5(0.0009440294776 -0.000218745953 -0.001728994225 -0.002400008701 -0.002416733552)
5(0.001015803815 -0.0002751089593 -0.001620047358 -0.001970802261 -0.001791861891)
5(0.001120652317 -0.0002544888662 -0.001292074633 -0.00139371931 -0.001140295643)
5(0.001176520898 -0.000187816974 -0.0008700795119 -0.000826732489 -0.0006012723625)
5(0.001157865789 -6.853062684e-05 -0.0004759648936 -0.0003985032522 -0.0002602072108)
5(0.001043800821 3.908279936e-06 -0.0002068802126 -0.0001525877645 -8.867384012e-05)
5(0.0008657179855 3.844381426e-05 -6.876471809e-05 -4.240603978e-05 -2.174883762e-05)
5(0.0005589657871 3.695107418e-05 -1.540678566e-05 -8.367617183e-06 -3.888754067e-06)
5(0.00032587766 1.596658928e-05 -2.600970496e-06 -1.02311313e-06 -4.630483055e-07)
5(0.0001289343927 6.757500342e-06 -9.386794754e-08 -6.777299407e-08 -2.94883985e-08)
5(4.164116867e-05 9.931052651e-07 2.968869183e-09 3.271406808e-08 -5.608623333e-10)
5(1.187646795e-05 -6.229375386e-07 2.756826958e-08 -2.489495076e-07 -1.157710114e-07)
5(1.62552097e-05 -1.28407957e-07 1.558942136e-06 -2.18762502e-07 4.685574072e-09)
)


60
(
5(-8.523609607e-05 -3.979264591e-05 -6.72318056e-05 -4.794405495e-05 -4.482660595e-05)
5(-0.0001301361629 -6.673011945e-05 -7.940272324e-05 -5.008911235e-05 -4.802028538e-05)
5(-0.0001480534151 -7.792509759e-05 -8.296139034e-05 -5.047574404e-05 -4.69006834e-05)
5(-0.0001518889883 -8.140759146e-05 -8.412209144e-05 -5.10051508e-05 -4.61819488e-05)
5(-0.0001528874142 -8.262990989e-05 -8.453500979e-05 -5.164874848e-05 -4.629739559e-05)
5(-0.0001545492227 -8.348628275e-05 -8.488243555e-05 -5.23383792e-05 -4.701294907e-05)
5(-0.0001551018967 -8.300099476e-05 -8.494149819e-05 -5.241057916e-05 -4.787527362e-05)
5(-0.0001543517542 -8.116970842e-05 -8.453399149e-05 -5.186658456e-05 -4.8537324e-05)
5(-0.0001521173335 -7.836903681e-05 -8.317143524e-05 -5.082300235e-05 -4.870576598e-05)
5(-0.0001492461435 -7.517832521e-05 -8.149556591e-05 -4.972293457e-05 -4.899854478e-05)
5(-0.0001459091413 -7.101757774e-05 -7.955547339e-05 -4.853464315e-05 -4.932650948e-05)
5(-0.0001419295071 -6.671116018e-05 -7.770453713e-05 -4.737873628e-05 -5.005057998e-05)
5(-0.0001382509909 -6.182266601e-05 -7.551141596e-05 -4.613505882e-05 -5.088260377e-05)
5(-0.0001339138998 -5.60874837e-05 -7.3386607e-05 -4.479789054e-05 -5.194204804e-05)
5(-0.0001291341253 -4.980999616e-05 -7.074595549e-05 -4.328297154e-05 -5.301515358e-05)
5(-0.0001240160612 -4.276099436e-05 -6.833689688e-05 -4.159300174e-05 -5.431909429e-05)
5(-0.0001178732693 -3.470807388e-05 -6.483163289e-05 -3.933265017e-05 -5.534747821e-05)
5(-0.0001118414977 -2.60018716e-05 -6.109169067e-05 -3.746967128e-05 -5.675910622e-05)
5(-0.0001043248582 -1.639948069e-05 -5.710667347e-05 -3.415185236e-05 -5.753437187e-05)
5(-9.649977704e-05 -5.949012075e-06 -5.208989797e-05 -3.122812507e-05 -5.883415664e-05)
5(-8.919356095e-05 4.89123761e-06 -4.693054049e-05 -2.725668128e-05 -5.865192746e-05)
5(-7.878607803e-05 1.805426634e-05 -4.011088494e-05 -2.199984546e-05 -5.797393027e-05)
5(-6.874435978e-05 3.123990939e-05 -3.25243267e-05 -1.621579508e-05 -5.639367762e-05)
5(-5.860893391e-05 4.574802314e-05 -2.333249798e-05 -8.017415026e-06 -5.214609062e-05)
5(-4.415608105e-05 6.207544007e-05 -1.095290233e-05 2.665454819e-06 -4.563359424e-05)
5(-2.876473336e-05 8.101549882e-05 4.257003655e-06 1.608121739e-05 -3.584003168e-05)
5(-1.004337457e-05 0.0001033159748 2.323510062e-05 3.481038353e-05 -1.93250985e-05)
5(1.121063969e-05 0.0001290116373 4.686035208e-05 5.976483659e-05 3.843156684e-06)
5(4.141869898e-05 0.0001592817434 8.030397258e-05 9.28457089e-05 3.499522393e-05)
5(7.717295595e-05 0.0001978762226 0.0001221579317 0.0001346071143 7.885247441e-05)
5(0.0001232569422 0.0002461122434 0.0001741949245 0.0001897375761 0.0001353795756)
5(0.0001776898358 0.0003018156552 0.0002376210836 0.00025660252 0.0002039366066)
5(0.0002447375505 0.0003703357356 0.0003157911176 0.0003374567822 0.000288305509)
5(0.0003295068852 0.0004498380622 0.000407785454 0.0004316074948 0.0003828897597)
5(0.0004236872591 0.000540743442 0.0005088263176 0.0005319012548 0.0004734450306)
5(0.000530766435 0.0006429712365 0.0006174290622 0.0006335448201 0.0005577928523)
5(0.0006488273397 0.000745081092 0.0007224047834 0.0007216512824 0.0006156785286)
5(0.0007670635335 0.0008452983751 0.0008132759855 0.000781939301 0.0006298985865)
5(0.000877055108 0.000933213819 0.0008770058009 0.0007985159412 0.0005750553046)