/*--------------------------------*- C++ -*----------------------------------*\
| =========                 |                                                 |
| \\      /  F ield         | OpenFOAM: The Open Source CFD Toolbox           |
|  \\    /   O peration     | Version:  2.3.1                                 |
|   \\  /    A nd           | Web:      www.OpenFOAM.org                      |
|    \\/     M anipulation  |                                                 |
\*---------------------------------------------------------------------------*/
FoamFile
{
    version     2.0;
    format      ascii;
    class       dictionary;
    location    "constant";
    object      PM53;
}
// * * * * * * * * * * * * * * * * * * * * * * * * * * * * * * * * * * * * * //

PM53_table
60
(

60
(
5(0.0001317708106 3.901848833e-05 7.042521781e-05 3.102724717e-05 2.676075846e-05)
5(0.000123011149 2.166123624e-05 2.862698319e-05 1.74007347e-05 2.636582597e-05)
5(8.335440901e-07 5.736139805e-05 3.029430648e-05 9.673693183e-06 5.045818679e-06)
5(-1.808625311e-05 7.244301876e-05 3.711740307e-05 1.745077887e-05 4.10488641e-05)
5(-1.836055851e-05 6.467349588e-05 2.460074506e-05 2.304533997e-05 1.116597489e-05)
5(3.65359289e-05 4.585933373e-05 1.631079613e-05 1.833893993e-05 1.216859194e-05)
5(7.828285779e-05 3.089609324e-05 2.671490552e-05 1.836195341e-05 1.754587608e-05)
5(-1.299705441e-06 3.681278387e-05 3.066160158e-05 1.912530526e-05 8.965532518e-06)
5(-7.101132271e-05 5.684749278e-05 2.847799658e-05 2.04359451e-05 1.691199949e-05)
5(-5.40574791e-05 7.036178616e-05 3.295618001e-05 2.01876738e-05 1.695715067e-05)
5(6.071347997e-06 7.32826718e-05 3.098775183e-05 2.178927316e-05 1.680636926e-05)
5(8.977259458e-05 5.501304048e-05 3.01252417e-05 2.340368959e-05 1.685543482e-05)
5(7.926754524e-05 4.533912917e-05 3.30502568e-05 2.532039322e-05 1.88718669e-05)
5(5.89323521e-05 4.720895047e-05 3.498013702e-05 2.567029268e-05 1.972676621e-05)
5(5.623010384e-05 4.879805795e-05 3.708155869e-05 2.928560654e-05 2.167851766e-05)
5(5.843033961e-05 5.299066733e-05 4.086555622e-05 3.160038087e-05 2.44572661e-05)
5(6.67346831e-05 5.785493016e-05 4.441077541e-05 3.546610872e-05 2.799389088e-05)
5(7.430519379e-05 6.29265839e-05 4.954942246e-05 3.976467049e-05 3.094008043e-05)
5(8.076656764e-05 7.018979198e-05 5.476928938e-05 4.458105658e-05 3.47085351e-05)
5(8.904377702e-05 7.860726242e-05 6.146503611e-05 5.147201587e-05 3.910015142e-05)
5(9.620467854e-05 8.49129308e-05 6.79561345e-05 5.646150619e-05 4.48263994e-05)
5(0.0001078439096 9.668839286e-05 7.760679578e-05 6.306220823e-05 5.240181941e-05)
5(0.0001215123808 0.0001114113089 9.001163494e-05 7.950196945e-05 6.544970304e-05)
5(0.0001366739967 0.0001297301351 0.0001060620724 9.405267836e-05 7.770207157e-05)
5(0.0001566024872 0.0001473557367 0.000128850917 0.0001169569972 9.71410869e-05)
5(0.0001790160808 0.0001733606751 0.0001577656299 0.0001456465157 0.0001198600242)
5(0.0002103843908 0.0002130811499 0.0001904468269 0.0001834243776 0.0001531948449)
5(0.0002530133178 0.0002678039878 0.0002409522513 0.0002327007191 0.0001976890745)
5(0.0003104218885 0.0003323471423 0.0003006020132 0.0002978518023 0.0002605644501)
5(0.0003818426867 0.0004229175919 0.0003872094912 0.0003867025583 0.0003433473979)
5(0.0004808336186 0.0005424392728 0.0005101305444 0.0005153773528 0.0004438954668)
5(0.0006063393132 0.0006955528817 0.0006553985317 0.0006511183096 0.0005612505173)
5(0.0007764813685 0.000910099647 0.0008718721926 0.0008737218924 0.0007918343778)
5(0.00100646201 0.001189091656 0.001141020723 0.001105260501 0.0009145529168)
5(0.001301715771 0.00153475333 0.001476107174 0.001422951168 0.001201240736)
5(0.001684250946 0.001994513345 0.001903690991 0.00175464777 0.001467657439)
5(0.002145308495 0.002447964346 0.002237474236 0.00212941962 0.001631485825)
5(0.002723365302 0.003096663705 0.002818210286 0.00245185056 0.001599524687)
5(0.003397144403 0.003731045912 0.003392555817 0.002845519264 0.001654810277)
5(0.004141912711 0.004392478825 0.003871107698 0.002604414789 0.0006296860028)
5(0.004802701263 0.004858951135 0.003997429911 0.002341702512 0.0009904949753)
5(0.005419999965 0.005208170078 0.003861509881 0.001421140078 0.001058914129)
5(0.005853077935 0.005260541087 0.003480048308 0.001040883242 0.001231423169)
5(0.006097119505 0.005292505334 0.00347559466 0.001194863337 0.0009758464138)
5(0.005830426814 0.004643374754 0.002509411385 0.0009538099018 0.0006554448878)
5(0.005223341234 0.003767232735 0.001351236249 0.0006963565726 0.0003996803134)
5(0.004190578079 0.00221203489 0.000546091354 0.0005123410303 0.000211312668)
5(0.002933011863 0.001310358749 0.0004429082797 0.0002913642997 9.54221631e-05)
5(0.002087649443 0.0006336906768 0.0002638318709 0.0001348900159 3.669254703e-05)
5(0.0009252749871 0.0001896619166 0.0001480731684 5.169284492e-05 1.226648986e-05)
5(0.0003554059657 0.0001283032514 5.594884992e-05 1.71554952e-05 3.567682684e-06)
5(0.0001170777238 5.55146139e-05 1.739740168e-05 4.840998774e-06 9.214797329e-07)
5(5.153071583e-05 1.698772003e-05 4.536537923e-06 1.180118041e-06 2.108050306e-07)
5(1.357537915e-05 3.677685314e-06 9.136317578e-07 2.430679315e-07 4.500334888e-08)
5(2.475997833e-06 6.455541311e-07 1.506368544e-07 4.273019116e-08 9.58327699e-09)
5(2.853423324e-07 6.906925836e-08 2.058887075e-08 7.429977146e-09 3.946345086e-09)
5(2.471349389e-08 7.605677566e-09 3.338195958e-09 3.262796624e-09 3.650840425e-09)
5(2.978028119e-09 2.271881682e-09 2.576857193e-09 3.641031896e-09 4.108822427e-09)
5(2.507803218e-09 2.746600939e-09 3.515953582e-09 2.890431244e-09 5.274667369e-09)
5(1.370085233e-09 2.57091343e-09 2.068985746e-07 4.900811985e-09 7.458491448e-09)
)


60
(
5(0.0002338955812 0.0001133577957 0.000119056206 6.344715561e-05 4.655798426e-05)
5(0.0001353204413 6.235708138e-05 6.487228156e-05 4.343564231e-05 2.688578275e-05)
5(4.768297257e-05 7.532881318e-05 5.620368928e-05 3.626515728e-05 1.51066331e-05)
5(1.450203639e-05 8.109850677e-05 6.558957546e-05 3.210774674e-05 3.597549808e-05)
5(7.742022305e-06 7.867044217e-05 6.491023523e-05 3.870120709e-05 3.007859961e-05)
5(2.69736067e-05 7.607033715e-05 4.888053766e-05 3.895389557e-05 2.634983757e-05)
5(0.000114955786 7.49393292e-05 5.056740807e-05 3.616692561e-05 3.022268962e-05)
5(9.640649902e-05 7.633205208e-05 5.756749842e-05 3.836145039e-05 2.439417192e-05)
5(2.641788853e-05 7.978415675e-05 5.692460234e-05 4.025480354e-05 2.793478433e-05)
5(-1.515841724e-05 8.373198461e-05 6.316338031e-05 4.130517819e-05 3.0098746e-05)
5(-2.139265966e-05 8.667674591e-05 6.54994126e-05 4.36204599e-05 3.212428945e-05)
5(7.089707768e-05 9.131934949e-05 6.590018833e-05 4.618508748e-05 3.331497095e-05)
5(0.0001225203829 9.620282881e-05 6.855322956e-05 5.015876052e-05 3.621339382e-05)
5(0.0001340217615 0.0001019159517 7.317707732e-05 5.22552824e-05 3.85000706e-05)
5(0.0001362046405 0.0001066576341 7.707194122e-05 5.712722116e-05 4.180601024e-05)
5(0.0001410864204 0.0001130705572 8.335943554e-05 6.198021753e-05 4.583566303e-05)
5(0.000150038754 0.0001212743614 8.970073582e-05 6.756801929e-05 5.100018675e-05)
5(0.0001633508756 0.0001307527131 9.770106354e-05 7.469341291e-05 5.672096068e-05)
5(0.000176325218 0.00014201759 0.0001063852928 8.201657825e-05 6.292915369e-05)
5(0.0001920004899 0.000157015427 0.00011764067 9.234799334e-05 6.996792945e-05)
5(0.0002070172008 0.0001690356522 0.0001275677305 0.0001020702282 7.826463292e-05)
5(0.0002241260267 0.0001843382311 0.000141317522 0.0001101299205 8.662326724e-05)
5(0.0002467051168 0.0002031462773 0.000155861946 0.0001261007185 0.000100266456)
5(0.0002664351324 0.0002263920315 0.0001734051379 0.0001426822585 0.0001143550705)
5(0.0002922393692 0.0002490253874 0.0001952643553 0.0001648088401 0.0001332297427)
5(0.0003190166583 0.0002732655753 0.0002232619129 0.0001930491181 0.0001560059881)
5(0.000350729094 0.0003058094977 0.0002509104066 0.0002269624713 0.0001864331553)
5(0.0003850155537 0.0003491383243 0.0002910660921 0.0002706400857 0.0002263713025)
5(0.0004300729809 0.000401323567 0.000338702179 0.0003267176112 0.000281790943)
5(0.0004814099767 0.0004689705905 0.0004033107569 0.0003991024646 0.0003560069576)
5(0.0005478670903 0.0005567727952 0.0004973838989 0.0005111904813 0.0004609141849)
5(0.0006320047132 0.0006719825652 0.0006168870343 0.0006470162134 0.0005804148784)
5(0.0007440205028 0.0008332995151 0.0007915058783 0.000844314424 0.0007952256998)
5(0.0009018256 0.001052900099 0.001035394194 0.001102349838 0.001014801916)
5(0.001118685025 0.001345697041 0.001350248009 0.001446401633 0.001337974431)
5(0.001419682877 0.001754997867 0.001805274581 0.001889741993 0.001736670929)
5(0.001831126604 0.002240638958 0.002275542179 0.00238580611 0.002214977131)
5(0.002361973045 0.002906653252 0.002920177294 0.003017932029 0.002533183295)
5(0.003062024882 0.003683587789 0.0036888232 0.003642871447 0.003211357752)
5(0.003933980213 0.004587612134 0.004550103072 0.004291953231 0.002878948138)
5(0.004919495169 0.005492771195 0.005248844373 0.004724935955 0.003142156231)
5(0.005961271438 0.006376749708 0.005837588387 0.004572324165 0.003195833058)
5(0.00698362467 0.007018355374 0.00611523483 0.003866274829 0.003051974328)
5(0.007828961689 0.007455844787 0.006345073491 0.003623408477 0.002711865611)
5(0.008327584456 0.007360094136 0.005713262052 0.003124078019 0.002166678968)
5(0.00824364157 0.006804665789 0.004673944181 0.002478336727 0.0015524367)
5(0.007604845234 0.005660513904 0.00304219506 0.001762836616 0.0009832536351)
5(0.006333417753 0.00411694921 0.002008219908 0.001106349035 0.0005407980524)
5(0.004889737037 0.002823227118 0.001229633704 0.0006057510915 0.0002553654567)
5(0.003274433563 0.001420683148 0.0006531988316 0.0002806746189 0.0001017246449)
5(0.001854724147 0.0007242976204 0.0002917185633 0.0001103508478 3.415490453e-05)
5(0.0007634227255 0.0003055957128 0.0001052968402 3.537269185e-05 9.918335815e-06)
5(0.0002794195631 0.0001031835026 3.038511859e-05 9.347523833e-06 2.413771229e-06)
5(8.250910189e-05 2.596981699e-05 6.593451798e-06 1.895236778e-06 4.874409616e-07)
5(1.73306187e-05 4.636506477e-06 1.086280169e-06 3.216732485e-07 8.763028024e-08)
5(2.296694088e-06 5.658245619e-07 1.218647364e-07 4.304857177e-08 1.53178331e-08)
5(1.75744362e-07 3.693593988e-08 1.282815019e-08 7.79557078e-09 6.7805582e-09)
5(7.182201048e-09 3.412708009e-09 4.996940178e-09 4.939863754e-09 6.772390871e-09)
5(4.60917295e-09 -4.804753316e-07 3.229042409e-08 -1.908138176e-07 7.936945206e-09)
5(2.935987599e-09 7.301568572e-08 2.467192159e-07 -6.138370179e-08 1.073209038e-08)
)


60
(
5(0.00047326696 0.0002554422996 0.0002245177522 0.0001222761815 8.324183484e-05)
5(0.0003638442531 0.0002400467557 0.0001617621592 0.00010185378 5.931367351e-05)
5(0.0003309501222 0.0002349729813 0.0001470930822 9.646634024e-05 5.549860681e-05)
5(0.0003317523975 0.00023758606 0.0001506564844 9.779739715e-05 5.815123552e-05)
5(0.0003480428582 0.000244695016 0.0001609656651 0.0001023627655 6.363711024e-05)
5(0.0003693659302 0.000252734361 0.000170219879 0.0001068104995 6.85096148e-05)
5(0.0003816238621 0.0002601094149 0.0001743885427 0.0001110438696 7.122331252e-05)
5(0.0003884156137 0.0002674688601 0.0001783076833 0.0001151462347 7.352320388e-05)
5(0.0003967675458 0.0002754815391 0.0001830503207 0.0001197498823 7.715437508e-05)
5(0.000411047717 0.0002861260232 0.0001911072836 0.0001265243704 8.2303889e-05)
5(0.0004251256865 0.0002998353598 0.0002014938742 0.0001350515815 8.918952431e-05)
5(0.000446558648 0.0003151865369 0.0002144922716 0.0001451300608 9.727575881e-05)
5(0.0004688773905 0.0003333539438 0.0002290701482 0.0001564100815 0.000106240039)
5(0.0004918859306 0.0003537548784 0.0002451831126 0.0001696685229 0.0001168049503)
5(0.0005179514808 0.0003769317354 0.0002633128097 0.0001846052837 0.0001281441398)
5(0.0005505900213 0.000403415713 0.0002844858342 0.0002016779626 0.0001414956909)
5(0.0005874194506 0.0004337038503 0.0003090622801 0.0002208165892 0.000156262054)
5(0.0006260757211 0.0004685967652 0.0003369831642 0.0002424511805 0.0001727959257)
5(0.0006747428971 0.0005057927968 0.0003669696635 0.000266438938 0.0001917008592)
5(0.0007239883424 0.000548170862 0.0004006629655 0.0002929319158 0.0002121311812)
5(0.0007814409457 0.000595249293 0.0004363248688 0.0003205703735 0.0002338907384)
5(0.0008471707864 0.000643651287 0.0004747944341 0.0003518019966 0.0002593872876)
5(0.0009149963135 0.0006962707182 0.0005167183521 0.0003838486547 0.0002857916911)
5(0.0009812819225 0.0007525656224 0.0005618001466 0.0004174239322 0.00031510727)
5(0.001055292248 0.0008106934861 0.0006052886341 0.0004550674404 0.0003455185972)
5(0.001132116711 0.0008675593909 0.0006528266666 0.0004957888294 0.0003813574933)
5(0.001207462225 0.0009241537902 0.0007017866509 0.0005404217533 0.0004231194409)
5(0.001282253586 0.0009823672643 0.0007517496841 0.0005897240967 0.0004711384364)
5(0.001351998007 0.001040372563 0.0008051830307 0.0006474676037 0.0005316875743)
5(0.00141925626 0.001098609112 0.0008650558778 0.0007172597762 0.0006074442137)
5(0.001480060961 0.001159095624 0.0009359920597 0.000807231149 0.0007131766324)
5(0.001539524964 0.001228840252 0.001027413243 0.0009287772367 0.0008531134469)
5(0.001600481507 0.001318124816 0.0011478177 0.001097287878 0.001045199209)
5(0.001674653963 0.001440527889 0.001318165132 0.001324989588 0.001307016207)
5(0.001770744189 0.00161457747 0.001559904631 0.001642346717 0.001666881195)
5(0.001910284197 0.00186908619 0.001899114702 0.002073205548 0.002124604211)
5(0.002127048291 0.002229636159 0.002373714817 0.002631503936 0.002713675167)
5(0.002470160911 0.002743062361 0.002998467142 0.003339650712 0.003420415233)
5(0.002962653387 0.003436947219 0.003801702184 0.004189330328 0.004204065872)
5(0.003650809604 0.004329652513 0.004769719916 0.005130188408 0.004991044492)
5(0.004580466284 0.005423394687 0.005853918516 0.006077859822 0.005657546831)
5(0.00574686094 0.006656959637 0.006959180525 0.00688389647 0.00610185723)
5(0.007122048986 0.007911031576 0.007925977715 0.007383015704 0.006188248043)
5(0.008571587151 0.009014619341 0.008556952714 0.007432893046 0.005875672396)
5(0.009943476885 0.009760559754 0.008655766194 0.006977979843 0.005157338786)
5(0.0109518595 0.009929766924 0.008116482083 0.006048093458 0.004119612258)
5(0.01132714908 0.00937765911 0.006960339089 0.004786719554 0.002963491638)
5(0.01090085056 0.0081030592 0.005422224311 0.003397406276 0.001883737037)
5(0.009594741288 0.006299765038 0.003757295224 0.002132105119 0.001048814936)
5(0.007604332426 0.004329577105 0.002255143427 0.001154279456 0.0004995809391)
5(0.005316026883 0.002562711143 0.001164304225 0.0005341040308 0.0002000632207)
5(0.003186182292 0.001255422745 0.0004974759774 0.0002005393454 6.536643612e-05)
5(0.001531358458 0.0004982038924 0.0001674020824 6.088257566e-05 1.784968808e-05)
5(0.0005718056725 0.0001503771462 4.168946185e-05 1.429708226e-05 3.883594102e-06)
5(0.0001587922207 3.158236221e-05 7.162747944e-06 2.414416279e-06 6.584138416e-07)
5(2.572275862e-05 4.102052273e-06 8.60316496e-07 2.954717816e-07 9.752348559e-08)
5(1.708825197e-06 3.60357818e-07 6.304532924e-08 3.285278205e-08 1.809197033e-08)
5(1.216442629e-07 2.850947993e-08 1.2040516e-08 2.988935091e-08 1.287299343e-08)
5(-1.763299156e-07 2.685944259e-06 9.112154662e-09 2.061255893e-06 3.748565785e-08)
5(7.954726716e-09 1.385035299e-06 -1.020010803e-07 -1.220388248e-08 1.512502187e-08)
)


60
(
5(0.0007497805962 0.0004200783104 0.0003423313123 0.0001904918319 0.0001249338965)
5(0.0006340855206 0.0004135731432 0.0002737386959 0.0001687457414 9.769255446e-05)
5(0.0006012455107 0.0004109226201 0.0002583431386 0.0001636344468 9.363836187e-05)
5(0.0006038641198 0.0004170431807 0.0002641084288 0.0001668530966 9.739902823e-05)
5(0.0006296332001 0.0004285361092 0.0002789124853 0.0001741939989 0.0001055173938)
5(0.0006574270689 0.0004413740675 0.0002922504695 0.0001819886909 0.0001133147863)
5(0.0006767858616 0.0004532386981 0.0003009591182 0.0001895833988 0.0001191044787)
5(0.0006900794178 0.0004668745552 0.0003093112199 0.000197581998 0.0001244026692)
5(0.0007076333552 0.000483006025 0.0003200448601 0.0002077205935 0.0001317282323)
5(0.0007310835259 0.0005033273789 0.0003350606436 0.0002204839218 0.0001420041048)
5(0.0007577269414 0.0005268111953 0.0003548250456 0.0002364315376 0.0001547721927)
5(0.0007921140746 0.0005550588511 0.000378334607 0.0002548969669 0.0001693024175)
5(0.0008319163604 0.0005889893629 0.000405229846 0.0002766520868 0.0001860508683)
5(0.0008798603862 0.0006265880011 0.0004362627661 0.0003010291464 0.0002045104084)
5(0.0009268712052 0.000669750148 0.0004714185618 0.0003287733817 0.0002259405526)
5(0.0009803724956 0.0007178207709 0.0005114315357 0.0003600859121 0.0002497376639)
5(0.001050144663 0.0007728380514 0.0005556175669 0.0003954379754 0.0002763092191)
5(0.001123863467 0.0008345724016 0.0006044891022 0.0004348972097 0.0003047756681)
5(0.001206844978 0.0009027594537 0.0006600081773 0.000476059591 0.0003364819064)
5(0.001300284489 0.0009783878184 0.0007192346001 0.0005217818413 0.000371264699)
5(0.001398773713 0.001060276674 0.0007828378246 0.0005702715269 0.0004077890684)
5(0.001509216811 0.001146917792 0.0008499801233 0.0006202378031 0.0004473010555)
5(0.001627329524 0.001238264957 0.0009210952315 0.0006737952664 0.0004869889901)
5(0.001752187628 0.001332788573 0.0009929452089 0.0007271836077 0.0005303075366)
5(0.001876062056 0.001427999426 0.001064534814 0.0007807148848 0.0005711361561)
5(0.00200202692 0.001523049251 0.001134733008 0.0008333281301 0.000614337375)
5(0.002121398061 0.00160172381 0.001200267301 0.0008854596227 0.000657466045)
5(0.002234530077 0.001681683106 0.00126154053 0.0009354545691 0.0007009144747)
5(0.002342613514 0.001748599575 0.001312645344 0.0009824498256 0.0007479847054)
5(0.002424803262 0.001802056614 0.001357668254 0.001029716583 0.0007973935545)
5(0.002489361748 0.001842494799 0.001398756137 0.001078427731 0.0008639456311)
5(0.002524259389 0.001861184312 0.001432337352 0.001139439494 0.0009513664664)
5(0.002531832696 0.001870814267 0.001472927349 0.001220228235 0.001064230431)
5(0.00251415839 0.00189072803 0.001531912272 0.001343052376 0.001229412449)
5(0.002489109394 0.001914084321 0.001620381712 0.001521839412 0.001474071449)
5(0.002458834668 0.001975594182 0.0017813994 0.00178482462 0.001812333626)
5(0.002442693933 0.002108877209 0.00204727797 0.002168333508 0.002277852852)
5(0.002513734847 0.00235359678 0.002456933788 0.002708855974 0.002894756606)
5(0.002682728831 0.00276309025 0.003055553711 0.003422796086 0.0036567787)
5(0.00304609359 0.003388234955 0.00384852127 0.004306262107 0.004514346487)
5(0.003660177349 0.004275197113 0.004859919375 0.005323019788 0.005384835624)
5(0.004570587381 0.005412864838 0.006036332897 0.006361512054 0.006167447198)
5(0.005821191869 0.006771244461 0.007265617983 0.007256086869 0.006680817584)
5(0.007398749502 0.008214679618 0.008362638214 0.007842075263 0.006837111778)
5(0.009134306814 0.00953958065 0.009072903396 0.007952564191 0.006523299635)
5(0.01083861705 0.01052624178 0.009243405073 0.00751427661 0.005750031101)
5(0.01228036353 0.01086254374 0.008697097778 0.006562077336 0.004610858942)
5(0.01306069305 0.01040971712 0.007465637616 0.005208562442 0.003327169323)
5(0.01288815027 0.009093262175 0.00579583354 0.003691620835 0.002124743472)
5(0.01170131052 0.007135332457 0.003978093976 0.00231775478 0.001176540326)
5(0.009586959403 0.004916976158 0.002361703901 0.001241886557 0.0005556336022)
5(0.006991332116 0.002882487838 0.001176868038 0.0005603652613 0.0002221200672)
5(0.004409008046 0.001432080308 0.0004738648094 0.0001994379796 6.719255716e-05)
5(0.002288036561 0.0005696397817 0.000144614668 5.500353486e-05 1.763916906e-05)
5(0.0008896965959 0.000160068503 3.165194065e-05 1.055659388e-05 3.228460946e-06)
5(0.000289701404 3.15740922e-05 4.338595623e-06 1.389106265e-06 3.683444959e-07)
5(5.547343353e-05 3.633722442e-06 2.824240809e-07 1.287762238e-07 4.901076269e-08)
5(5.23829337e-06 5.50030355e-07 2.481683569e-08 5.811853748e-08 1.743673412e-08)
5(2.174411015e-06 2.659356537e-06 -6.706168719e-08 1.163938301e-06 -3.502862807e-07)
5(1.354677541e-06 -7.029678048e-07 1.051999216e-06 -4.272827871e-07 1.41544906e-08)
)


60
(
5(0.001052622733 0.0006066509046 0.0004687485181 0.0002671345272 0.0001717732941)
5(0.0009395259318 0.0006088901156 0.0003983177109 0.0002450488091 0.0001426731808)
5(0.0009012627092 0.0006073293674 0.0003837889306 0.0002408669882 0.0001390149391)
5(0.0009080942319 0.0006151094659 0.000392295989 0.0002462500853 0.0001454210574)
5(0.0009397229042 0.0006299345475 0.0004099756533 0.0002566064388 0.0001563170419)
5(0.0009737101717 0.0006473234857 0.0004272511843 0.0002684552424 0.0001671953982)
5(0.000997079662 0.0006654495695 0.0004412391149 0.0002799340256 0.0001766441413)
5(0.001019246062 0.0006854429723 0.0004550402322 0.0002929535469 0.0001858320987)
5(0.00104313072 0.0007097456094 0.0004731704026 0.0003094640961 0.0001981410465)
5(0.001076531518 0.000739843801 0.0004970113919 0.0003300563183 0.000214173275)
5(0.001119940282 0.0007764902842 0.0005275955199 0.0003547836721 0.0002340263375)
5(0.00116750061 0.0008193533212 0.000563311887 0.0003836194012 0.0002567065222)
5(0.001225718674 0.0008695607856 0.0006049331068 0.0004174131891 0.0002830086783)
5(0.001291271005 0.0009266244204 0.0006522831825 0.0004558310929 0.0003110619363)
5(0.001371606581 0.0009919614573 0.0007068700984 0.0004989160727 0.0003449504786)
5(0.001457271191 0.001067202062 0.0007687893249 0.0005467993643 0.0003808122366)
5(0.001552942761 0.001150444206 0.0008373138739 0.0006011416683 0.000422646393)
5(0.001669623995 0.001244272636 0.0009126741317 0.0006595465194 0.0004666194923)
5(0.001787140115 0.001348026682 0.0009960354039 0.0007244928133 0.0005153504391)
5(0.001931178192 0.001460369171 0.001085916359 0.0007934083787 0.0005675380772)
5(0.002083229296 0.00158142365 0.001183542186 0.0008677144264 0.000622361144)
5(0.002234007746 0.001712293142 0.001284343629 0.0009441956012 0.0006800580586)
5(0.002410480042 0.001847423627 0.001390733119 0.001023688547 0.0007395897204)
5(0.002602145079 0.001985847962 0.00149560165 0.00110428134 0.0007997031646)
5(0.002781682039 0.00212217169 0.001603161347 0.00118340219 0.0008628648519)
5(0.002967969722 0.002257658792 0.001707973846 0.001258331944 0.0009184472722)
5(0.003152669462 0.002387324513 0.001803557639 0.001327689298 0.0009708587579)
5(0.003318609482 0.002503400318 0.001886395442 0.001389675017 0.001021858558)
5(0.003458534424 0.002596220411 0.001953069814 0.001439062857 0.00106251754)
5(0.003581331819 0.002663049839 0.002003413963 0.001478066162 0.001100439262)
5(0.003670220652 0.002706205862 0.002030936968 0.001505493155 0.001136171976)
5(0.003711159307 0.002714482283 0.002031774452 0.001520695955 0.001174111442)
5(0.003700713788 0.002686100575 0.002022325774 0.001533097076 0.001219265049)
5(0.00362696447 0.002621208503 0.00199417692 0.001560468844 0.001312198039)
5(0.003521079325 0.002530703711 0.001969813462 0.001613510381 0.001427896843)
5(0.003366346052 0.002443955968 0.001976110217 0.00172468699 0.001639231574)
5(0.00318689467 0.002392690319 0.002042528129 0.001934416794 0.00195421689)
5(0.003014541312 0.002404535976 0.002232347161 0.002269930455 0.00241797314)
5(0.002913374538 0.002537966896 0.00257452253 0.002783669025 0.003062256546)
5(0.002958732636 0.002862874941 0.003133877984 0.003508264817 0.003871670558)
5(0.003198539615 0.003446174508 0.003950850896 0.00443680569 0.004775563466)
5(0.003775385221 0.004344985528 0.005029339601 0.005512803529 0.005739530388)
5(0.004708744111 0.005570218924 0.006314012033 0.006627202559 0.006571546367)
5(0.006086285517 0.00707492576 0.007677289238 0.00761656801 0.007140118806)
5(0.007875377147 0.008745765343 0.008897338105 0.008264516428 0.007289874224)
5(0.009930624343 0.01037001081 0.009745203502 0.008403472409 0.006948273765)
5(0.01190634153 0.01162467465 0.009965543343 0.007932788902 0.006076961194)
5(0.01380595098 0.01218017502 0.009372818144 0.006901214728 0.004848332796)
5(0.01497442021 0.01183278487 0.008064671358 0.005434305972 0.003451899207)
5(0.01509190699 0.010500949 0.006255353348 0.003803648177 0.002159717405)
5(0.01411461682 0.008379302791 0.004247119309 0.002320251515 0.001167548792)
5(0.01199343799 0.005987104192 0.002468960421 0.00120522149 0.0005365585389)
5(0.009090597405 0.003577074021 0.001208061817 0.0005018349896 0.0001962825354)
5(0.006189179788 0.001802580842 0.0004549817238 0.0001702914279 5.80326029e-05)
5(0.003400091307 0.0007351279266 0.0001262091565 4.044366547e-05 1.182984738e-05)
5(0.001698500821 0.0002178592929 1.974464557e-05 6.175471446e-06 1.656970976e-06)
5(0.0006020390931 5.510767407e-05 3.008444722e-06 5.526886609e-07 1.340460712e-07)
5(0.0001743027852 6.166998261e-06 1.832879714e-07 1.056008947e-07 2.662792751e-08)
5(4.044793806e-05 -2.452821768e-06 1.800394513e-07 -2.041083594e-06 -2.138940391e-07)
5(4.627512165e-05 -4.958167682e-07 5.671126957e-06 -8.069094143e-07 3.049120906e-08)
)


60
(
5(0.001373796905 0.0008092296114 0.0006026525568 0.0003513283803 0.0002245968215)
5(0.00126412085 0.0008210860053 0.000531964206 0.0003292981124 0.0001942486025)
5(0.001219859187 0.0008178500653 0.0005188377886 0.0003264586572 0.0001916197575)
5(0.001229326155 0.0008249103552 0.0005300191236 0.0003340321347 0.0001999653229)
5(0.001266505671 0.0008425290587 0.000551280525 0.0003476623297 0.0002147439488)
5(0.00130568387 0.0008652960035 0.000572277622 0.0003631244538 0.000229425779)
5(0.001332310643 0.0008883538886 0.0005913294731 0.0003794466387 0.0002418895422)
5(0.001361871798 0.0009155409887 0.0006112547739 0.0003985017495 0.0002565225741)
5(0.0013934966 0.0009495231868 0.0006375008799 0.0004220729397 0.0002740411771)
5(0.001441652327 0.000989512278 0.0006711451976 0.0004512732654 0.0002978095083)
5(0.001496959517 0.001039926796 0.0007139892825 0.0004861688778 0.0003252509808)
5(0.001564754047 0.001097171808 0.0007634821261 0.0005272317809 0.0003577308415)
5(0.001642972335 0.001165055353 0.0008221324525 0.0005742326079 0.0003938689537)
5(0.001729539956 0.001244035837 0.000887158642 0.0006277874047 0.0004352358144)
5(0.001837833589 0.001335313966 0.0009628994856 0.0006882104984 0.0004812306704)
5(0.001958066801 0.0014377532 0.001046484662 0.0007552058258 0.0005327854133)
5(0.002092549285 0.001552412935 0.00114300997 0.0008299023515 0.0005902080523)
5(0.002239210719 0.001680015251 0.001248693076 0.0009107537897 0.0006535917482)
5(0.002416816641 0.001821984877 0.001363286066 0.001002587675 0.0007205372355)
5(0.002596449697 0.001974512515 0.001487247607 0.001098800411 0.0007951035567)
5(0.00280288128 0.002137585834 0.001619562988 0.001201749149 0.0008704940152)
5(0.00302867597 0.002317022712 0.001760679451 0.001309445295 0.0009526511105)
5(0.003247927869 0.002500790173 0.001905994222 0.001418995128 0.001036291502)
5(0.003502387794 0.002688249178 0.002055345898 0.001531424541 0.001120584448)
5(0.003753423457 0.002879102402 0.002205786331 0.001642438214 0.001207249102)
5(0.00399377992 0.00306002318 0.002347127766 0.001749652717 0.001282599633)
5(0.004255558151 0.003245195816 0.002480888858 0.001847853526 0.00136034083)
5(0.004479560192 0.003409026624 0.002601713457 0.00193221516 0.001425046909)
5(0.004672316543 0.003541709221 0.002699190692 0.002000429538 0.001472198499)
5(0.004852700821 0.0036440402 0.002768864565 0.002048303107 0.001511792387)
5(0.004989887139 0.003713640908 0.002804356393 0.002069538949 0.00153476278)
5(0.005041811042 0.003732473584 0.002800693142 0.002060878138 0.001538623417)
5(0.005034734013 0.003693517552 0.002755689179 0.002034464919 0.001536395593)
5(0.004963070154 0.003588266646 0.002675951893 0.00199257536 0.001549240632)
5(0.00479779956 0.003435133073 0.002576133924 0.001951715686 0.001581235191)
5(0.004553485279 0.003244160018 0.002463231127 0.001938266881 0.001657574828)
5(0.004259207035 0.003034369702 0.002364077664 0.001985231695 0.001831611683)
5(0.003926589771 0.002845496697 0.002340724219 0.002120708142 0.002123770736)
5(0.003597257416 0.002728970386 0.002441621328 0.0024138184 0.002587798026)
5(0.003342267507 0.00276345659 0.002741462853 0.002920320747 0.003266338857)
5(0.003253269815 0.003030158114 0.003288840712 0.003661243368 0.004128662249)
5(0.003431536987 0.003607629585 0.004139520843 0.0046478713 0.005111990369)
5(0.003966312121 0.004557392376 0.005313379816 0.005823286303 0.006152588599)
5(0.004982136385 0.005928806681 0.006742031472 0.007024337518 0.007035188523)
5(0.006506563558 0.00765930287 0.008326863466 0.008119639343 0.007652489779)
5(0.008498848359 0.009615913464 0.009741517307 0.008843462051 0.007770076828)
5(0.01082070234 0.01154024432 0.01074603103 0.009000855117 0.007344575767)
5(0.01314125426 0.01310368014 0.01106791124 0.008509579551 0.006372171352)
5(0.0152938489 0.01394694285 0.01053105914 0.007375431108 0.005030259586)
5(0.01675144685 0.01371089407 0.009143941223 0.005761141226 0.003523896936)
5(0.01725881297 0.01240758356 0.007139707094 0.003996046867 0.002153611749)
5(0.01657839086 0.01019059972 0.004889631218 0.002408646946 0.001106664298)
5(0.01480613104 0.007406468042 0.002905768086 0.001201768351 0.0004907166682)
5(0.01194349353 0.004746887849 0.001371980849 0.0004891625422 0.0001591201911)
5(0.008710793699 0.002653160725 0.0005239526447 0.0001473092085 4.073949231e-05)
5(0.005281061801 0.001166979825 0.0001654142461 3.113304038e-05 7.034525827e-06)
5(0.002998775278 0.000420948138 2.877945777e-05 4.113381644e-06 5.943402943e-07)
5(0.001485345839 0.0001023035979 4.400075812e-06 3.479255439e-07 5.150193555e-08)
5(0.0006779162969 2.957629949e-05 1.676302728e-06 -8.185007866e-07 2.880549666e-08)
5(0.0007634348266 7.970423917e-05 8.119235685e-07 -1.749752135e-06 3.40638231e-08)
)


60
(
5(0.001713862817 0.00103018718 0.0007455159787 0.0004423643899 0.0002841193903)
5(0.001609880844 0.001048186359 0.0006738751339 0.0004210257824 0.0002518681531)
5(0.001558487619 0.001037916806 0.0006621678955 0.0004196075545 0.0002511476449)