/*--------------------------------*- C++ -*----------------------------------*\
| =========                 |                                                 |
| \\      /  F ield         | OpenFOAM: The Open Source CFD Toolbox           |
|  \\    /   O peration     | Version:  2.3.1                                 |
|   \\  /    A nd           | Web:      www.OpenFOAM.org                      |
|    \\/     M anipulation  |                                                 |
\*---------------------------------------------------------------------------*/
FoamFile
{
    version     2.0;
    format      ascii;
    class       dictionary;
    location    "constant";
    object      PM54;
}
// * * * * * * * * * * * * * * * * * * * * * * * * * * * * * * * * * * * * * //

PM54_table
60
(

60
(
5(-6.68392863e-06 -2.742702628e-06 -4.096212184e-06 -8.97283844e-06 -3.411717172e-06)
5(3.975420993e-05 -1.536423191e-05 -1.147573607e-05 -9.648980493e-06 5.78638905e-06)
5(1.732675391e-05 -1.882891229e-05 -1.208181934e-05 -6.859713862e-06 -7.13059195e-06)
5(1.295239411e-05 -2.416022787e-05 -1.130975574e-05 -1.068022386e-05 -4.925027331e-06)
5(5.249657628e-06 -3.03515045e-05 -1.069631121e-05 -1.035608202e-05 -6.189105401e-06)
5(-2.637495716e-05 -3.193881968e-05 -1.239376305e-05 -1.011908541e-05 -7.604042161e-06)
5(-5.040916592e-05 -1.650547147e-05 -1.406741544e-05 -1.106778047e-05 -7.841607544e-06)
5(1.660524999e-05 -1.759400781e-05 -1.404533351e-05 -1.10989034e-05 -8.031833428e-06)
5(3.717352219e-05 -3.556731862e-05 -1.436803433e-05 -1.159620193e-05 -8.970428703e-06)
5(8.366833949e-06 -4.533701918e-05 -1.487013953e-05 -1.216947915e-05 -9.283549897e-06)
5(-4.82551823e-05 -5.010454006e-05 -1.564240806e-05 -1.288629368e-05 -9.785958324e-06)
5(-8.359974313e-05 -3.26956982e-05 -1.654173664e-05 -1.365759513e-05 -1.045757065e-05)
5(-4.770788759e-05 -2.174814182e-05 -1.780065706e-05 -1.454711676e-05 -1.14177369e-05)
5(-2.738195176e-05 -2.305776319e-05 -1.893255353e-05 -1.569721161e-05 -1.235356469e-05)
5(-2.677982123e-05 -2.395881934e-05 -2.025980108e-05 -1.700212261e-05 -1.359034734e-05)
5(-2.807809971e-05 -2.648456462e-05 -2.200310039e-05 -1.866095677e-05 -1.515216176e-05)
5(-3.42145294e-05 -2.972229796e-05 -2.445267135e-05 -2.090944927e-05 -1.689908133e-05)
5(-3.79720252e-05 -3.215769513e-05 -2.730906492e-05 -2.305528785e-05 -1.874629011e-05)
5(-4.022438467e-05 -3.518638001e-05 -2.980735295e-05 -2.578175377e-05 -2.107573592e-05)
5(-4.333870524e-05 -3.879324841e-05 -3.321539451e-05 -2.911864767e-05 -2.441217553e-05)
5(-4.778667304e-05 -4.32458859e-05 -3.750181349e-05 -3.339079113e-05 -2.846587145e-05)
5(-5.326124836e-05 -4.892354461e-05 -4.26726461e-05 -3.907456499e-05 -3.327656589e-05)
5(-5.947788783e-05 -5.5591262e-05 -4.969537019e-05 -4.60675111e-05 -3.979561392e-05)
5(-6.701717129e-05 -6.293538075e-05 -5.819701156e-05 -5.465669267e-05 -4.78022969e-05)
5(-7.555673853e-05 -7.095722233e-05 -6.900372622e-05 -6.574812439e-05 -5.877819775e-05)
5(-8.549933358e-05 -8.423825614e-05 -8.352823371e-05 -8.013455125e-05 -7.349534322e-05)
5(-0.0001007295288 -0.0001061119553 -0.0001017445727 -9.957366437e-05 -9.357950929e-05)
5(-0.0001215182002 -0.000130466957 -0.0001248659237 -0.0001264515917 -0.0001205766302)
5(-0.0001450955788 -0.000157796056 -0.0001586375631 -0.0001643267493 -0.0001577852526)
5(-0.0001755586545 -0.0001962165207 -0.0002033071564 -0.0002153248345 -0.0002080478309)
5(-0.0002162440498 -0.0002490661795 -0.0002645251487 -0.0002848426371 -0.0002793308974)
5(-0.0002728884855 -0.0003215762401 -0.0003483723839 -0.0003789399752 -0.0003704723791)
5(-0.0003465943597 -0.0004131634696 -0.0004538736293 -0.0005034063371 -0.0004885625885)
5(-0.0004432408411 -0.0005363694499 -0.0005948740031 -0.0006624504379 -0.0006452033896)
5(-0.0005760763023 -0.0006968170625 -0.0007699370934 -0.0008564180339 -0.0008244544639)
5(-0.0007431509688 -0.0008972822159 -0.00100182085 -0.001096801781 -0.001018248437)
5(-0.0009757946655 -0.001177625162 -0.001323842813 -0.001357235417 -0.001199762474)
5(-0.00123937181 -0.001460182224 -0.001616056162 -0.001583172556 -0.001379606757)
5(-0.001549078897 -0.00180147792 -0.001901969416 -0.001855809229 -0.001302721653)
5(-0.001895560965 -0.002155478356 -0.002190563253 -0.001756283354 -0.000420451987)
5(-0.002308487861 -0.002517634739 -0.002452001273 -0.001610759884 -0.0009946754688)
5(-0.002658356666 -0.002755126215 -0.00245628801 -0.001065467963 -0.0009883388084)
5(-0.002907670676 -0.002868515297 -0.002174270867 -0.00115635397 -0.0009296612385)
5(-0.002973145641 -0.002707851615 -0.001802689464 -0.001149344743 -0.0006769845004)
5(-0.00288402726 -0.002455171383 -0.001447805204 -0.0008280785237 -0.0004440660948)
5(-0.002599548196 -0.001973067366 -0.0007762096633 -0.0005435590606 -0.000251808285)
5(-0.002087823651 -0.001314342876 -0.0004785978666 -0.0003552256393 -0.0001234197366)
5(-0.001536524767 -0.0008736579271 -0.0003998740995 -0.0001839072585 -5.111278839e-05)
5(-0.0009930999827 -0.0003597659748 -0.0002136795077 -7.832027593e-05 -1.798497974e-05)
5(-0.0002319710304 -0.0001805386033 -0.0001038724971 -2.757227716e-05 -5.498659981e-06)
5(-8.377980096e-05 -0.0001020411899 -3.625954639e-05 -8.346015777e-06 -1.45850478e-06)
5(-9.771144607e-05 -3.80526971e-05 -1.033426596e-05 -2.123482242e-06 -3.423813592e-07)
5(-3.699427578e-05 -1.015439812e-05 -2.445139022e-06 -4.612057585e-07 -7.044323182e-08)
5(-8.210278802e-06 -1.951497845e-06 -4.39166777e-07 -8.377849715e-08 -1.346367447e-08)
5(-1.27412867e-06 -2.992975598e-07 -6.302701517e-08 -1.260286445e-08 -2.459494896e-09)
5(-1.125436893e-07 -2.683785459e-08 -7.184058473e-09 -1.762311661e-09 -7.85636141e-10)
5(-5.689406148e-09 -2.255719444e-09 -8.564903921e-10 -5.152916818e-10 -5.64635571e-10)
5(-1.233732245e-10 -3.260828792e-10 -3.805404505e-10 -2.028148324e-10 -4.36075614e-10)
5(4.173569006e-10 1.144002263e-10 6.919647211e-11 -6.353272206e-10 -5.772017522e-10)
5(9.332781399e-10 1.465656371e-09 1.433695226e-07 3.213663575e-09 4.121738047e-09)
)


60
(
5(-2.164587168e-05 -1.878502556e-05 -1.213108099e-05 -1.097220314e-05 -6.250444799e-06)
5(-2.420007889e-05 -2.074094014e-05 -1.457966712e-05 -1.144040859e-05 -7.782504117e-06)
5(-2.042803696e-05 -1.944137392e-05 -1.468734113e-05 -1.185725182e-05 -9.570878665e-06)
5(-7.937680175e-06 -1.921074702e-05 -1.399981746e-05 -1.262769795e-05 -7.008392857e-06)
5(-2.805171022e-06 -2.028173232e-05 -1.506639047e-05 -1.2357515e-05 -8.934532764e-06)
5(-7.371905481e-06 -2.149439032e-05 -1.76315471e-05 -1.299938011e-05 -1.005666198e-05)
5(-2.824486448e-05 -2.236991052e-05 -1.795360001e-05 -1.387923869e-05 -9.522869924e-06)
5(-3.029702561e-05 -2.290858882e-05 -1.765824829e-05 -1.392832444e-05 -1.07678349e-05)
5(-7.569394822e-06 -2.344598246e-05 -1.827492968e-05 -1.419379492e-05 -1.069041394e-05)
5(4.052732846e-06 -2.399063309e-05 -1.837959323e-05 -1.483341088e-05 -1.101940708e-05)
5(5.804500468e-06 -2.493232213e-05 -1.92308534e-05 -1.549216659e-05 -1.163420377e-05)
5(-1.966153305e-05 -2.628060756e-05 -2.057851341e-05 -1.633491246e-05 -1.247886736e-05)
5(-3.55982008e-05 -2.750293196e-05 -2.174347831e-05 -1.71711248e-05 -1.321259321e-05)
5(-3.682865736e-05 -2.884411526e-05 -2.290387952e-05 -1.847319244e-05 -1.423498897e-05)
5(-3.914422803e-05 -3.065996198e-05 -2.447980771e-05 -1.960986236e-05 -1.533026119e-05)
5(-3.968046747e-05 -3.210749709e-05 -2.59226334e-05 -2.097437487e-05 -1.651809423e-05)
5(-4.207289721e-05 -3.436072184e-05 -2.765394036e-05 -2.255169252e-05 -1.784351812e-05)
5(-4.574801801e-05 -3.68194097e-05 -2.978582719e-05 -2.42603017e-05 -1.942742632e-05)
5(-4.939425574e-05 -3.953666506e-05 -3.201765398e-05 -2.629811781e-05 -2.115572083e-05)
5(-5.249081452e-05 -4.227642792e-05 -3.431503327e-05 -2.824953452e-05 -2.30966369e-05)
5(-5.629894871e-05 -4.551377802e-05 -3.705245787e-05 -3.063512641e-05 -2.51961063e-05)
5(-6.010170465e-05 -4.874717159e-05 -3.962865615e-05 -3.366554899e-05 -2.779816233e-05)
5(-6.388459147e-05 -5.181675027e-05 -4.233514473e-05 -3.570242069e-05 -2.990484727e-05)
5(-6.766267374e-05 -5.449584335e-05 -4.475766375e-05 -3.817249993e-05 -3.238845665e-05)
5(-7.101077298e-05 -5.67243858e-05 -4.683636445e-05 -4.024295243e-05 -3.44808603e-05)
5(-7.359198899e-05 -5.791170525e-05 -4.792403276e-05 -4.167600766e-05 -3.675665824e-05)
5(-7.498514577e-05 -5.942150737e-05 -4.874188651e-05 -4.281237723e-05 -3.944614195e-05)
5(-7.500356911e-05 -6.005332566e-05 -4.766932816e-05 -4.389323481e-05 -4.275840602e-05)
5(-7.165354453e-05 -5.769244251e-05 -4.623180418e-05 -4.566362405e-05 -4.741036523e-05)
5(-6.570024326e-05 -5.301871062e-05 -4.402493212e-05 -4.96480241e-05 -5.629962049e-05)
5(-5.59421373e-05 -4.70455118e-05 -4.187212105e-05 -5.657870234e-05 -7.15496561e-05)
5(-4.418054609e-05 -4.329921899e-05 -4.584068533e-05 -7.513293432e-05 -0.0001016115042)
5(-3.228941762e-05 -4.198017179e-05 -5.657713693e-05 -0.0001062993969 -0.0001440504497)
5(-2.170019555e-05 -4.742563659e-05 -8.084444426e-05 -0.0001638925955 -0.0002292855565)
5(-1.87331417e-05 -7.242486961e-05 -0.0001359343764 -0.0002578914335 -0.0003480080629)
5(-3.538851361e-05 -0.0001188846356 -0.0002175034267 -0.0003996821086 -0.0005207915483)
5(-8.53465804e-05 -0.0002230383343 -0.0003917238804 -0.0006201233318 -0.0007526649466)
5(-0.0001808292906 -0.0003672071041 -0.000616397177 -0.000892571056 -0.001106408213)
5(-0.0003415037057 -0.0005936989787 -0.000904348969 -0.00125007974 -0.001384733582)
5(-0.0005670450827 -0.0008894541953 -0.001248684338 -0.001625877935 -0.001992535607)
5(-0.0009005439566 -0.001287308741 -0.001711213935 -0.002026636585 -0.002293809397)
5(-0.001322671143 -0.001712572044 -0.002150859053 -0.002503196934 -0.002453865241)
5(-0.00178275098 -0.002179480913 -0.002544891264 -0.0029764895 -0.002399528532)
5(-0.00222630899 -0.002485744897 -0.002542377271 -0.002882635259 -0.002117585323)
5(-0.002566901546 -0.002689156768 -0.002586588227 -0.00251827758 -0.001697010194)
5(-0.002778440837 -0.002628758991 -0.002406085417 -0.001981235921 -0.001188812534)
5(-0.002727165154 -0.002422644959 -0.002268280801 -0.001369983259 -0.0007219639664)
5(-0.00242873346 -0.002089994363 -0.001651553393 -0.0008221869902 -0.0003730317147)
5(-0.001886242761 -0.001436335476 -0.0009974052328 -0.0004192227394 -0.0001614302698)
5(-0.001274747032 -0.001057634563 -0.0005060965795 -0.00017775555 -5.767340674e-05)
5(-0.000753724877 -0.0005245933385 -0.000211224185 -6.166535736e-05 -1.739756837e-05)
5(-0.0004334067059 -0.0002071797287 -6.975944535e-05 -1.744247194e-05 -4.467360364e-06)
5(-0.000166526746 -6.471131076e-05 -1.820028135e-05 -4.062304262e-06 -9.71551269e-07)
5(-4.5450653e-05 -1.464600767e-05 -3.565864689e-06 -7.341120145e-07 -1.747503049e-07)
5(-8.278847483e-06 -2.295957101e-06 -5.28045504e-07 -1.078651681e-07 -2.673306658e-08)
5(-9.137821503e-07 -2.428378077e-07 -5.270842182e-08 -1.209272013e-08 -3.169682215e-09)
5(-5.082722391e-08 -1.439728589e-08 -4.121489009e-09 -9.086965883e-10 -3.973232812e-10)
5(-1.377160186e-09 -5.143817113e-10 -1.902413422e-10 1.529343606e-10 -6.051125922e-12)
5(9.025504572e-10 -5.10674634e-08 1.353170883e-08 1.94521334e-08 4.052472808e-10)
5(1.854574154e-09 6.990787869e-08 2.095467794e-07 -5.84574902e-08 4.848428197e-09)
)


60
(
5(-2.353727502e-05 -1.952037876e-05 -1.284016269e-05 -1.128390842e-05 -6.784178892e-06)
5(-2.580007481e-05 -1.920306604e-05 -1.429361175e-05 -1.072329988e-05 -7.689648181e-06)
5(-2.651743577e-05 -1.877555955e-05 -1.454893838e-05 -1.044662685e-05 -7.794056903e-06)
5(-2.696320588e-05 -1.882103184e-05 -1.474433912e-05 -1.048318487e-05 -7.91629999e-06)
5(-2.737314839e-05 -1.912006279e-05 -1.481157759e-05 -1.067676505e-05 -7.98944972e-06)
5(-2.735770766e-05 -1.94715051e-05 -1.479500843e-05 -1.097949029e-05 -8.022160525e-06)
5(-2.736974865e-05 -1.967068157e-05 -1.497292077e-05 -1.110741389e-05 -8.079631663e-06)
5(-2.77553365e-05 -1.991311767e-05 -1.512580502e-05 -1.118371612e-05 -8.196327133e-06)
5(-2.815386039e-05 -2.01876199e-05 -1.539538328e-05 -1.135987976e-05 -8.420666813e-06)
5(-2.833059565e-05 -2.04566043e-05 -1.570046161e-05 -1.158936455e-05 -8.730498544e-06)
5(-2.889746368e-05 -2.078988034e-05 -1.60800289e-05 -1.186797129e-05 -8.974479253e-06)
5(-2.938704874e-05 -2.134149306e-05 -1.642346474e-05 -1.2221199e-05 -9.265861209e-06)
5(-2.994005019e-05 -2.185005676e-05 -1.685387478e-05 -1.264520179e-05 -9.657483287e-06)
5(-3.054978178e-05 -2.241063493e-05 -1.735401067e-05 -1.303067354e-05 -1.006057547e-05)
5(-3.117903427e-05 -2.301383688e-05 -1.792503468e-05 -1.347817039e-05 -1.047546331e-05)
5(-3.208969918e-05 -2.363785454e-05 -1.847896843e-05 -1.396730816e-05 -1.095703122e-05)
5(-3.295654227e-05 -2.422254345e-05 -1.903633732e-05 -1.440149253e-05 -1.136433472e-05)
5(-3.363671339e-05 -2.482570417e-05 -1.956057362e-05 -1.47458874e-05 -1.168429018e-05)
5(-3.448424013e-05 -2.546526714e-05 -1.994909069e-05 -1.495697609e-05 -1.20015424e-05)
5(-3.502274882e-05 -2.584929302e-05 -2.012082897e-05 -1.493679041e-05 -1.209895394e-05)
5(-3.589797013e-05 -2.605053985e-05 -1.994328358e-05 -1.461370228e-05 -1.184806817e-05)
5(-3.630841895e-05 -2.554461554e-05 -1.931090445e-05 -1.35775308e-05 -1.106276831e-05)
5(-3.590597222e-05 -2.447197045e-05 -1.79658513e-05 -1.177801526e-05 -9.544654773e-06)
5(-3.4299161e-05 -2.225463788e-05 -1.508672321e-05 -8.710755439e-06 -6.878405615e-06)
5(-3.187319798e-05 -1.84908757e-05 -1.06461431e-05 -3.60597394e-06 -2.436053237e-06)
5(-2.684657558e-05 -1.220755868e-05 -3.221323243e-06 4.03241844e-06 4.303014178e-06)
5(-1.865730092e-05 -3.071377483e-06 7.011633193e-06 1.508867242e-05 1.407682355e-05)
5(-7.629599452e-06 1.051767377e-05 2.211672829e-05 3.105222433e-05 2.790020663e-05)
5(9.913621351e-06 3.036269522e-05 4.3628876e-05 5.281126966e-05 4.748183464e-05)
5(3.407204625e-05 5.672184922e-05 7.220189728e-05 8.172283836e-05 7.179210058e-05)
5(6.695951749e-05 9.254269986e-05 0.0001099147707 0.0001180443486 0.0001010801866)
5(0.0001109864651 0.0001387435274 0.0001571247449 0.0001622990685 0.00013553962)
5(0.0001668742301 0.0001951684759 0.0002135483312 0.0002109162539 0.0001705326133)
5(0.0002341393575 0.0002622861161 0.0002772673494 0.0002614620731 0.0002027475822)
5(0.000314027198 0.0003384881887 0.0003426716633 0.0003062914117 0.0002209332194)
5(0.0004020271412 0.0004157117365 0.0004022166685 0.0003354195109 0.0002149458767)
5(0.0004868819925 0.0004869470627 0.0004447743416 0.0003319861869 0.0001700351237)
5(0.0005698461394 0.0005426491257 0.0004518270672 0.0002822538332 7.225589648e-05)
5(0.000627717333 0.0005597816812 0.0004095221064 0.0001725239427 -8.976206859e-05)
5(0.0006444348378 0.0005282609057 0.0003022348636 -9.995987031e-06 -0.0003147862086)
5(0.0006052195688 0.0004277028457 0.0001154869905 -0.0002596545466 -0.0005959621837)
5(0.0004951639064 0.0002578799592 -0.0001380433115 -0.0005549391456 -0.0008895591737)
5(0.000310863164 1.333308323e-05 -0.0004375393565 -0.0008569960654 -0.001143156307)
5(7.088001427e-05 -0.0002820161957 -0.0007399954997 -0.001110699189 -0.001294439668)
5(-0.000203318238 -0.0005758947244 -0.0009906068775 -0.001254078939 -0.001297560197)
5(-0.0004669953107 -0.000813815794 -0.001129412706 -0.001249643621 -0.001154806097)
5(-0.0006481498405 -0.0009459099694 -0.001135227259 -0.001088127418 -0.0008965619861)
5(-0.0007183391893 -0.0009468961059 -0.00099216593 -0.0008226370121 -0.0006055773408)
5(-0.0006477251361 -0.0008122489133 -0.0007501291058 -0.0005336695823 -0.0003487214792)
5(-0.0004846920485 -0.0005980011689 -0.0004845380256 -0.0002923352807 -0.0001664489693)
5(-0.0002869212159 -0.0003745217763 -0.0002589631757 -0.0001311961738 -6.615570949e-05)
5(-0.0001234621747 -0.000190710626 -0.0001112824602 -4.769012873e-05 -2.056114759e-05)
5(-3.529112857e-05 -7.494446569e-05 -3.715927049e-05 -1.347671856e-05 -5.255728081e-06)
5(-2.866311625e-06 -2.165907116e-05 -9.389726709e-06 -2.890477604e-06 -1.017719632e-06)
5(2.208032391e-06 -4.498465006e-06 -1.672369218e-06 -4.655176579e-07 -1.60573666e-07)
5(4.090147223e-07 -6.081088934e-07 -2.094932868e-07 -5.660928004e-08 -1.904906182e-08)
5(-5.043165153e-08 -4.911430446e-08 -1.468668555e-08 -4.254534075e-09 -5.576475669e-10)
5(2.388012506e-09 -2.762690713e-08 3.699780672e-10 -1.615388218e-08 1.593766485e-09)
5(-1.665137348e-07 3.447574231e-07 6.208092706e-08 1.423554989e-07 8.42543169e-08)
5(2.688253327e-09 6.537190984e-07 1.758627945e-08 -3.352838567e-08 3.883237676e-09)
)


60
(
5(-2.322444111e-05 -1.994936023e-05 -1.290164741e-05 -1.191008762e-05 -7.647530319e-06)
5(-2.528466686e-05 -1.93508438e-05 -1.429877174e-05 -1.112047143e-05 -8.394185884e-06)
5(-2.598716865e-05 -1.840568562e-05 -1.46190552e-05 -1.071459372e-05 -8.447415167e-06)
5(-2.608938397e-05 -1.801424741e-05 -1.464050221e-05 -1.066005436e-05 -8.531978186e-06)
5(-2.55367518e-05 -1.795382212e-05 -1.438686358e-05 -1.075787616e-05 -8.503455117e-06)
5(-2.476760583e-05 -1.797578436e-05 -1.413231489e-05 -1.086497481e-05 -8.443300964e-06)
5(-2.414851437e-05 -1.788988615e-05 -1.392092894e-05 -1.077078903e-05 -8.384779766e-06)
5(-2.371330054e-05 -1.75690227e-05 -1.378256088e-05 -1.066375567e-05 -8.356799697e-06)
5(-2.32601831e-05 -1.727471388e-05 -1.365967598e-05 -1.048109607e-05 -8.358913181e-06)
5(-2.293134343e-05 -1.691953049e-05 -1.352200739e-05 -1.032156243e-05 -8.316610949e-06)
5(-2.241166541e-05 -1.658277157e-05 -1.322818771e-05 -1.009459906e-05 -8.289556164e-06)
5(-2.176500382e-05 -1.624386189e-05 -1.28793483e-05 -9.974378538e-06 -8.292410901e-06)
5(-2.112444318e-05 -1.571922264e-05 -1.255019048e-05 -9.78449114e-06 -8.172795736e-06)
5(-2.033279698e-05 -1.511542864e-05 -1.219898519e-05 -9.478629655e-06 -8.096837863e-06)
5(-1.93017272e-05 -1.448143928e-05 -1.175022583e-05 -9.130310673e-06 -8.094099892e-06)
5(-1.830938066e-05 -1.375455517e-05 -1.108757912e-05 -8.713130845e-06 -7.913882505e-06)
5(-1.719666457e-05 -1.27669922e-05 -1.021805107e-05 -8.0751058e-06 -7.674632111e-06)
5(-1.535693495e-05 -1.147913609e-05 -9.340610855e-06 -7.204891716e-06 -7.313456015e-06)
5(-1.387657641e-05 -1.013995063e-05 -7.916815181e-06 -6.238568576e-06 -6.726586865e-06)
5(-1.15945846e-05 -8.019071385e-06 -6.402520409e-06 -4.960313183e-06 -5.980972717e-06)
5(-8.613330205e-06 -5.841937149e-06 -4.496482322e-06 -3.045763399e-06 -4.309865682e-06)
5(-5.69835068e-06 -3.173466608e-06 -1.578286066e-06 -3.839912592e-07 -2.137858044e-06)
5(-2.68833362e-06 8.878056322e-07 2.465415933e-06 3.257410537e-06 8.01685119e-07)
5(3.404616046e-06 6.480501704e-06 7.332526871e-06 8.426828228e-06 5.369958375e-06)
5(1.04953743e-05 1.278206508e-05 1.410536103e-05 1.571941112e-05 1.165811534e-05)
5(1.935647518e-05 2.191617257e-05 2.416485044e-05 2.618296349e-05 2.151795222e-05)
5(3.095569526e-05 3.3563968e-05 3.769087358e-05 4.064071081e-05 3.496112743e-05)
5(4.626735662e-05 5.06732983e-05 5.645046987e-05 6.070790571e-05 5.324491079e-05)
5(6.801294761e-05 7.307071862e-05 8.155948454e-05 8.733692317e-05 7.849504089e-05)
5(9.612827898e-05 0.0001029803083 0.0001153042743 0.000122715455 0.0001114428723)
5(0.0001334712787 0.0001429365186 0.0001597089197 0.0001685586239 0.0001541621682)
5(0.0001811214506 0.0001934212995 0.0002147429633 0.0002250093867 0.0002051270911)
5(0.0002413973122 0.0002560797068 0.0002829933137 0.0002921303167 0.0002626493697)
5(0.0003157072403 0.000333989074 0.000363110152 0.000366862343 0.000324802291)
5(0.0004044069344 0.0004230372935 0.0004508055537 0.0004458002239 0.00038387351)
5(0.0005045264211 0.0005205300465 0.0005427784806 0.0005157146627 0.0004242920037)
5(0.0006124727462 0.0006215269152 0.0006266863357 0.0005663093427 0.0004402887441)
5(0.0007200596535 0.0007129939348 0.0006886826601 0.0005820485465 0.0004092551994)
5(0.0008127229732 0.0007825870829 0.0007132236262 0.0005407477125 0.0003130021691)
5(0.000880599254 0.0008140450781 0.0006765847173 0.0004263249596 0.0001394441227)
5(0.000902062547 0.0007878748089 0.0005661820509 0.0002302883913 -0.0001073056904)
5(0.0008675249274 0.0006910335133 0.0003724911889 -3.926888883e-05 -0.0004086577692)
5(0.0007606327454 0.0005144502912 0.0001035295648 -0.0003665881393 -0.0007370440658)
5(0.0005897796398 0.0002681067165 -0.0002171187754 -0.0006980778173 -0.001015831681)
5(0.0003651747831 -2.927684343e-05 -0.0005435578188 -0.0009747040151 -0.001198235654)
5(0.0001215082062 -0.0003202957098 -0.0008100903448 -0.001137032738 -0.001234539734)
5(-8.059573588e-05 -0.0005525991579 -0.0009644217343 -0.001140364093 -0.001118043707)
5(-0.0002091423052 -0.0006816649409 -0.0009813461393 -0.0009982382638 -0.0008847165775)
5(-0.0002258792004 -0.000688900058 -0.0008587542913 -0.0007531805829 -0.0006005978653)
5(-0.0001333887568 -0.0005848193291 -0.0006394105716 -0.0004772316464 -0.0003471520655)
5(2.329736981e-06 -0.0004212800314 -0.0003949682116 -0.0002549885762 -0.0001689450907)
5(0.0001244270688 -0.0002480701764 -0.0002002463797 -0.0001119247936 -6.489891042e-05)
5(0.0001912568231 -0.0001078646577 -8.136983026e-05 -3.830225594e-05 -2.006103381e-05)
5(0.0001670479094 -3.323744775e-05 -2.509226973e-05 -9.937250488e-06 -4.661899352e-06)
5(8.800932152e-05 -8.179565817e-06 -5.339173978e-06 -1.906860864e-06 -7.977863899e-07)
5(3.93129255e-05 -6.54912565e-07 -7.33877096e-07 -2.554843606e-07 -9.968829015e-08)
5(9.338440108e-06 1.010745545e-07 -8.147603511e-08 -1.893523048e-08 -7.268730515e-09)
5(1.0338643e-06 1.923190011e-07 -2.757039573e-09 1.562391999e-07 -5.894360616e-10)
5(1.294539639e-06 6.832923747e-07 -8.302212833e-08 1.582689519e-07 -7.418084328e-07)
5(1.002527684e-06 -4.947352426e-07 1.814687959e-07 -2.295500448e-07 3.378956155e-09)
)


60
(
5(-2.108494886e-05 -1.943482045e-05 -1.260726595e-05 -1.247800302e-05 -8.701973141e-06)
5(-2.271842288e-05 -1.858228107e-05 -1.391910677e-05 -1.153341025e-05 -9.376696428e-06)
5(-2.306549491e-05 -1.68789697e-05 -1.421050911e-05 -1.099447325e-05 -9.444479462e-06)
5(-2.252034386e-05 -1.599441453e-05 -1.398959831e-05 -1.080214009e-05 -9.460885358e-06)
5(-2.121870925e-05 -1.559743606e-05 -1.345153134e-05 -1.07474675e-05 -9.326440383e-06)
5(-1.948609267e-05 -1.518692989e-05 -1.282148976e-05 -1.058707858e-05 -9.059271222e-06)
5(-1.80130921e-05 -1.449222316e-05 -1.211211396e-05 -1.020746847e-05 -8.758896667e-06)
5(-1.673181112e-05 -1.361459954e-05 -1.15203838e-05 -9.694464887e-06 -8.46514199e-06)
5(-1.548030396e-05 -1.252938124e-05 -1.07728505e-05 -8.990478465e-06 -8.131671812e-06)
5(-1.395780577e-05 -1.130748737e-05 -9.956157565e-06 -8.2417601e-06 -7.737809917e-06)
5(-1.196002588e-05 -9.883305103e-06 -8.803730561e-06 -7.40743212e-06 -7.249226987e-06)
5(-9.962985142e-06 -8.278188827e-06 -7.572300712e-06 -6.509256036e-06 -6.703129604e-06)
5(-7.300979944e-06 -6.496105702e-06 -6.053030711e-06 -5.368414954e-06 -6.074843263e-06)
5(-5.102331703e-06 -4.55950427e-06 -4.369962374e-06 -4.158957376e-06 -5.481283017e-06)
5(-1.939136836e-06 -2.121772039e-06 -2.390990657e-06 -2.716585522e-06 -4.56380848e-06)
5(1.940763194e-06 8.591581509e-07 -1.347981857e-07 -1.140237522e-06 -3.737910568e-06)
5(5.739077589e-06 3.965270524e-06 2.306317758e-06 9.258065445e-07 -2.747202474e-06)
5(1.058167961e-05 7.514180834e-06 5.280831074e-06 2.871660528e-06 -1.62821707e-06)
5(1.546312119e-05 1.177854959e-05 8.668932301e-06 5.346589411e-06 2.755765019e-08)
5(2.170517929e-05 1.640183847e-05 1.226696248e-05 8.321568198e-06 1.976740706e-06)
5(2.811077257e-05 2.135219334e-05 1.686645879e-05 1.193629812e-05 4.460988369e-06)
5(3.501784845e-05 2.76824094e-05 2.188282701e-05 1.62148094e-05 7.662775111e-06)
5(4.371853577e-05 3.457493444e-05 2.797818251e-05 2.156280855e-05 1.157416854e-05)
5(5.381174163e-05 4.247482801e-05 3.481272783e-05 2.847451888e-05 1.726962814e-05)
5(6.440292408e-05 5.168268831e-05 4.420693764e-05 3.717438686e-05 2.493794023e-05)
5(7.77153214e-05 6.27282725e-05 5.596512647e-05 4.887185647e-05 3.579641193e-05)
5(9.333155325e-05 7.69302644e-05 7.124606693e-05 6.433871221e-05 4.982595968e-05)
5(0.0001119070035 9.54103251e-05 9.060749121e-05 8.52996122e-05 6.996777091e-05)
5(0.0001344854626 0.0001181927774 0.000116361019 0.0001130531083 9.684673895e-05)
5(0.000163735591 0.000147453654 0.0001506826351 0.0001496334701 0.0001327010044)
5(0.0002006461299 0.000185794519 0.0001943545302 0.0001970803036 0.0001794765066)
5(0.0002468184272 0.0002346871832 0.0002494588575 0.0002573469504 0.0002365352653)
5(0.0003049993982 0.0002965880272 0.0003198703346 0.000328179107 0.0003014709066)
5(0.0003768157752 0.0003715015389 0.0004017183563 0.0004112705406 0.0003788411938)
5(0.0004629325424 0.0004587765531 0.0004957643197 0.0005020319429 0.0004562511625)
5(0.0005606131623 0.0005587346872 0.000598699552 0.0005936967811 0.0005295870741)
5(0.0006687148325 0.0006674954309 0.0007007911341 0.0006754930057 0.0005841239809)
5(0.00078327507 0.0007762539123 0.0007924049065 0.0007302227536 0.0006007831436)
5(0.0008935710441 0.0008718676178 0.0008539741979 0.0007384862912 0.0005617102882)
5(0.0009866225143 0.0009393395952 0.0008688287702 0.0006824740693 0.0004444581735)
5(0.001046064386 0.0009622064463 0.0008185122404 0.0005416121263 0.0002412830846)
5(0.001060499712 0.000924354228 0.0006843792207 0.0003101960658 -3.804340275e-05)
5(0.001012946887 0.0008111074692 0.0004615915916 -1.201609032e-06 -0.000384215916)
5(0.0009028571526 0.0006214512651 0.0001609745435 -0.000362737311 -0.0007397198103)
5(0.0007368367968 0.0003672344861 -0.0001805382258 -0.000720273399 -0.001045731681)
5(0.0005431921012 8.677595083e-05 -0.0005159744413 -0.001011312283 -0.001234901929)
5(0.0003308502278 -0.0001843488046 -0.0007871872141 -0.001169754339 -0.001271459953)
5(0.0001858521639 -0.0003951693887 -0.0009401528244 -0.001156997678 -0.001145785079)
5(0.0001103290584 -0.0005015855348 -0.0009394156188 -0.000989171385 -0.0009015356648)
5(0.000142363394 -0.0004982039059 -0.000794128766 -0.0007295763056 -0.00061494798)
5(0.0002548682849 -0.0004089103201 -0.0005726268791 -0.0004550688067 -0.0003486304856)
5(0.0003781301726 -0.0002566964802 -0.0003397880395 -0.0002325666629 -0.0001631866074)
5(0.00046907325 -0.0001313946236 -0.000164364416 -9.813961334e-05 -6.198822923e-05)
5(0.000501183806 -4.43041138e-05 -6.447057001e-05 -2.955614511e-05 -1.653999803e-05)
5(0.000382940604 -7.023292276e-07 -1.795731345e-05 -6.875403097e-06 -3.502118614e-06)
5(0.0002577297396 2.633653391e-06 -4.177974753e-06 -1.073177766e-06 -5.17942251e-07)
5(0.0001131912628 4.197809934e-06 -3.19673696e-07 -1.009888144e-07 -4.286369742e-08)
5(4.067497797e-05 7.997069485e-07 -1.555835777e-08 6.727730698e-08 -3.399899179e-10)
5(1.375057582e-05 -8.187346925e-07 3.150626419e-08 -4.206249423e-07 -3.430469597e-07)
5(2.166725601e-05 -1.390528695e-07 2.708578183e-06 -6.011635935e-07 1.180325105e-08)
)


60
(
5(-1.76938928e-05 -1.817936172e-05 -1.212811337e-05 -1.30950377e-05 -9.927781672e-06)
5(-1.918055621e-05 -1.725027732e-05 -1.343389257e-05 -1.205419182e-05 -1.057944302e-05)
5(-1.890160279e-05 -1.480330006e-05 -1.368343571e-05 -1.134262064e-05 -1.06307779e-05)
5(-1.760435497e-05 -1.353194851e-05 -1.32074641e-05 -1.096799105e-05 -1.051031404e-05)
5(-1.55601428e-05 -1.276551526e-05 -1.228836298e-05 -1.065571114e-05 -1.022951233e-05)
5(-1.310040264e-05 -1.180377089e-05 -1.120620704e-05 -1.021447615e-05 -9.712098492e-06)
5(-1.072773251e-05 -1.05662201e-05 -9.945084655e-06 -9.407559897e-06 -9.083572937e-06)
5(-8.436093921e-06 -8.917163136e-06 -8.734867497e-06 -8.340481521e-06 -8.435763346e-06)
5(-6.087500052e-06 -6.870549231e-06 -7.217471274e-06 -7.011855985e-06 -7.666948677e-06)
5(-3.092661387e-06 -4.680689504e-06 -5.468144145e-06 -5.526933867e-06 -6.768298944e-06)
5(2.342427221e-07 -1.885095685e-06 -3.223458829e-06 -3.818029385e-06 -5.698450432e-06)
5(4.357616317e-06 1.077874525e-06 -7.391106768e-07 -1.893639097e-06 -4.521004112e-06)
5(8.697222866e-06 4.526721159e-06 2.304513908e-06 2.880421559e-07 -3.202323734e-06)
5(1.361782386e-05 8.588704838e-06 5.485355582e-06 2.70792402e-06 -1.761993166e-06)
5(1.957505045e-05 1.317509267e-05 9.300982352e-06 5.446828808e-06 -1.31711349e-07)
5(2.605765969e-05 1.833404975e-05 1.31910102e-05 8.422279195e-06 1.614543633e-06)
5(3.355164605e-05 2.423269822e-05 1.811601027e-05 1.197685234e-05 3.744457001e-06)
5(4.134803176e-05 3.068139641e-05 2.334599619e-05 1.546890105e-05 5.956238864e-06)
5(5.130150324e-05 3.796582552e-05 2.90715226e-05 2.012507732e-05 8.637581836e-06)
5(6.118869197e-05 4.575774706e-05 3.549229527e-05 2.46296084e-05 1.140910332e-05)
5(7.176933411e-05 5.395622086e-05 4.219142229e-05 3.000140558e-05 1.500015988e-05)
5(8.490755114e-05 6.379191114e-05 5.013459171e-05 3.623083623e-05 1.931515771e-05)
5(9.724571753e-05 7.370786765e-05 5.860286955e-05 4.291828371e-05 2.426640223e-05)
5(0.0001111136303 8.437344485e-05 6.81056003e-05 5.135749021e-05 3.098089554e-05)
5(0.0001269749369 9.653251828e-05 7.971619436e-05 6.144984131e-05 3.951081824e-05)
5(0.0001435128095 0.0001094873542 9.274610552e-05 7.37453171e-05 4.98387473e-05)
5(0.0001629872246 0.0001262500899 0.0001084045997 8.977531996e-05 6.517882223e-05)
5(0.0001829404865 0.0001448270358 0.0001281646206 0.0001105083944 8.511289628e-05)
5(0.0002074533511 0.000167029522 0.0001536314592 0.0001375051679 0.0001108178948)
5(0.0002374631926 0.000195218523 0.0001861733586 0.00017273634 0.0001465500519)
5(0.0002736300035 0.0002316700348 0.0002270891295 0.0002181226733 0.0001929017585)
5(0.0003155842561 0.0002760799882 0.000278657097 0.0002749156043 0.0002494850015)
5(0.0003673225647 0.0003316457853 0.0003432510331 0.0003457287832 0.0003210424318)
5(0.000434282084 0.0003999505635 0.0004225310735 0.0004311525313 0.0004052691702)
5(0.0005109789983 0.0004822998162 0.0005158308682 0.0005263096663 0.0004924102695)
5(0.0006016768018 0.0005789441559 0.0006200978225 0.0006288963529 0.0005821004348)
5(0.0007072963033 0.0006858773006 0.0007293609943 0.00072737726 0.0006616424132)
5(0.0008211789521 0.0007973651003 0.0008344340153 0.0008079158284 0.0007162499913)
5(0.0009354104202 0.0009044717575 0.0009225294382 0.0008559515121 0.0007238328771)
5(0.00104002568 0.000996249078 0.0009765325895 0.0008479082348 0.0006579015044)
5(0.0011262326 0.001056332158 0.0009743407401 0.0007566292568 0.0005053877185)