/*--------------------------------*- C++ -*----------------------------------*\
| =========                 |                                                 |
| \\      /  F ield         | OpenFOAM: The Open Source CFD Toolbox           |
|  \\    /   O peration     | Version:  2.3.1                                 |
|   \\  /    A nd           | Web:      www.OpenFOAM.org                      |
|    \\/     M anipulation  |                                                 |
\*---------------------------------------------------------------------------*/
FoamFile
{
    version     2.0;
    format      ascii;
    class       dictionary;
    location    "constant";
    object      PM56;
}
// * * * * * * * * * * * * * * * * * * * * * * * * * * * * * * * * * * * * * //

PM56_table
60
(

60
(
5(3.868207885e-08 2.430474602e-08 9.485471322e-08 7.359519543e-08 6.696119167e-07)
5(4.471863807e-07 6.612924036e-09 2.073967132e-08 2.45533931e-08 4.420664744e-07)
5(-6.715861958e-08 7.020992099e-08 1.877934343e-08 1.380615365e-08 1.160032742e-08)
5(-3.506884242e-07 1.723028951e-07 2.871639687e-08 2.755589667e-08 1.863499374e-07)
5(-4.53632629e-07 1.872048283e-07 2.475081802e-08 5.833482877e-08 6.472240935e-08)
5(-1.146866915e-07 1.213508929e-07 2.020333356e-08 6.260806119e-08 1.153220748e-07)
5(2.426486803e-07 2.731795368e-08 4.954971247e-08 8.189426784e-08 2.494319229e-07)
5(-2.446021713e-07 4.296316786e-08 7.514255769e-08 1.115743883e-07 1.263364931e-07)
5(-7.733428584e-07 1.801285925e-07 8.590799996e-08 1.518334064e-07 3.490515016e-07)
5(-6.656945113e-07 2.820595043e-07 1.2994697e-07 1.836951468e-07 4.299636172e-07)
5(-2.288265817e-07 3.163351098e-07 1.485626156e-07 2.45558601e-07 5.030494165e-07)
5(3.518484282e-07 1.964191428e-07 1.747243674e-07 3.190869835e-07 5.809940756e-07)
5(2.42660342e-07 1.592492899e-07 2.338626385e-07 4.06190179e-07 7.45450062e-07)
5(1.220555517e-07 1.982376235e-07 2.928035119e-07 4.63060515e-07 8.525285744e-07)
5(1.323316911e-07 2.431377073e-07 3.60578206e-07 6.014038524e-07 1.004912614e-06)
5(1.624928414e-07 3.121847218e-07 4.568167442e-07 7.068350668e-07 1.192746025e-06)
5(2.366381614e-07 3.890239641e-07 5.538534277e-07 8.482670236e-07 1.405789511e-06)
5(3.130690397e-07 4.824370905e-07 6.779387683e-07 1.005375933e-06 1.554459698e-06)
5(3.960651831e-07 6.082124164e-07 8.204758157e-07 1.168567183e-06 1.714887623e-06)
5(5.061399616e-07 7.607236412e-07 9.888816411e-07 1.380461352e-06 1.830843271e-06)
5(6.252065965e-07 9.024183272e-07 1.155477187e-06 1.502822682e-06 1.977935631e-06)
5(8.001682231e-07 1.129231301e-06 1.390302886e-06 1.658292849e-06 2.187038891e-06)
5(1.018462608e-06 1.422380729e-06 1.678919231e-06 2.106758998e-06 2.564818107e-06)
5(1.285207553e-06 1.811229872e-06 2.057556848e-06 2.46198795e-06 2.834206021e-06)
5(1.658291818e-06 2.244136443e-06 2.606257578e-06 3.058059672e-06 3.32261129e-06)
5(2.112082715e-06 2.856552362e-06 3.312683296e-06 3.803111653e-06 3.849139652e-06)
5(2.745052846e-06 3.70421931e-06 4.146808259e-06 4.80657173e-06 4.693424274e-06)
5(3.640203745e-06 4.976734052e-06 5.500914796e-06 6.125941704e-06 5.855221693e-06)
5(4.955635552e-06 6.680660015e-06 7.109902746e-06 7.898196503e-06 7.545387245e-06)
5(6.714548348e-06 9.144461335e-06 9.562189151e-06 1.041365381e-05 9.835066372e-06)
5(9.308815726e-06 1.253598784e-05 1.316338798e-05 1.415108295e-05 1.251127614e-05)
5(1.277886698e-05 1.705394793e-05 1.749771622e-05 1.804432892e-05 1.571544983e-05)
5(1.778689073e-05 2.376771483e-05 2.434559766e-05 2.477389054e-05 2.249762709e-05)
5(2.493754441e-05 3.277658616e-05 3.298086396e-05 3.163758671e-05 2.534647698e-05)
5(3.451111356e-05 4.429173188e-05 4.410497213e-05 4.137405284e-05 3.350978496e-05)
5(4.757256649e-05 6.015885757e-05 5.823824602e-05 5.124641391e-05 4.099657476e-05)
5(6.35530889e-05 7.519765764e-05 6.805006037e-05 6.258673112e-05 4.522983555e-05)
5(8.470394885e-05 9.864291173e-05 8.796141404e-05 7.249670848e-05 4.33494068e-05)
5(0.0001102390325 0.0001210663991 0.0001079955808 8.42971979e-05 4.590671676e-05)
5(0.0001392871245 0.0001448896989 0.0001241362436 7.727291017e-05 1.791576217e-05)
5(0.0001643784428 0.0001606324871 0.0001268071562 6.956249015e-05 2.66078442e-05)
5(0.0001889791622 0.0001737243881 0.0001229421345 4.21337579e-05 2.827393849e-05)
5(0.0002075133514 0.0001759232832 0.0001119523145 2.991945884e-05 3.319381921e-05)
5(0.000220179232 0.0001800736708 0.0001152082007 3.460858442e-05 2.586948883e-05)
5(0.000212410698 0.000158038048 8.181942719e-05 2.753077612e-05 1.699326487e-05)
5(0.0001913124148 0.0001294791343 4.396967669e-05 2.000640238e-05 1.022280556e-05)
5(0.0001555388063 7.594324876e-05 1.764761303e-05 1.458968963e-05 5.403076789e-06)
5(0.0001096791202 4.475833355e-05 1.436125186e-05 8.259283616e-06 2.546764251e-06)
5(7.782137194e-05 2.221811321e-05 8.533744461e-06 3.907441085e-06 1.135411696e-06)
5(3.538677903e-05 6.587138228e-06 4.870318606e-06 1.651308354e-06 5.651494016e-07)
5(1.369702897e-05 4.551234455e-06 1.990686301e-06 7.405844542e-07 3.713705497e-07)
5(4.508256368e-06 2.131233162e-06 8.154599864e-07 4.263350977e-07 3.215037745e-07)
5(2.182460146e-06 8.691100724e-07 4.331942996e-07 3.429538227e-07 3.261185181e-07)
5(8.280003013e-07 4.345001728e-07 3.325130857e-07 3.362301241e-07 3.51718591e-07)
5(4.289704306e-07 3.374700038e-07 3.22277168e-07 3.621439678e-07 3.927331794e-07)
5(3.604912194e-07 3.233622526e-07 3.406871646e-07 4.023971119e-07 4.506284757e-07)
5(3.843565575e-07 3.385266796e-07 3.792271781e-07 4.659709737e-07 5.297653606e-07)
5(4.500132028e-07 4.04725198e-07 4.483846518e-07 5.81658681e-07 6.102817504e-07)
5(5.337958649e-07 5.43205782e-07 5.975283614e-07 4.807830809e-07 7.981668899e-07)
5(2.702678752e-07 4.82643041e-07 5.360016278e-07 8.144361474e-07 1.187161027e-06)
)


60
(
5(7.049044397e-08 4.224234456e-08 1.660414991e-07 1.860327261e-07 8.86396692e-07)
5(3.666564612e-08 2.298975273e-08 6.929356456e-08 1.081448163e-07 2.985045105e-07)
5(-9.986115851e-08 3.596826e-08 5.387875201e-08 8.954761472e-08 1.002604554e-07)
5(-2.388280598e-07 4.83062165e-08 7.739813338e-08 8.872258222e-08 3.877984819e-07)
5(-3.92103873e-07 5.711586711e-08 9.992408226e-08 1.571972611e-07 3.819492659e-07)
5(-4.567582875e-07 6.812930641e-08 8.454504277e-08 2.06002067e-07 4.190907684e-07)
5(6.06753235e-08 8.438050532e-08 1.193813591e-07 2.306105217e-07 7.038986921e-07)
5(5.857887856e-08 1.099687604e-07 1.891165028e-07 3.226423529e-07 5.954014828e-07)
5(-4.555730179e-07 1.474064474e-07 2.302636498e-07 4.272992499e-07 8.770293005e-07)
5(-7.495856965e-07 1.956091153e-07 3.310493661e-07 5.2600019e-07 1.126225515e-06)
5(-7.954801285e-07 2.50874284e-07 4.197347563e-07 6.665191014e-07 1.400468114e-06)
5(-1.176305057e-07 3.235882407e-07 4.972998104e-07 8.26873069e-07 1.61968543e-06)
5(2.312930465e-07 4.127107301e-07 6.115192583e-07 1.04410231e-06 1.964589597e-06)
5(3.156880845e-07 5.233684099e-07 7.674846795e-07 1.205640204e-06 2.245075337e-06)
5(3.835508633e-07 6.413322763e-07 9.243618206e-07 1.473071163e-06 2.580592142e-06)
5(4.73120242e-07 7.982022218e-07 1.142358572e-06 1.743617061e-06 2.944050532e-06)
5(6.036817464e-07 9.830474892e-07 1.376113303e-06 2.034145537e-06 3.352320017e-06)
5(7.797139118e-07 1.204406004e-06 1.646657657e-06 2.380551236e-06 3.741951024e-06)
5(9.827006368e-07 1.471736156e-06 1.953315172e-06 2.714570479e-06 4.102973221e-06)
5(1.245440633e-06 1.823712855e-06 2.335554897e-06 3.168593609e-06 4.433374972e-06)
5(1.542605567e-06 2.163501698e-06 2.689527491e-06 3.556751221e-06 4.757226955e-06)
5(1.905070761e-06 2.591906383e-06 3.163926282e-06 3.829720814e-06 5.006267331e-06)
5(2.382863849e-06 3.127707588e-06 3.670884624e-06 4.450153684e-06 5.544420754e-06)
5(2.88983515e-06 3.81000531e-06 4.285216755e-06 5.047373568e-06 5.993285214e-06)
5(3.562451449e-06 4.564805452e-06 5.058660353e-06 5.860918024e-06 6.649459918e-06)
5(4.331225021e-06 5.453380711e-06 6.076927377e-06 6.918830852e-06 7.424262667e-06)
5(5.294034845e-06 6.559113897e-06 7.109754064e-06 8.195186797e-06 8.48024973e-06)
5(6.443959604e-06 8.022463489e-06 8.661848984e-06 9.867292194e-06 9.926941489e-06)
5(8.001542944e-06 9.982551728e-06 1.053207111e-05 1.203530292e-05 1.200895317e-05)
5(9.936562048e-06 1.26391596e-05 1.313831722e-05 1.485379734e-05 1.482371892e-05)
5(1.25444286e-05 1.623561205e-05 1.70546423e-05 1.941574919e-05 1.890680228e-05)
5(1.600434807e-05 2.100177014e-05 2.199128105e-05 2.481882195e-05 2.335417352e-05)
5(2.075151024e-05 2.787690747e-05 2.944416459e-05 3.291522663e-05 3.202812012e-05)
5(2.758606743e-05 3.750808243e-05 4.009235877e-05 4.34821722e-05 4.027985234e-05)
5(3.722721496e-05 5.030039823e-05 5.364436516e-05 5.764755438e-05 5.276255463e-05)
5(5.074115832e-05 6.887240668e-05 7.427121787e-05 7.599933064e-05 6.812117542e-05)
5(6.95608368e-05 8.983528462e-05 9.329174433e-05 9.577516903e-05 8.649590526e-05)
5(9.366438604e-05 0.0001203367013 0.0001211835747 0.000121791468 9.71173758e-05)
5(0.0001263834705 0.0001552118369 0.0001550684278 0.0001466821909 0.0001236935243)
5(0.0001683897112 0.0001965674546 0.0001935582432 0.0001730790392 0.0001079562929)
5(0.0002150908907 0.0002366555597 0.0002219219352 0.0001898824849 0.0001166409194)
5(0.000264413808 0.0002772203078 0.0002468728181 0.0001819930089 0.0001169316384)
5(0.0003142935456 0.0003059279779 0.0002581163279 0.0001503190787 0.0001097477287)
5(0.0003573427273 0.0003287225256 0.000273022086 0.000140124603 9.59242241e-05)
5(0.0003848587046 0.0003258650431 0.0002447928068 0.0001197859721 7.517756334e-05)
5(0.0003830472214 0.0003040063341 0.0001987292184 9.407891281e-05 5.306015345e-05)
5(0.0003559873467 0.0002536363282 0.000126435401 6.634030724e-05 3.335447036e-05)
5(0.0003000425147 0.0001835144643 8.254332554e-05 4.143072289e-05 1.845321547e-05)
5(0.000232340256 0.0001267926773 5.032847939e-05 2.28319344e-05 9.071389049e-06)
5(0.0001565516737 6.233369535e-05 2.684750371e-05 1.095678641e-05 4.100804197e-06)
5(8.919180131e-05 3.199515628e-05 1.235645736e-05 4.827165535e-06 1.931955535e-06)
5(3.629219964e-05 1.394202455e-05 5.006084414e-06 2.149733893e-06 1.165188641e-06)
5(1.371895118e-05 5.325190313e-06 2.086038707e-06 1.230700056e-06 9.345998007e-07)
5(4.760085551e-06 2.081855434e-06 1.168341798e-06 9.781146663e-07 9.049683488e-07)
5(1.838143481e-06 1.189420841e-06 9.620126244e-07 9.515133656e-07 9.332902068e-07)
5(1.198762403e-06 1.01752769e-06 9.450088329e-07 9.842642192e-07 9.980941423e-07)
5(1.180825042e-06 1.015198528e-06 9.869562997e-07 1.055854877e-06 1.091560206e-06)
5(1.265118292e-06 1.110942794e-06 1.080875883e-06 1.172734281e-06 1.202379533e-06)
5(1.360476098e-06 1.314798538e-06 1.375419693e-06 1.125063384e-06 1.417418743e-06)
5(8.048780453e-07 9.219475774e-07 7.897166153e-07 1.335152564e-06 2.017923714e-06)
)


60
(
5(1.674020638e-07 1.358392656e-07 4.350395887e-07 6.430059529e-07 2.428774469e-06)
5(1.236373211e-07 1.499952426e-07 2.768142645e-07 5.183546519e-07 1.357238085e-06)
5(1.172424733e-07 1.787455005e-07 2.576187813e-07 5.442350776e-07 1.155177448e-06)
5(1.340749475e-07 2.260388564e-07 3.20593505e-07 6.802292213e-07 1.371931162e-06)
5(1.733716018e-07 2.968336213e-07 4.547616567e-07 9.185155558e-07 1.916969687e-06)
5(2.374727155e-07 3.944378587e-07 6.45093201e-07 1.231487018e-06 2.66033579e-06)
5(3.146742571e-07 5.212663264e-07 8.594424492e-07 1.61455202e-06 3.397935707e-06)
5(4.050716644e-07 6.801384063e-07 1.107413193e-06 2.05213966e-06 4.124452473e-06)
5(5.187201937e-07 8.771658157e-07 1.398462272e-06 2.551567854e-06 4.961280711e-06)
5(6.751814407e-07 1.127586398e-06 1.768586908e-06 3.163097232e-06 5.940448086e-06)
5(8.681351651e-07 1.441311419e-06 2.225681809e-06 3.881955391e-06 7.11118248e-06)
5(1.128214523e-06 1.822833882e-06 2.78639915e-06 4.703463857e-06 8.398566601e-06)
5(1.449632513e-06 2.287682667e-06 3.441060434e-06 5.615387195e-06 9.718863874e-06)
5(1.83123723e-06 2.843284818e-06 4.187443865e-06 6.635541938e-06 1.110734506e-05)
5(2.30590795e-06 3.503323511e-06 5.037335118e-06 7.728688928e-06 1.244269913e-05)
5(2.906610582e-06 4.289353892e-06 6.015971515e-06 8.910585434e-06 1.380571338e-05)
5(3.645109844e-06 5.219939162e-06 7.134438745e-06 1.017592337e-05 1.511733193e-05)
5(4.505900609e-06 6.32177222e-06 8.395232334e-06 1.151059536e-05 1.637450218e-05)
5(5.619431319e-06 7.586196679e-06 9.785278971e-06 1.292355288e-05 1.762605539e-05)
5(6.873108243e-06 9.071721831e-06 1.134105344e-05 1.441608937e-05 1.881545317e-05)
5(8.431688021e-06 1.080317359e-05 1.30538192e-05 1.595610277e-05 1.992235643e-05)
5(1.037979713e-05 1.276341656e-05 1.495070114e-05 1.764812005e-05 2.1162543e-05)
5(1.260632336e-05 1.502506968e-05 1.708775232e-05 1.943420925e-05 2.242677156e-05)
5(1.50382827e-05 1.763713283e-05 1.950806268e-05 2.138062193e-05 2.384191918e-05)
5(1.806011871e-05 2.061692513e-05 2.21353076e-05 2.365775291e-05 2.537292782e-05)
5(2.155637535e-05 2.39770338e-05 2.521459815e-05 2.63170688e-05 2.740317484e-05)
5(2.556094749e-05 2.780601007e-05 2.875475492e-05 2.949933626e-05 2.999120297e-05)
5(3.016581448e-05 3.230784295e-05 3.289116134e-05 3.33718289e-05 3.319054839e-05)
5(3.54770427e-05 3.760576313e-05 3.790709468e-05 3.826983878e-05 3.767822776e-05)
5(4.171748031e-05 4.393351822e-05 4.413931605e-05 4.459805174e-05 4.343466187e-05)
5(4.898930875e-05 5.167509753e-05 5.209881303e-05 5.297524198e-05 5.170215015e-05)
5(5.782165641e-05 6.145976116e-05 6.249003694e-05 6.420948617e-05 6.256535332e-05)
5(6.876299451e-05 7.408919788e-05 7.616784198e-05 7.930786379e-05 7.723490383e-05)
5(8.266106249e-05 9.066395383e-05 9.440825182e-05 9.913745283e-05 9.640708534e-05)
5(0.000100523584 0.0001125175785 0.000118638165 0.0001252026038 0.0001218955313)
5(0.000123863052 0.0001412645091 0.0001502109923 0.0001586201872 0.0001522772099)
5(0.000154426215 0.0001783518343 0.0001908921976 0.0001995584804 0.0001896277145)
5(0.0001954493009 0.0002260077676 0.0002409342295 0.0002483997755 0.0002322581406)
5(0.0002472237353 0.0002846538181 0.0003007321854 0.0003034533463 0.0002754314698)
5(0.0003119058228 0.0003548630908 0.0003681719396 0.0003604523296 0.0003150013851)
5(0.0003910482497 0.0004341576342 0.0004383178544 0.0004134355232 0.0003420226066)
5(0.0004814923058 0.0005185983845 0.000505297601 0.0004530108001 0.0003530768047)
5(0.0005818706345 0.0005982658976 0.0005585434616 0.0004694695537 0.0003432313631)
5(0.0006803724535 0.0006616204998 0.0005867423559 0.0004563664446 0.0003133282215)
5(0.0007663526213 0.0006978336501 0.0005785664161 0.0004135340762 0.000265353536)
5(0.000821220783 0.0006938047572 0.0005294393628 0.0003465311988 0.0002051252436)
5(0.0008294116509 0.0006426895261 0.0004428493886 0.0002662236803 0.0001440143784)
5(0.0007821813234 0.0005461285042 0.0003364589204 0.0001845643804 9.018714868e-05)
5(0.0006782094523 0.000418333787 0.0002280523722 0.0001141225766 5.046106902e-05)
5(0.0005301626485 0.0002833674154 0.0001351320641 6.193932813e-05 2.52059202e-05)
5(0.000367646885 0.0001661296839 7.002429735e-05 2.991882302e-05 1.172271233e-05)
5(0.000219562269 8.215273258e-05 3.156436987e-05 1.309926351e-05 5.67687728e-06)
5(0.0001070972795 3.479507022e-05 1.298429656e-05 6.126288667e-06 3.523729797e-06)
5(4.292986796e-05 1.342653482e-05 5.924989207e-06 3.747989802e-06 2.85514962e-06)
5(1.546676492e-05 6.100251156e-06 3.862735958e-06 3.06848254e-06 2.674362638e-06)
5(6.519681639e-06 4.172360558e-06 3.321186932e-06 2.884278239e-06 2.648455136e-06)
5(4.440562082e-06 3.643381652e-06 3.104914397e-06 2.824936674e-06 2.687095657e-06)
5(3.819484383e-06 3.35864949e-06 2.977180358e-06 2.829259384e-06 2.783797069e-06)
5(3.415844738e-06 3.312928598e-06 2.944217994e-06 2.985244919e-06 2.95073461e-06)
5(3.053947027e-06 2.932378024e-06 2.995441364e-06 3.528830107e-06 3.686342718e-06)
)


60
(
5(3.071524194e-07 2.822485167e-07 8.540942094e-07 1.428144349e-06 4.688508835e-06)
5(2.579822536e-07 3.301593537e-07 6.354864912e-07 1.249256104e-06 3.211639828e-06)
5(2.648816124e-07 4.039199878e-07 6.359743574e-07 1.334010062e-06 2.950241344e-06)
5(3.093670527e-07 5.137421619e-07 7.86784695e-07 1.632131812e-06 3.367442409e-06)
5(3.99844769e-07 6.70512846e-07 1.074134817e-06 2.114307616e-06 4.35193386e-06)
5(5.375683385e-07 8.838339694e-07 1.462496599e-06 2.741441801e-06 5.631271602e-06)
5(7.097754333e-07 1.153194174e-06 1.912776354e-06 3.488471214e-06 6.97560202e-06)
5(9.15228457e-07 1.490682764e-06 2.430171575e-06 4.34021831e-06 8.313085775e-06)
5(1.175128614e-06 1.907575616e-06 3.037473039e-06 5.322744586e-06 9.803231548e-06)
5(1.510035216e-06 2.424537443e-06 3.777763461e-06 6.463012354e-06 1.154894223e-05)
5(1.934461002e-06 3.057716175e-06 4.686227899e-06 7.787845478e-06 1.352799214e-05)
5(2.478880283e-06 3.826727113e-06 5.764638978e-06 9.279629644e-06 1.561172495e-05)
5(3.149705104e-06 4.760872004e-06 7.01659828e-06 1.094530416e-05 1.780523298e-05)
5(4.000264133e-06 5.867201341e-06 8.451880964e-06 1.275589231e-05 2.000084771e-05)
5(4.978152521e-06 7.179700695e-06 1.008645116e-05 1.471467266e-05 2.223761342e-05)
5(6.162812312e-06 8.718588975e-06 1.193966137e-05 1.6820038e-05 2.443944289e-05)
5(7.705849687e-06 1.053378395e-05 1.402782697e-05 1.907692525e-05 2.661600223e-05)
5(9.504850199e-06 1.266336623e-05 1.635789464e-05 2.147454263e-05 2.865394592e-05)
5(1.168550169e-05 1.513802166e-05 1.89945123e-05 2.395353103e-05 3.068386455e-05)
5(1.431289005e-05 1.801338971e-05 2.189665002e-05 2.660756922e-05 3.270599241e-05)
5(1.738297959e-05 2.132136691e-05 2.511592289e-05 2.94019188e-05 3.468616935e-05)
5(2.105703874e-05 2.509326385e-05 2.865689234e-05 3.232624975e-05 3.674543586e-05)
5(2.537033593e-05 2.93802472e-05 3.258395271e-05 3.55118706e-05 3.880439633e-05)
5(3.040471714e-05 3.422356231e-05 3.686641547e-05 3.888693077e-05 4.116841629e-05)
5(3.613889697e-05 3.962841398e-05 4.154846745e-05 4.255537431e-05 4.358209243e-05)
5(4.25536321e-05 4.564506276e-05 4.667514942e-05 4.659059322e-05 4.643068932e-05)
5(4.976317023e-05 5.194939145e-05 5.223805503e-05 5.110353256e-05 4.975623666e-05)
5(5.780706896e-05 5.910472123e-05 5.838975219e-05 5.623384789e-05 5.36487394e-05)
5(6.695116271e-05 6.686355077e-05 6.510844633e-05 6.210896539e-05 5.86596422e-05)
5(7.647463721e-05 7.541951221e-05 7.279174546e-05 6.918474067e-05 6.476415616e-05)
5(8.719887389e-05 8.506316922e-05 8.183208534e-05 7.783748748e-05 7.312837451e-05)
5(9.880577178e-05 9.580718997e-05 9.248791848e-05 8.894888605e-05 8.446903434e-05)
5(0.00011158549 0.0001085004892 0.0001058984574 0.000103366912 9.854623284e-05)
5(0.0001261992582 0.0001245262421 0.0001230855974 0.0001224902263 0.0001177711491)
5(0.0001439570678 0.0001442069033 0.0001450653136 0.0001475111336 0.0001435266068)
5(0.0001651954642 0.0001696509441 0.000174419097 0.0001799756877 0.0001763008434)
5(0.0001917479615 0.0002027950928 0.0002129927072 0.0002216760505 0.0002173219325)
5(0.0002278682484 0.0002459728028 0.0002626811992 0.0002740111054 0.0002677217301)
5(0.0002733642051 0.0003018375225 0.0003251634604 0.0003366917561 0.000324305487)
5(0.0003336309299 0.0003721500978 0.0003995643282 0.0004078037129 0.0003820963014)
5(0.000410553827 0.0004584410153 0.0004854116133 0.0004829252673 0.0004350921053)
5(0.0005066062348 0.000558338271 0.0005769788032 0.0005529351248 0.0004748673686)
5(0.000622241076 0.0006670197719 0.0006653822346 0.0006052293573 0.0004911844181)
5(0.0007523552197 0.0007741769874 0.0007371599671 0.00062861164 0.0004813648024)
5(0.0008862093048 0.000863961704 0.0007742735543 0.0006141231964 0.0004419190893)
5(0.001006100076 0.0009215828728 0.000765783846 0.0005604330732 0.0003762474826)
5(0.001096148483 0.0009267271699 0.0007014970715 0.0004740429579 0.0002927841018)
5(0.001129459033 0.0008691111475 0.0005879873486 0.0003664005788 0.0002064626121)
5(0.001087329448 0.0007460440276 0.0004467243755 0.0002546374591 0.0001304012066)
5(0.0009697466462 0.0005772194163 0.0003019635726 0.0001581666188 7.292630975e-05)
5(0.0007853644774 0.0003936756122 0.0001785636738 8.588603573e-05 3.670924926e-05)
5(0.0005687425536 0.0002308623997 9.103604828e-05 4.141965675e-05 1.767862926e-05)
5(0.0003576968707 0.0001173522164 4.049528711e-05 1.844571102e-05 8.938416389e-06)
5(0.0001882922451 5.127966692e-05 1.718083436e-05 9.26030383e-06 5.995608377e-06)
5(7.860056128e-05 2.03459605e-05 9.066716424e-06 6.302325426e-06 5.05647432e-06)
5(3.162130418e-05 1.033299984e-05 6.80755874e-06 5.510051736e-06 4.78856787e-06)
5(1.310574661e-05 7.720627703e-06 6.141795591e-06 5.239821206e-06 4.711721466e-06)
5(8.474967916e-06 6.933723786e-06 5.809673785e-06 5.109791143e-06 4.722719931e-06)
5(7.298998226e-06 6.634292168e-06 5.685316735e-06 5.196842387e-06 4.858154061e-06)
5(5.557858259e-06 4.926456933e-06 5.829800829e-06 5.794534753e-06 5.477888251e-06)
)


60
(
5(4.937931945e-07 4.956723597e-07 1.432327632e-06 2.564700307e-06 7.536188361e-06)
5(4.515419499e-07 5.95240967e-07 1.171285258e-06 2.336504066e-06 5.790449436e-06)
5(4.747494399e-07 7.316950648e-07 1.21069782e-06 2.484568649e-06 5.448069852e-06)
5(5.65181978e-07 9.255665094e-07 1.477576575e-06 2.964493499e-06 6.138802063e-06)
5(7.287170228e-07 1.193521261e-06 1.945232042e-06 3.723212353e-06 7.496027806e-06)
5(9.652756148e-07 1.55307729e-06 2.572191135e-06 4.706853478e-06 9.237075988e-06)
5(1.266350874e-06 2.007824449e-06 3.305753234e-06 5.850168593e-06 1.116099125e-05)
5(1.628987968e-06 2.569545269e-06 4.145056284e-06 7.153369501e-06 1.30827438e-05)
5(2.080058041e-06 3.258561635e-06 5.129137315e-06 8.649452322e-06 1.521516095e-05)
5(2.646589143e-06 4.10283504e-06 6.309238847e-06 1.037021397e-05 1.762327194e-05)
5(3.385436609e-06 5.130269795e-06 7.730585887e-06 1.233254515e-05 2.030347525e-05)
5(4.268219802e-06 6.369228297e-06 9.398556062e-06 1.453476881e-05 2.316021972e-05)
5(5.39127267e-06 7.851468795e-06 1.133110735e-05 1.698955159e-05 2.617230315e-05)
5(6.743632264e-06 9.609159554e-06 1.353849574e-05 1.967088453e-05 2.91201821e-05)
5(8.440760797e-06 1.169124367e-05 1.606226204e-05 2.256281097e-05 3.229474181e-05)
5(1.043839448e-05 1.415599676e-05 1.893229466e-05 2.566604489e-05 3.531996131e-05)
5(1.283460991e-05 1.703486296e-05 2.216431235e-05 2.903260017e-05 3.849303508e-05)
5(1.584631761e-05 2.040921934e-05 2.578914253e-05 3.258126356e-05 4.152966658e-05)
5(1.926481633e-05 2.434349668e-05 2.987171335e-05 3.641558174e-05 4.459236765e-05)
5(2.361136141e-05 2.888006173e-05 3.440839872e-05 4.047306865e-05 4.769021387e-05)
5(2.867551336e-05 3.409054633e-05 3.949051908e-05 4.484556865e-05 5.079349261e-05)
5(3.42378594e-05 4.007736752e-05 4.504855579e-05 4.945292166e-05 5.400051922e-05)
5(4.11741447e-05 4.681048367e-05 5.120859788e-05 5.440315079e-05 5.735282983e-05)
5(4.942085502e-05 5.43428796e-05 5.782656333e-05 5.969318135e-05 6.090396903e-05)
5(5.826675578e-05 6.261510345e-05 6.510759786e-05 6.532321959e-05 6.497727803e-05)
5(6.843576528e-05 7.173891969e-05 7.295297297e-05 7.128981148e-05 6.896677761e-05)
5(7.986843464e-05 8.16457797e-05 8.124156654e-05 7.76516066e-05 7.338046466e-05)
5(9.219286933e-05 9.222015781e-05 8.995655648e-05 8.447387272e-05 7.854856323e-05)
5(0.0001051393559 0.000103238396 9.909726e-05 9.172185041e-05 8.399953455e-05)
5(0.0001192105103 0.0001147195388 0.0001088481429 9.974590031e-05 9.060695171e-05)
5(0.0001342691364 0.0001268814656 0.0001192097615 0.000108791152 9.858704531e-05)
5(0.0001494906573 0.0001395946844 0.0001302965065 0.000119232593 0.0001087619795)
5(0.0001649995766 0.0001530735256 0.0001433086966 0.0001319359972 0.0001213443435)
5(0.0001806758345 0.0001676894121 0.0001583038155 0.0001482929022 0.0001392401289)
5(0.0001980000733 0.0001843547271 0.0001769322819 0.0001693876189 0.0001613576295)
5(0.0002174071918 0.0002049588798 0.0002010475993 0.0001973771815 0.0001922787574)
5(0.0002393446384 0.0002315759296 0.0002326483006 0.0002346002094 0.0002314629549)
5(0.0002664459483 0.0002662931235 0.0002754646668 0.0002824610653 0.000281182954)
5(0.0003019314319 0.0003122282259 0.0003309747598 0.0003433132736 0.0003434896038)
5(0.0003504632475 0.0003731595653 0.000402218645 0.0004180018821 0.0004126244016)
5(0.0004138916592 0.0004526050065 0.0004902402822 0.0005041602512 0.0004830714048)
5(0.000501260432 0.0005525476512 0.0005933424393 0.0005949150784 0.0005507050547)
5(0.0006115797796 0.0006720111277 0.0007056434418 0.0006800681298 0.0005989367822)
5(0.0007477863464 0.000805607449 0.0008163281581 0.0007456942332 0.0006216866708)
5(0.0009053691137 0.0009425959004 0.0009070677732 0.0007760404532 0.0006093636104)
5(0.00107316047 0.001065950277 0.0009581728037 0.0007608348019 0.0005601353052)
5(0.001222911188 0.001151352939 0.0009506829356 0.0006961946209 0.000474960142)
5(0.001356309075 0.001173646763 0.0008730219513 0.0005895225529 0.0003694425675)
5(0.001423480077 0.001116143388 0.0007355454499 0.0004545664028 0.0002585113263)
5(0.001404104147 0.0009744369153 0.0005612830582 0.0003139411454 0.0001610815579)
5(0.001292407327 0.0007685888998 0.0003787251 0.0001917516777 8.917856161e-05)
5(0.001087512715 0.0005444464363 0.0002221693594 0.0001025685098 4.497150039e-05)
5(0.0008187635588 0.0003283433565 0.0001134714717 4.789621722e-05 2.1492088e-05)
5(0.0005551713491 0.0001711973144 4.974382105e-05 2.234213037e-05 1.189406201e-05)
5(0.0003102845032 7.741878516e-05 2.19347763e-05 1.226357543e-05 8.557912886e-06)
5(0.0001606640762 3.206138636e-05 1.260270024e-05 9.331594963e-06 7.670818208e-06)
5(6.546336642e-05 1.716271679e-05 1.058750068e-05 8.558102403e-06 7.372092765e-06)
5(2.804505269e-05 1.217464733e-05 9.791147653e-06 8.241256002e-06 7.296825341e-06)
5(1.522580383e-05 1.063296269e-05 9.386165155e-06 8.120040664e-06 7.438455674e-06)
5(1.285652371e-05 8.905730985e-06 9.219451526e-06 8.233243915e-06 8.002359909e-06)
)


60
(
5(7.299057278e-07 7.803705088e-07 2.174479384e-06 4.032085557e-06 1.089364073e-05)
5(7.058502535e-07 9.535365227e-07 1.886423433e-06 3.776271785e-06 8.965914993e-06)
5(7.573172711e-07 1.168562257e-06 1.977440655e-06 3.984174754e-06 8.547518929e-06)
5(9.044267523e-07 1.461874013e-06 2.379735457e-06 4.636669613e-06 9.324177982e-06)
5(1.162871245e-06 1.862152811e-06 3.054628073e-06 5.664430772e-06 1.104054254e-05)
5(1.522119188e-06 2.396568468e-06 3.938409829e-06 6.991686443e-06 1.31949273e-05)
5(1.981340177e-06 3.063236856e-06 4.978609252e-06 8.548298037e-06 1.553062264e-05)
5(2.542335483e-06 3.883855479e-06 6.17029063e-06 1.032224343e-05 1.804450005e-05)
5(3.21164077e-06 4.889330987e-06 7.562688264e-06 1.232579765e-05 2.070940061e-05)
5(4.089054712e-06 6.098447596e-06 9.214091951e-06 1.462132732e-05 2.379720505e-05)
5(5.153984884e-06 7.568751547e-06 1.118569651e-05 1.722520318e-05 2.707516452e-05)
5(6.480999049e-06 9.317179988e-06 1.34833511e-05 2.016062619e-05 3.065719049e-05)
5(8.130204561e-06 1.140848567e-05 1.61600669e-05 2.339745956e-05 3.43477909e-05)
5(1.009692341e-05 1.389933065e-05 1.919090291e-05 2.695361174e-05 3.82474158e-05)
5(1.255356872e-05 1.684941438e-05 2.267227292e-05 3.082434959e-05 4.217917207e-05)
5(1.548365524e-05 2.031940099e-05 2.659874005e-05 3.501352296e-05 4.623754142e-05)
5(1.899344766e-05 2.438375537e-05 3.112279048e-05 3.956405268e-05 5.039890117e-05)
5(2.315601345e-05 2.914694253e-05 3.621740781e-05 4.443713604e-05 5.466955444e-05)
5(2.842981354e-05 3.471871121e-05 4.19330129e-05 4.983696262e-05 5.893375979e-05)
5(3.43178706e-05 4.113357413e-05 4.833907261e-05 5.556957771e-05 6.348780963e-05)
5(4.154360838e-05 4.849217678e-05 5.548458351e-05 6.177610853e-05 6.800152306e-05)
5(5.0161362e-05 5.699974583e-05 6.345547703e-05 6.844885037e-05 7.288803932e-05)
5(5.954059611e-05 6.654700352e-05 7.220830248e-05 7.554814824e-05 7.798747217e-05)
5(7.123881879e-05 7.720516554e-05 8.180141022e-05 8.319601966e-05 8.336772146e-05)
5(8.394033102e-05 8.90283366e-05 9.222460607e-05 9.132867099e-05 8.926851525e-05)
5(9.80184697e-05 0.000101729472 0.0001032133371 9.993166457e-05 9.496453717e-05)
5(0.0001146486221 0.0001158284156 0.000114890426 0.000108892049 0.0001016431459)
5(0.0001319084752 0.0001306199379 0.0001271369981 0.0001181020333 0.0001083477831)
5(0.0001492430176 0.0001457762187 0.0001395944614 0.0001276261689 0.0001149879403)
5(0.0001692404571 0.0001613117776 0.0001522119371 0.0001374342243 0.0001226545173)
5(0.0001894067583 0.0001772471483 0.00016489101 0.0001474417225 0.0001310401932)
5(0.0002089119197 0.0001929848452 0.0001775743149 0.0001578105141 0.0001396457199)
5(0.0002278236064 0.00020836256 0.0001904576217 0.000169549895 0.000151152998)
5(0.0002474034365 0.0002231926361 0.0002042510707 0.0001832004676 0.0001656930769)
5(0.0002657683973 0.0002384895734 0.0002200353049 0.000200180314 0.0001847357205)
5(0.0002832757206 0.0002551464637 0.0002387650062 0.0002224375323 0.0002096721892)
5(0.0003016655676 0.0002745971509 0.0002623337306 0.0002522244256 0.0002446660294)
5(0.0003222865371 0.0002993334506 0.0002947520467 0.0002914003542 0.0002895494426)
5(0.0003472274678 0.0003327321785 0.0003390840355 0.0003440461771 0.0003472739068)
5(0.0003801924462 0.0003794997485 0.0003996892136 0.000413282063 0.0004208259002)
5(0.0004276340351 0.0004446993188 0.0004791469282 0.0004989453702 0.0005024144872)
5(0.0004938629155 0.0005326082636 0.0005800324414 0.0005995825889 0.0005867919793)
5(0.0005833867948 0.0006463205794 0.0007019529647 0.0007078960947 0.0006685185746)
5(0.0007068299983 0.0007874901554 0.0008380518144 0.0008090739828 0.0007274072568)
5(0.0008608536066 0.0009498150599 0.0009770911137 0.0008901797136 0.0007577323889)
5(0.001044412003 0.001121382066 0.001093322853 0.000930612047 0.0007405523262)
5(0.001243729043 0.001280910389 0.001162873923 0.0009164304517 0.000678778274)
5(0.001434572151 0.001402043517 0.001162562012 0.0008432363047 0.0005736077076)
5(0.001603564427 0.001452188941 0.001081011611 0.0007159068782 0.0004447576804)
5(0.001707355886 0.001401206279 0.0009236915325 0.000551872881 0.0003082022264)
5(0.001722839405 0.001250981099 0.0007144257422 0.0003809287063 0.0001896241852)
5(0.001628988885 0.001018213596 0.0004894191692 0.0002322111235 0.0001020728169)
5(0.001442079979 0.0007407019122 0.0002953883918 0.0001219073586 5.128419044e-05)