/*--------------------------------*- C++ -*----------------------------------*\
| =========                 |                                                 |
| \\      /  F ield         | OpenFOAM: The Open Source CFD Toolbox           |
|  \\    /   O peration     | Version:  2.3.1                                 |
|   \\  /    A nd           | Web:      www.OpenFOAM.org                      |
|    \\/     M anipulation  |                                                 |
\*---------------------------------------------------------------------------*/
FoamFile
{
    version     2.0;
    format      ascii;
    class       dictionary;
    location    "constant";
    object      PM57;
}
// * * * * * * * * * * * * * * * * * * * * * * * * * * * * * * * * * * * * * //

PM57_table
60
(

60
(
5(-2.503585875e-10 6.853403051e-09 6.128852974e-09 4.140370889e-09 1.204855799e-07)
5(2.20150605e-07 -4.200048753e-09 -6.628610133e-09 -6.571323986e-09 1.49937166e-07)
5(2.517818789e-07 -3.024309231e-08 -6.943134877e-09 -1.229793639e-09 -1.009358068e-08)
5(2.435574841e-07 -7.630036123e-08 -8.44482488e-09 -1.654430057e-08 -2.359469322e-08)
5(1.705334063e-07 -1.165344709e-07 -8.888421715e-09 -2.663079674e-08 -2.796665775e-08)
5(-6.018475143e-08 -1.201189423e-07 -1.381823035e-08 -3.350657352e-08 -7.215946011e-08)
5(-2.170231805e-07 -1.408118308e-08 -2.651517548e-08 -4.887333474e-08 -1.12695572e-07)
5(2.331162973e-07 -2.060416031e-08 -3.448597418e-08 -6.299497434e-08 -9.237735236e-08)
5(3.844579417e-07 -1.404201108e-07 -4.296624894e-08 -8.388576213e-08 -1.852814539e-07)
5(2.00564113e-07 -2.181977901e-07 -5.852118378e-08 -1.067152096e-07 -2.336779102e-07)
5(-2.127093569e-07 -2.531015405e-07 -7.270858384e-08 -1.413269696e-07 -2.86797147e-07)
5(-4.3462776e-07 -1.307643201e-07 -9.315361981e-08 -1.831363497e-07 -3.522569663e-07)
5(-1.73715758e-07 -7.634757583e-08 -1.244474955e-07 -2.284262491e-07 -4.398341484e-07)
5(-5.622663375e-08 -9.606665512e-08 -1.558839989e-07 -2.760161621e-07 -5.212195938e-07)
5(-5.933432044e-08 -1.192283804e-07 -1.952984035e-07 -3.450742255e-07 -6.149233636e-07)
5(-7.814432406e-08 -1.558713581e-07 -2.437065454e-07 -4.09264215e-07 -7.230735029e-07)
5(-1.235922549e-07 -1.979188325e-07 -3.002626071e-07 -4.906365389e-07 -8.341112196e-07)
5(-1.604368187e-07 -2.44901562e-07 -3.687012794e-07 -5.744192701e-07 -9.255257555e-07)
5(-1.970343843e-07 -3.051598683e-07 -4.444839815e-07 -6.699668062e-07 -1.025650472e-06)
5(-2.462106177e-07 -3.75942159e-07 -5.31564449e-07 -7.731663968e-07 -1.112797679e-06)
5(-3.102680836e-07 -4.601205037e-07 -6.364203473e-07 -8.701404322e-07 -1.217883541e-06)
5(-3.962322455e-07 -5.753885919e-07 -7.637492264e-07 -1.013026441e-06 -1.371050904e-06)
5(-4.999570914e-07 -7.180344278e-07 -9.279173518e-07 -1.218422152e-06 -1.543026543e-06)
5(-6.361084362e-07 -8.958264773e-07 -1.134306002e-06 -1.430740127e-06 -1.725611974e-06)
5(-8.124715325e-07 -1.111214604e-06 -1.410935196e-06 -1.731713272e-06 -1.992103659e-06)
5(-1.033535173e-06 -1.426556094e-06 -1.769293707e-06 -2.11024381e-06 -2.329037841e-06)
5(-1.349866253e-06 -1.881536729e-06 -2.252648558e-06 -2.642362392e-06 -2.829515727e-06)
5(-1.801366431e-06 -2.500208746e-06 -2.926438997e-06 -3.366205052e-06 -3.526315531e-06)
5(-2.40234375e-06 -3.307647733e-06 -3.850976884e-06 -4.398343317e-06 -4.518162035e-06)
5(-3.231863209e-06 -4.449790639e-06 -5.169538058e-06 -5.876397571e-06 -5.909213897e-06)
5(-4.411809007e-06 -6.044032605e-06 -7.012854942e-06 -7.868943312e-06 -7.674577437e-06)
5(-6.07114002e-06 -8.274094692e-06 -9.515182562e-06 -1.047265063e-05 -1.014105017e-05)
5(-8.418036148e-06 -1.13412726e-05 -1.296797899e-05 -1.422353911e-05 -1.356932779e-05)
5(-1.16503727e-05 -1.544902806e-05 -1.738697548e-05 -1.85872929e-05 -1.70290448e-05)
5(-1.606511588e-05 -2.086867979e-05 -2.31983132e-05 -2.426464156e-05 -2.200188945e-05)
5(-2.197154904e-05 -2.774800458e-05 -3.006455724e-05 -3.051556042e-05 -2.704342388e-05)
5(-2.961104851e-05 -3.633150483e-05 -3.881949098e-05 -3.819430705e-05 -3.105754415e-05)
5(-3.912566647e-05 -4.617309001e-05 -4.868321529e-05 -4.391035434e-05 -3.422951689e-05)
5(-5.016324189e-05 -5.712300636e-05 -5.798254303e-05 -5.183157714e-05 -3.278030977e-05)
5(-6.215028884e-05 -6.830300068e-05 -6.588368551e-05 -4.57317905e-05 -1.570993607e-06)
5(-7.497617172e-05 -7.841631833e-05 -7.211126455e-05 -4.099027896e-05 -2.351972947e-05)
5(-8.690701173e-05 -8.558245528e-05 -7.141770151e-05 -2.272049457e-05 -2.497349045e-05)
5(-9.492561655e-05 -8.869522788e-05 -6.319685705e-05 -2.9162352e-05 -2.507656118e-05)
5(-9.838361857e-05 -8.587940032e-05 -5.374710655e-05 -3.147523108e-05 -1.797428973e-05)
5(-9.47909955e-05 -7.723836133e-05 -4.118347767e-05 -2.301752811e-05 -1.149952141e-05)
5(-8.67499548e-05 -6.236360908e-05 -2.040709619e-05 -1.537266056e-05 -6.439188753e-06)
5(-7.077419688e-05 -3.910154768e-05 -1.370345581e-05 -1.006558457e-05 -3.150672752e-06)
5(-5.077798093e-05 -2.620507188e-05 -1.275261085e-05 -5.200831977e-06 -1.363897158e-06)
5(-3.381108981e-05 -1.099232161e-05 -6.85183382e-06 -2.26741025e-06 -5.560589368e-07)
5(-5.955784454e-06 -5.71798314e-06 -3.414647688e-06 -8.803241799e-07 -2.52554687e-07)
5(-2.081761313e-06 -3.508284605e-06 -1.289777619e-06 -3.595186116e-07 -1.505307428e-07)
5(-3.610306022e-06 -1.443468365e-06 -4.838087698e-07 -1.857526157e-07 -1.173795375e-07)
5(-1.555146643e-06 -5.189135024e-07 -2.325377843e-07 -1.320138272e-07 -1.057162435e-07)
5(-5.002612928e-07 -2.298826359e-07 -1.583228468e-07 -1.127226073e-07 -1.004857302e-07)
5(-2.20076978e-07 -1.553859646e-07 -1.325097629e-07 -1.02248892e-07 -9.64376761e-08)
5(-1.412075948e-07 -1.240821493e-07 -1.158072611e-07 -9.220176293e-08 -9.267774436e-08)
5(-8.756607173e-08 -9.897602084e-08 -9.817669166e-08 -7.954004034e-08 -9.189279386e-08)
5(-1.981192333e-08 -6.121084353e-08 -7.259599215e-08 -4.452162759e-08 -7.949748627e-08)
5(8.421685296e-08 1.647349934e-08 2.803799686e-09 -1.235829467e-07 -1.023361924e-07)
5(1.786171645e-07 2.67166107e-07 3.934088462e-07 5.077580975e-07 6.11763003e-07)
)


60
(
5(-5.461832927e-09 -4.597983699e-09 -1.086514892e-08 -5.339380998e-09 -4.43778668e-08)
5(-5.611572629e-09 -6.01514794e-09 -1.227770684e-08 -1.716001316e-08 -6.716789336e-08)
5(4.017087897e-08 -7.374542529e-09 -9.987945596e-09 -1.917291377e-08 -4.489808219e-08)
5(1.36551897e-07 -8.780072921e-09 -1.073289676e-08 -2.144311456e-08 -4.466228866e-08)
5(1.795925832e-07 -1.07188022e-08 -1.448888917e-08 -2.863916744e-08 -7.017130292e-08)
5(1.332569976e-07 -1.326271459e-08 -1.726002602e-08 -3.540644216e-08 -9.605341376e-08)
5(-9.905355948e-09 -1.673960619e-08 -2.361803505e-08 -4.240049157e-08 -1.316934264e-07)
5(-1.159757336e-08 -2.161857199e-08 -3.268695552e-08 -5.639610607e-08 -1.512640254e-07)
5(1.312649895e-07 -2.839056812e-08 -4.09980213e-08 -7.393622094e-08 -1.945397559e-07)
5(2.211250227e-07 -3.662461953e-08 -5.400884331e-08 -9.253915494e-08 -2.402312052e-07)
5(2.343518577e-07 -4.701147392e-08 -6.958892181e-08 -1.174638103e-07 -3.051442647e-07)
5(5.306834191e-08 -6.091495546e-08 -8.837184024e-08 -1.47687031e-07 -3.698154616e-07)
5(-4.084264755e-08 -7.746746195e-08 -1.118149739e-07 -1.850158095e-07 -4.441249707e-07)
5(-5.337849611e-08 -9.804201913e-08 -1.418468544e-07 -2.275857445e-07 -5.294235831e-07)
5(-6.868619631e-08 -1.235526087e-07 -1.783138546e-07 -2.814221238e-07 -6.211221778e-07)
5(-8.144041767e-08 -1.540100116e-07 -2.227498131e-07 -3.430448178e-07 -7.191761822e-07)
5(-1.065250109e-07 -1.928605022e-07 -2.746057352e-07 -4.12748575e-07 -8.234906947e-07)
5(-1.428549847e-07 -2.39359061e-07 -3.358737546e-07 -4.93273743e-07 -9.342259856e-07)
5(-1.848848761e-07 -2.949609884e-07 -4.066894647e-07 -5.82699676e-07 -1.045070165e-06)
5(-2.332340405e-07 -3.608331669e-07 -4.871647691e-07 -6.820369948e-07 -1.150740636e-06)
5(-2.931709609e-07 -4.360963094e-07 -5.760533578e-07 -7.855647687e-07 -1.244932488e-06)
5(-3.640049219e-07 -5.227105099e-07 -6.747977444e-07 -9.002133319e-07 -1.359155837e-06)
5(-4.471554938e-07 -6.190307069e-07 -7.807374195e-07 -1.013400641e-06 -1.456279767e-06)
5(-5.353101446e-07 -7.237358617e-07 -8.906279333e-07 -1.133078501e-06 -1.553670283e-06)
5(-6.386805716e-07 -8.350986014e-07 -1.005406759e-06 -1.256056749e-06 -1.648937768e-06)
5(-7.382877819e-07 -9.45436612e-07 -1.11618329e-06 -1.378070314e-06 -1.757685671e-06)
5(-8.349088917e-07 -1.062583618e-06 -1.222750862e-06 -1.507063969e-06 -1.88701358e-06)
5(-9.213116237e-07 -1.176620378e-06 -1.318877753e-06 -1.661337441e-06 -2.071884681e-06)
5(-9.741539762e-07 -1.275183158e-06 -1.422511221e-06 -1.873613317e-06 -2.342059046e-06)
5(-9.858199453e-07 -1.358600278e-06 -1.551783235e-06 -2.190505302e-06 -2.787009131e-06)
5(-9.400843657e-07 -1.459525163e-06 -1.75999614e-06 -2.700570585e-06 -3.516905554e-06)
5(-8.717332325e-07 -1.655403818e-06 -2.177784565e-06 -3.616776985e-06 -4.756750755e-06)
5(-8.390884083e-07 -2.014046372e-06 -2.942276096e-06 -5.081415008e-06 -6.587969441e-06)
5(-8.962484709e-07 -2.680072418e-06 -4.282081621e-06 -7.522936716e-06 -9.861588847e-06)
5(-1.262555993e-06 -4.003130895e-06 -6.68710876e-06 -1.132509027e-05 -1.436769892e-05)
5(-2.270958736e-06 -6.223516657e-06 -1.031596774e-05 -1.69000292e-05 -2.076225845e-05)
5(-4.529636375e-06 -1.023509923e-05 -1.680428708e-05 -2.514731578e-05 -2.92121442e-05)
5(-8.259899451e-06 -1.602132785e-05 -2.550859992e-05 -3.541227398e-05 -4.159817543e-05)
5(-1.455079657e-05 -2.470328494e-05 -3.671296272e-05 -4.856967482e-05 -5.165592322e-05)
5(-2.351051154e-05 -3.618206351e-05 -5.013854494e-05 -6.240672758e-05 -7.253568018e-05)
5(-3.655691454e-05 -5.144148293e-05 -6.75316166e-05 -7.682280162e-05 -8.219700833e-05)
5(-5.339996964e-05 -6.827525908e-05 -8.435225452e-05 -9.385090091e-05 -8.615866869e-05)
5(-7.229575807e-05 -8.686358101e-05 -9.938185945e-05 -0.0001097417249 -8.210536378e-05)
5(-9.118198782e-05 -9.98010769e-05 -9.95432817e-05 -0.0001049666128 -7.04736024e-05)
5(-0.000106365598 -0.0001085641851 -0.0001008408672 -9.014283045e-05 -5.482471674e-05)
5(-0.0001162804997 -0.0001068929254 -9.319656792e-05 -6.956437873e-05 -3.73512267e-05)
5(-0.0001153695691 -9.907210153e-05 -8.742061957e-05 -4.714607206e-05 -2.214955789e-05)
5(-0.0001039475339 -8.569293795e-05 -6.289613426e-05 -2.778299546e-05 -1.128516463e-05)
5(-8.080708327e-05 -5.872730483e-05 -3.749142316e-05 -1.402128138e-05 -4.931488555e-06)
5(-5.457813155e-05 -4.316121209e-05 -1.883605789e-05 -6.000214133e-06 -1.885185449e-06)
5(-3.220128059e-05 -2.128217539e-05 -7.909307791e-06 -2.225392868e-06 -7.056729334e-07)
5(-1.871853327e-05 -8.47938757e-06 -2.783753797e-06 -7.867653484e-07 -3.143253018e-07)
5(-7.332443604e-06 -2.829226385e-06 -9.287031723e-07 -3.316287276e-07 -1.887765963e-07)
5(-2.225210369e-06 -8.587824001e-07 -3.799672526e-07 -1.938890841e-07 -1.43303819e-07)
5(-6.452331208e-07 -3.409428746e-07 -2.312281834e-07 -1.402515098e-07 -1.150816647e-07)
5(-2.665204421e-07 -2.058806336e-07 -1.685996451e-07 -1.026324181e-07 -9.035228291e-08)
5(-1.151901278e-07 -1.339010235e-07 -1.15169544e-07 -6.257341006e-08 -6.853959286e-08)
5(2.886433123e-08 -3.857669594e-08 -4.710465921e-08 -1.236150101e-08 -3.816481634e-08)
5(2.547605872e-07 1.609047986e-07 1.760860258e-07 -3.718508621e-08 2.33522516e-08)
5(4.873932747e-07 5.74929999e-07 6.951421659e-07 9.37528651e-07 8.634387941e-07)
)


60
(
5(-5.90030201e-09 -4.055227823e-09 -9.158981832e-09 1.508638644e-08 -4.512011217e-08)
5(-5.71714878e-09 -6.244591496e-09 -9.63514366e-09 -4.696101055e-09 -7.302103335e-08)
5(-4.875926605e-09 -6.591579695e-09 -6.328024376e-09 -5.752627091e-09 -4.33569702e-08)
5(-4.38028663e-09 -6.740652223e-09 -4.325297488e-09 -9.064130857e-10 -3.429191734e-08)
5(-4.17513163e-09 -6.576949372e-09 -2.194136463e-09 8.144930962e-09 -3.323302671e-08)
5(-3.840987906e-09 -6.017748597e-09 1.290559599e-09 2.189009682e-08 -2.765853921e-08)
5(-3.124683809e-09 -5.425621718e-09 4.901323498e-09 3.60021869e-08 -1.867191654e-08)
5(-2.61581621e-09 -5.353054682e-09 9.053429106e-09 4.995373175e-08 -8.26049061e-09)
5(-1.751392076e-09 -5.453705101e-09 1.319597413e-08 6.36549353e-08 -6.803966085e-09)
5(-5.257387763e-10 -5.156178548e-09 1.80758376e-08 7.873467107e-08 -1.011576664e-08)
5(8.026585841e-10 -4.230363278e-09 2.367188472e-08 9.874489399e-08 -2.048384403e-09)
5(1.847726822e-09 -3.804533839e-09 3.086547547e-08 1.204776717e-07 4.226086802e-09)
5(3.37795675e-09 -2.66232397e-09 3.758843029e-08 1.391867725e-07 1.492965356e-09)
5(6.031310935e-09 -1.756867825e-09 4.330622619e-08 1.559702801e-07 -4.141286689e-09)
5(8.888038548e-09 -1.299599406e-09 4.659691323e-08 1.677251486e-07 -1.479384819e-08)
5(8.515568729e-09 -1.478400257e-09 4.850854809e-08 1.720242778e-07 -3.840295794e-08)
5(8.726004088e-09 -1.423426675e-09 4.801532509e-08 1.701882753e-07 -6.244313595e-08)
5(1.182706205e-08 -2.019438553e-09 4.577835791e-08 1.658206914e-07 -8.402915992e-08)
5(1.12282177e-08 -4.308102948e-09 4.254521106e-08 1.566114727e-07 -1.160310787e-07)
5(1.569795611e-08 -3.807442692e-09 4.168894981e-08 1.482049588e-07 -1.406204368e-07)
5(1.369522762e-08 -8.119895201e-10 4.530717436e-08 1.400014218e-07 -1.524751295e-07)
5(1.402283274e-08 1.33419378e-08 5.840647002e-08 1.57442352e-07 -1.376376733e-07)
5(2.974297325e-08 3.972062482e-08 8.904060115e-08 1.918369038e-07 -1.015478627e-07)
5(6.813896734e-08 9.116018166e-08 1.627516986e-07 2.648833089e-07 -2.314843216e-08)
5(1.201982821e-07 1.819839478e-07 2.80350805e-07 4.097359243e-07 1.259507621e-07)
5(2.316024742e-07 3.40142619e-07 4.96258026e-07 6.493965794e-07 3.608378502e-07)
5(4.258539847e-07 5.854400293e-07 8.106066022e-07 1.011520876e-06 6.972034173e-07)
5(6.996708953e-07 9.72694258e-07 1.298292136e-06 1.561036078e-06 1.194073915e-06)
5(1.177742077e-06 1.578739035e-06 2.03352319e-06 2.343387498e-06 1.921255275e-06)
5(1.878152349e-06 2.438563861e-06 3.064612225e-06 3.434667205e-06 2.834438486e-06)
5(2.922631356e-06 3.690332401e-06 4.501345203e-06 4.855373166e-06 3.950919282e-06)
5(4.437509397e-06 5.42020311e-06 6.409876405e-06 6.68055398e-06 5.31419903e-06)
5(6.518192804e-06 7.704041369e-06 8.834693316e-06 8.795389049e-06 6.738243494e-06)
5(9.267811116e-06 1.064711128e-05 1.177699004e-05 1.114987241e-05 8.091345765e-06)
5(1.285958894e-05 1.429402921e-05 1.509251536e-05 1.343380249e-05 8.880105385e-06)
5(1.723454123e-05 1.842000461e-05 1.851941965e-05 1.527073818e-05 8.735228465e-06)
5(2.199190531e-05 2.284079397e-05 2.162889006e-05 1.590008345e-05 6.989440999e-06)
5(2.765236667e-05 2.728525167e-05 2.35318647e-05 1.465208159e-05 2.898247075e-06)
5(3.298867606e-05 3.049569144e-05 2.352444315e-05 1.086096585e-05 -3.973292555e-06)
5(3.727600852e-05 3.204584764e-05 2.066081851e-05 3.72546287e-06 -1.372118576e-05)
5(3.957381807e-05 3.039198328e-05 1.382281704e-05 -6.675666362e-06 -2.623300984e-05)
5(3.867351297e-05 2.541268448e-05 3.500277665e-06 -1.950632767e-05 -3.915916478e-05)
5(3.407098893e-05 1.590947228e-05 -9.847783381e-06 -3.317204799e-05 -4.999149532e-05)
5(2.55377707e-05 2.374444694e-06 -2.425361173e-05 -4.505277327e-05 -5.588946975e-05)
5(1.365135908e-05 -1.236264158e-05 -3.717532017e-05 -5.223383641e-05 -5.515649247e-05)
5(2.390666339e-07 -2.584644663e-05 -4.53969338e-05 -5.259456072e-05 -4.808279565e-05)
5(-1.092006936e-05 -3.503406701e-05 -4.768649581e-05 -4.57177967e-05 -3.651000762e-05)
5(-1.773119896e-05 -3.806936995e-05 -4.272287061e-05 -3.423134724e-05 -2.413217243e-05)
5(-1.76444424e-05 -3.409135697e-05 -3.265482089e-05 -2.185142131e-05 -1.358347748e-05)
5(-1.306779646e-05 -2.565037e-05 -2.104889414e-05 -1.173005187e-05 -6.358825952e-06)
5(-6.126458476e-06 -1.617015235e-05 -1.109047679e-05 -5.13685622e-06 -2.501136904e-06)
5(-6.603174692e-07 -8.080979939e-06 -4.626680601e-06 -1.808413931e-06 -7.824356985e-07)
5(1.400289607e-06 -2.963274421e-06 -1.446617157e-06 -4.708469023e-07 -2.028130485e-07)
5(1.433108575e-06 -6.633298925e-07 -2.809425578e-07 -5.220276923e-08 -1.965589647e-08)
5(9.234989407e-07 5.926643574e-08 4.524661176e-08 6.150747595e-08 4.109917662e-08)
5(5.717645303e-07 2.210705677e-07 1.216798634e-07 1.071029733e-07 8.41740765e-08)
5(4.75869902e-07 2.604208022e-07 1.568131476e-07 1.453213539e-07 1.27426073e-07)
5(4.75123338e-07 2.990797238e-07 2.010037474e-07 1.963649453e-07 1.814866873e-07)
5(6.054677964e-07 4.402375615e-07 3.362394354e-07 3.185241577e-07 2.807773154e-07)
5(9.53304573e-07 1.209081798e-06 9.254483536e-07 7.392536192e-07 8.314425003e-07)
)


60
(
5(-4.529580507e-09 2.867651893e-10 2.692683529e-09 6.933517518e-08 1.284441143e-08)
5(-3.004050579e-09 -1.209673077e-09 5.475672077e-09 4.58404351e-08 -1.111264659e-08)
5(-1.101218182e-10 2.113960373e-09 1.606240022e-08 5.891307285e-08 4.563981221e-08)
5(3.356925895e-09 7.351185714e-09 2.947107698e-08 8.931759986e-08 9.949506371e-08)
5(8.130754219e-09 1.507346058e-08 4.825621806e-08 1.373361163e-07 1.67055562e-07)
5(1.458999054e-08 2.569375807e-08 7.361309998e-08 2.007664634e-07 2.511784667e-07)
5(2.305759315e-08 3.883631759e-08 1.03935147e-07 2.703262275e-07 3.414069032e-07)
5(3.371734528e-08 5.472320152e-08 1.380416109e-07 3.41681324e-07 4.358247251e-07)
5(4.739262625e-08 7.404979906e-08 1.776298525e-07 4.234523089e-07 5.348744563e-07)
5(6.414998405e-08 9.848384234e-08 2.245106334e-07 5.173245819e-07 6.457916e-07)
5(8.551001069e-08 1.28555163e-07 2.816419007e-07 6.274091975e-07 7.657286809e-07)
5(1.123632903e-07 1.652228455e-07 3.479798052e-07 7.420289089e-07 8.859160336e-07)
5(1.444342033e-07 2.097460203e-07 4.209443071e-07 8.622066985e-07 1.012527065e-06)
5(1.842807194e-07 2.615363168e-07 4.998596157e-07 9.840963454e-07 1.12060529e-06)
5(2.331537917e-07 3.205049571e-07 5.845410272e-07 1.09819424e-06 1.202879723e-06)
5(2.90238511e-07 3.880415139e-07 6.762265102e-07 1.206140125e-06 1.280532801e-06)
5(3.541901928e-07 4.664133985e-07 7.73986014e-07 1.30951654e-06 1.335904884e-06)
5(4.389312857e-07 5.573267774e-07 8.731604052e-07 1.407866725e-06 1.378391727e-06)
5(5.26204846e-07 6.573306061e-07 9.87055049e-07 1.49453809e-06 1.41662047e-06)
5(6.390763902e-07 7.813045866e-07 1.104183397e-06 1.580271117e-06 1.441168787e-06)
5(7.82185283e-07 9.179586274e-07 1.234681999e-06 1.679392781e-06 1.509672549e-06)
5(9.308005961e-07 1.075641907e-06 1.396392996e-06 1.805047362e-06 1.595934971e-06)
5(1.090854344e-06 1.279810576e-06 1.601775075e-06 1.969657129e-06 1.70659593e-06)
5(1.349591548e-06 1.54490351e-06 1.847755193e-06 2.196820022e-06 1.889821646e-06)
5(1.653819008e-06 1.851649109e-06 2.174147021e-06 2.510970347e-06 2.152881508e-06)
5(2.031128758e-06 2.269639208e-06 2.636330855e-06 2.981298604e-06 2.60602156e-06)
5(2.519414761e-06 2.801388611e-06 3.259712783e-06 3.645656962e-06 3.220112365e-06)
5(3.174828831e-06 3.565471326e-06 4.13617155e-06 4.588052705e-06 4.075752285e-06)
5(4.092179219e-06 4.584004368e-06 5.334105481e-06 5.88207795e-06 5.305995464e-06)
5(5.315563938e-06 5.981950747e-06 6.993632291e-06 7.65174826e-06 6.926057955e-06)
5(7.012586628e-06 7.917776013e-06 9.261424033e-06 1.004680537e-05 9.137287995e-06)
5(9.298907016e-06 1.048864631e-05 1.221499449e-05 1.311342724e-05 1.184383628e-05)
5(1.234968339e-05 1.385945993e-05 1.607796233e-05 1.696672709e-05 1.5023976e-05)
5(1.639685788e-05 1.833043011e-05 2.090196107e-05 2.150982914e-05 1.865868421e-05)
5(2.159543608e-05 2.384261051e-05 2.659841108e-05 2.672171008e-05 2.240600352e-05)
5(2.80079096e-05 3.046572532e-05 3.316889256e-05 3.187725521e-05 2.530785839e-05)
5(3.575927754e-05 3.809620754e-05 4.005138034e-05 3.657271341e-05 2.736747642e-05)
5(4.458502497e-05 4.619663213e-05 4.655324514e-05 3.992861541e-05 2.70943638e-05)
5(5.38965432e-05 5.416685162e-05 5.170626753e-05 4.043579695e-05 2.31768077e-05)
5(6.320464689e-05 6.091152573e-05 5.390689657e-05 3.708931808e-05 1.501479347e-05)
5(7.095697719e-05 6.506899069e-05 5.207307476e-05 2.884042094e-05 2.157433155e-06)
5(7.650866466e-05 6.535116606e-05 4.493680686e-05 1.581179796e-05 -1.406657887e-05)
5(7.794878107e-05 6.025240985e-05 3.233497655e-05 -1.630328226e-06 -3.21683514e-05)
5(7.471542157e-05 4.954504166e-05 1.498684424e-05 -2.074257312e-05 -4.788273767e-05)
5(6.657598378e-05 3.338825658e-05 -4.787676655e-06 -3.800704391e-05 -5.83870077e-05)
5(5.445159465e-05 1.511244872e-05 -2.306437535e-05 -4.972126912e-05 -6.099047898e-05)
5(4.162004773e-05 -2.020574928e-06 -3.64001e-05 -5.261690969e-05 -5.51835273e-05)
5(3.031705454e-05 -1.480938323e-05 -4.232283673e-05 -4.719906309e-05 -4.342057284e-05)
5(2.358699251e-05 -2.124696344e-05 -3.971158757e-05 -3.585063951e-05 -2.905709966e-05)
5(2.298036609e-05 -2.067106359e-05 -3.051582439e-05 -2.247798839e-05 -1.643940276e-05)
5(2.484752868e-05 -1.584198462e-05 -1.887672002e-05 -1.167936604e-05 -7.739836547e-06)
5(2.597678276e-05 -9.176429199e-06 -9.243325636e-06 -4.809158177e-06 -2.772706754e-06)
5(2.416400597e-05 -3.106828306e-06 -3.337267936e-06 -1.33929662e-06 -6.634252596e-07)
5(1.770249573e-05 -4.668514855e-09 -5.796671996e-07 -3.28195868e-08 5.091515549e-08)
5(9.433133659e-06 8.35540784e-07 3.728596798e-07 3.364102972e-07 2.491431607e-07)
5(4.851947356e-06 1.048847386e-06 5.933229145e-07 4.296172853e-07 3.135107669e-07)
5(2.382217403e-06 1.057877044e-06 6.431478328e-07 4.769209875e-07 3.642665235e-07)
5(1.752795163e-06 1.108028049e-06 7.161483489e-07 5.489087998e-07 4.288429948e-07)
5(2.057098353e-06 1.55077523e-06 1.07828432e-06 8.078538554e-07 5.955724458e-07)
5(2.431458063e-06 2.323871532e-06 2.076084387e-06 1.463021138e-06 1.889228272e-06)
)


60
(
5(-4.520495771e-10 9.912881357e-09 2.864774716e-08 1.669102212e-07 1.441766419e-07)
5(3.787833841e-09 1.081636819e-08 3.900220523e-08 1.476093548e-07 1.377025871e-07)
5(1.120558973e-08 2.181349262e-08 6.38098382e-08 1.880825326e-07 2.40235196e-07)
5(2.042685899e-08 3.716113124e-08 9.801046523e-08 2.615444124e-07 3.645119632e-07)
5(3.327789266e-08 5.837374899e-08 1.445586442e-07 3.675342855e-07 5.240026873e-07)
5(5.113409115e-08 8.653517952e-08 2.046168566e-07 5.009358795e-07 7.151581608e-07)
5(7.379664852e-08 1.215403632e-07 2.760216305e-07 6.480985129e-07 9.174444126e-07)
5(1.019137366e-07 1.632310418e-07 3.565786597e-07 8.036128063e-07 1.126020201e-06)
5(1.368025888e-07 2.141440584e-07 4.506147298e-07 9.794625205e-07 1.348182542e-06)
5(1.809451474e-07 2.771428386e-07 5.604941088e-07 1.177090782e-06 1.589110871e-06)
5(2.372457848e-07 3.543962027e-07 6.915590843e-07 1.401189537e-06 1.850267264e-06)
5(3.046158319e-07 4.473299868e-07 8.399966654e-07 1.63831872e-06 2.110630904e-06)
5(3.904359633e-07 5.568484926e-07 1.007682535e-06 1.889419282e-06 2.366780433e-06)
5(4.873146032e-07 6.833558711e-07 1.190795034e-06 2.13714595e-06 2.592143096e-06)
5(6.081250743e-07 8.315206445e-07 1.390955272e-06 2.385657566e-06 2.813347593e-06)
5(7.575804277e-07 1.005173008e-06 1.607307616e-06 2.623059558e-06 2.986788297e-06)
5(9.258735621e-07 1.200548647e-06 1.835882567e-06 2.861590558e-06 3.134319459e-06)
5(1.131145993e-06 1.424520964e-06 2.084427306e-06 3.07337756e-06 3.251630836e-06)
5(1.367434927e-06 1.683460036e-06 2.351432944e-06 3.288452035e-06 3.366241836e-06)
5(1.653485582e-06 1.975290819e-06 2.634293913e-06 3.506301914e-06 3.473541538e-06)
5(1.978753767e-06 2.302928705e-06 2.957739921e-06 3.740654684e-06 3.593661887e-06)
5(2.351549751e-06 2.69280821e-06 3.307992622e-06 4.00195032e-06 3.74187899e-06)
5(2.80871863e-06 3.135098566e-06 3.715481248e-06 4.30962824e-06 3.920321433e-06)
5(3.350278976e-06 3.644414046e-06 4.174542047e-06 4.7007299e-06 4.199982041e-06)
5(3.947990962e-06 4.236341167e-06 4.760124538e-06 5.188602611e-06 4.597816429e-06)
5(4.696167494e-06 4.946165596e-06 5.479643677e-06 5.848588472e-06 5.170508396e-06)
5(5.590482874e-06 5.819646186e-06 6.3930528e-06 6.724124377e-06 5.919060499e-06)
5(6.663615935e-06 6.920994188e-06 7.554909642e-06 7.920718701e-06 7.039914827e-06)
5(7.960959953e-06 8.291573548e-06 9.093543356e-06 9.537163334e-06 8.565882909e-06)
5(9.656240541e-06 1.006425602e-05 1.115690326e-05 1.172424985e-05 1.065291222e-05)
5(1.184032899e-05 1.239287241e-05 1.385787952e-05 1.463761404e-05 1.347746517e-05)
5(1.462410458e-05 1.543562975e-05 1.736828141e-05 1.849559422e-05 1.705165082e-05)
5(1.826063103e-05 1.942257955e-05 2.203124232e-05 2.32008027e-05 2.118517942e-05)
5(2.298470469e-05 2.451568359e-05 2.778417145e-05 2.905789472e-05 2.647414101e-05)
5(2.898723152e-05 3.084251037e-05 3.48192565e-05 3.587974396e-05 3.204573746e-05)
5(3.638941236e-05 3.860956406e-05 4.311905423e-05 4.340881187e-05 3.78580767e-05)
5(4.527757769e-05 4.781032792e-05 5.226928801e-05 5.108585078e-05 4.300906068e-05)
5(5.580270952e-05 5.817389946e-05 6.184906505e-05 5.785309147e-05 4.6234084e-05)
5(6.750663482e-05 6.899427789e-05 7.059015809e-05 6.235060352e-05 4.62911236e-05)
5(7.977678166e-05 7.934040679e-05 7.723333448e-05 6.317854329e-05 4.13025538e-05)
5(9.151021261e-05 8.793570826e-05 8.016127637e-05 5.865987798e-05 3.062535831e-05)
5(0.0001017386485 9.31955121e-05 7.746822426e-05 4.750762919e-05 1.397225975e-05)
5(0.0001085605937 9.336479525e-05 6.793604679e-05 2.967389699e-05 -8.210528902e-06)
5(0.0001110517199 8.735619758e-05 5.140767422e-05 6.621320035e-06 -3.16585419e-05)
5(0.00010812482 7.477078749e-05 2.952298148e-05 -1.840611648e-05 -5.273203815e-05)
5(0.0001009457417 5.738510299e-05 4.841446475e-06 -4.079139984e-05 -6.676031838e-05)
5(8.869279268e-05 3.727232451e-05 -1.821804932e-05 -5.560393676e-05 -7.137673869e-05)
5(7.748257233e-05 1.833442845e-05 -3.515311115e-05 -5.949819337e-05 -6.55030262e-05)
5(6.720824765e-05 4.138335932e-06 -4.248197366e-05 -5.291191254e-05 -5.183017134e-05)
5(6.255184788e-05 -3.854439349e-06 -3.917718756e-05 -3.966422808e-05 -3.523625825e-05)
5(6.212541501e-05 -5.90373487e-06 -2.924491917e-05 -2.452736344e-05 -1.95664665e-05)
5(6.205867619e-05 -2.528000072e-06 -1.709971498e-05 -1.200807735e-05 -8.722012331e-06)
5(5.980892444e-05 7.442926172e-07 -7.484860395e-06 -4.462244382e-06 -2.891900295e-06)
5(5.444067289e-05 3.093407487e-06 -2.027260394e-06 -6.487831966e-07 -3.402287644e-07)
5(3.949515412e-05 3.929791431e-06 5.270845357e-07 5.740668231e-07 4.081943649e-07)
5(2.620566564e-05 3.027623928e-06 1.271327501e-06 9.030221333e-07 6.104052979e-07)
5(1.294342985e-05 2.780251511e-06 1.553502074e-06 1.01478715e-06 6.899073938e-07)
5(6.661154516e-06 2.536637393e-06 1.709095333e-06 1.139264277e-06 7.956396884e-07)
5(5.002952531e-06 3.234273198e-06 2.667238724e-06 1.746024054e-06 1.210442957e-06)
5(6.056590165e-06 4.150441659e-06 4.277319323e-06 2.972549086e-06 2.807038867e-06)
)


60
(
5(7.218936665e-09 2.637915948e-08 7.23304043e-08 3.115684789e-07 3.521475421e-07)
5(1.548955111e-08 3.174522157e-08 9.534316266e-08 3.057228704e-07 3.748312943e-07)
5(3.046936876e-08 5.505921504e-08 1.417253669e-07 3.856965408e-07 5.432909408e-07)
5(4.930108786e-08 8.557541307e-08 2.053449313e-07 5.205822613e-07 7.676849184e-07)
5(7.416788157e-08 1.260638692e-07 2.900320409e-07 7.011641819e-07 1.028698238e-06)
5(1.084075815e-07 1.792517679e-07 3.966268952e-07 9.182754139e-07 1.339700042e-06)
5(1.515067608e-07 2.442160833e-07 5.213076623e-07 1.159530108e-06 1.669041834e-06)
5(2.051621793e-07 3.220877449e-07 6.622433993e-07 1.415069279e-06 2.002365599e-06)
5(2.710193775e-07 4.164102841e-07 8.261944102e-07 1.701091908e-06 2.364133138e-06)
5(3.5490145e-07 5.306811085e-07 1.016460167e-06 2.021243608e-06 2.748337018e-06)
5(4.559755444e-07 6.70375229e-07 1.239938832e-06 2.377053145e-06 3.154326145e-06)
5(5.839054537e-07 8.361355646e-07 1.492554792e-06 2.756199685e-06 3.561340598e-06)
5(7.36298453e-07 1.031228899e-06 1.778740288e-06 3.151403063e-06 3.958261566e-06)
5(9.21427997e-07 1.25993007e-06 2.088609598e-06 3.548384608e-06 4.326599096e-06)
5(1.143071426e-06 1.524321105e-06 2.432189769e-06 3.949072439e-06 4.663420973e-06)
5(1.405328361e-06 1.829515439e-06 2.795427675e-06 4.337033925e-06 4.953404092e-06)
5(1.721078047e-06 2.181383543e-06 3.201408099e-06 4.730481083e-06 5.222381019e-06)
5(2.083511154e-06 2.581771865e-06 3.63377502e-06 5.092483561e-06 5.441124592e-06)
5(2.531684375e-06 3.040569358e-06 4.098487484e-06 5.487542389e-06 5.651517536e-06)
5(3.036035122e-06 3.556851768e-06 4.604989946e-06 5.857169609e-06 5.83420322e-06)
5(3.606837587e-06 4.13258758e-06 5.145394679e-06 6.256272441e-06 6.045586305e-06)
5(4.316120848e-06 4.806067332e-06 5.755735701e-06 6.698056233e-06 6.291018486e-06)
5(5.085877674e-06 5.544265599e-06 6.421393937e-06 7.170418948e-06 6.570350421e-06)
5(5.972057571e-06 6.370867246e-06 7.169955905e-06 7.748646756e-06 6.965464013e-06)
5(6.999111462e-06 7.317123537e-06 8.050423658e-06 8.440094671e-06 7.481390047e-06)
5(8.16583883e-06 8.370912329e-06 9.049467741e-06 9.280501665e-06 8.110225198e-06)
5(9.53307322e-06 9.641957414e-06 1.023934198e-05 1.036620989e-05 9.077447384e-06)
5(1.10438223e-05 1.109293687e-05 1.170268756e-05 1.177021538e-05 1.034945582e-05)
5(1.282268647e-05 1.281219385e-05 1.354073502e-05 1.360668684e-05 1.199620679e-05)
5(1.504076128e-05 1.493038357e-05 1.587368281e-05 1.60207665e-05 1.433685748e-05)
5(1.765992861e-05 1.759902433e-05 1.884324106e-05 1.920505843e-05 1.748684661e-05)
5(2.081554198e-05 2.091628148e-05 2.264489573e-05 2.330017571e-05 2.138145402e-05)
5(2.47376868e-05 2.512728273e-05 2.752738199e-05 2.857135933e-05 2.650497001e-05)
5(2.988509856e-05 3.045683451e-05 3.37489126e-05 3.517005315e-05 3.278545509e-05)
5(3.619315276e-05 3.715390699e-05 4.14300741e-05 4.303670529e-05 3.984419112e-05)
5(4.390858804e-05 4.540550788e-05 5.061037142e-05 5.209558167e-05 4.746592472e-05)
5(5.348823697e-05 5.527547017e-05 6.108711283e-05 6.173472514e-05 5.509466659e-05)
5(6.478879755e-05 6.660093968e-05 7.246848965e-05 7.11123609e-05 6.169063208e-05)
5(7.768099415e-05 7.904982086e-05 8.391914028e-05 7.920586366e-05 6.56100723e-05)
5(9.160482598e-05 9.18946239e-05 9.417488868e-05 8.412103468e-05 6.453837124e-05)
5(0.0001061492269 0.0001039741739 0.0001013691459 8.331882909e-05 5.688423346e-05)
5(0.0001197233035 0.0001135622144 0.0001035599776 7.620833841e-05 4.283637348e-05)
5(0.0001307450163 0.0001190558612 9.900737501e-05 6.073153471e-05 2.039294051e-05)
5(0.0001386713439 0.0001191436136 8.657275789e-05 3.729397359e-05 -7.529608075e-06)