/*--------------------------------*- C++ -*----------------------------------*\
| =========                 |                                                 |
| \\      /  F ield         | OpenFOAM: The Open Source CFD Toolbox           |
|  \\    /   O peration     | Version:  2.3.1                                 |
|   \\  /    A nd           | Web:      www.OpenFOAM.org                      |
|    \\/     M anipulation  |                                                 |
\*---------------------------------------------------------------------------*/
FoamFile
{
    version     2.0;
    format      ascii;
    class       dictionary;
    location    "constant";
    object      PM58;
}
// * * * * * * * * * * * * * * * * * * * * * * * * * * * * * * * * * * * * * //

PM58_table
60
(

60
(
5(-0.5331520428 -0.6108800526 -0.5348187804 -0.4793106843 -0.4428402492)
5(-0.5727759992 -0.8071528594 -0.6660107244 -0.5544603397 0.1938014584)
5(-0.4428485627 -0.6054147414 -0.6464765958 -0.4541623697 -0.5316460133)
5(-0.608518937 -0.6237155818 -0.5601534153 -0.5400085653 -0.2877963214)
5(-0.7253865118 -0.6405061624 -0.575551756 -0.480638732 -0.4335877192)
5(-0.6121476161 -0.6557714391 -0.633747209 -0.4758106907 -0.4765464097)
5(-0.5846796952 -0.6655519337 -0.611562453 -0.4948862636 -0.454247813)
5(-0.6287193655 -0.6353131459 -0.5853630544 -0.4771574542 -0.4789049449)
5(-0.591994315 -0.6186073441 -0.5890202288 -0.4689677962 -0.4680010182)
5(-0.5830241993 -0.5990119301 -0.5571923361 -0.4676615117 -0.4551899428)
5(-0.5570272261 -0.5893141925 -0.5551305126 -0.456956609 -0.4468159167)
5(-0.542530388 -0.581470602 -0.5553399869 -0.4458277924 -0.4423748994)
5(-0.5436779162 -0.5715224153 -0.5446796277 -0.4356506135 -0.4342041791)
5(-0.5330720427 -0.5629069621 -0.5329654586 -0.4333917124 -0.4265717811)
5(-0.5317510966 -0.5552754384 -0.5245178029 -0.4206330337 -0.4192950304)
5(-0.5188879874 -0.5425749577 -0.5103694855 -0.4130058916 -0.4097646888)
5(-0.5089130306 -0.5305173355 -0.4995572738 -0.4040240905 -0.399121778)
5(-0.4994529491 -0.5187176864 -0.4882314311 -0.3942982642 -0.3906004459)
5(-0.4900111046 -0.504843104 -0.4772280025 -0.3860763374 -0.381255311)
5(-0.4787196916 -0.4914385967 -0.4658407606 -0.3748816754 -0.3732402815)
5(-0.4715526684 -0.4856560007 -0.4572346676 -0.3687417094 -0.3630177161)
5(-0.4616709078 -0.4736963129 -0.4442351873 -0.3642612495 -0.3526397201)
5(-0.4518215972 -0.460869193 -0.4340559082 -0.3500939122 -0.3407736793)
5(-0.4444876814 -0.4468200269 -0.4224836287 -0.3409627548 -0.3304556021)
5(-0.4351463963 -0.437295171 -0.4088117615 -0.329160917 -0.3185432017)
5(-0.427426305 -0.4270922415 -0.3956646028 -0.3175926244 -0.3076806451)
5(-0.419476297 -0.416883266 -0.3859955494 -0.3062510857 -0.2951134891)
5(-0.4114033672 -0.4040932268 -0.3715380561 -0.2955002058 -0.2819905363)
5(-0.4015903591 -0.3914865007 -0.3606714332 -0.284713639 -0.2672125556)
5(-0.3934085156 -0.3775299714 -0.3467115355 -0.2731416228 -0.2517377567)
5(-0.3840571033 -0.3644774587 -0.3310233916 -0.25831461 -0.2355268149)
5(-0.3756500916 -0.3521134961 -0.3167576347 -0.245116942 -0.2195377013)
5(-0.36604787 -0.3358336293 -0.2981911167 -0.228925469 -0.198181919)
5(-0.3547283433 -0.3191061722 -0.2788862601 -0.2112764956 -0.178489816)
5(-0.3424568458 -0.3021006125 -0.2590744514 -0.1913620158 -0.1556544943)
5(-0.3286477152 -0.2810968655 -0.2354400673 -0.1707635019 -0.1348119999)
5(-0.3123389926 -0.2633406694 -0.2159178412 -0.1489904753 -0.109959529)
5(-0.2933752221 -0.2366100896 -0.1883796865 -0.1224755223 -0.08604424892)
5(-0.2704814468 -0.2111532033 -0.1597368098 -0.1019633002 -0.05843962274)
5(-0.2442341808 -0.1827977984 -0.1311322952 -0.06949561097 -0.01157775048)
5(-0.2155703061 -0.1533224698 -0.1035888544 -0.04592126502 -0.02186043458)
5(-0.1837586559 -0.122041613 -0.07427360878 -0.02136133585 -0.01573628676)
5(-0.1493337407 -0.09258708801 -0.0486708485 -0.01603351759 -0.01014472006)
5(-0.1157601166 -0.06567549959 -0.03086805022 -0.01129812839 -0.004539383218)
5(-0.08384499534 -0.04316791868 -0.01730174597 -0.005813698157 -0.002255734468)
5(-0.05664825433 -0.02548623555 -0.006800765863 -0.00260269726 -0.0007833397456)
5(-0.03417575089 -0.01191154792 -0.002660776727 -0.001071733716 -0.0002389502308)
5(-0.01807454959 -0.005505611026 -0.001491645625 -0.0003563173277 -4.524521842e-05)
5(-0.009080432634 -0.001739932814 -0.0005095889786 -7.999062638e-05 -7.096889328e-06)
5(-0.002349880797 -0.0004908672825 -0.0001463811757 -1.322459726e-05 -8.119612674e-07)
5(-0.0006373438531 -0.0001767455396 -2.632155037e-05 -1.603261699e-06 -5.804317605e-08)
5(-0.0002280901231 -3.75671094e-05 -3.373699847e-06 -1.262979041e-07 -2.591889271e-09)
5(-5.585881301e-05 -5.035975184e-06 -2.977729891e-07 -6.163744448e-09 -6.301599898e-11)
5(-6.819973326e-06 -3.704412713e-07 -1.301309753e-08 -1.631204954e-10 -7.472606981e-13)
5(-4.664408392e-07 -1.62758136e-08 -2.856605856e-10 -3.289344962e-12 -3.060776944e-15)
5(-1.163742615e-08 -2.01020516e-10 -2.872930595e-12 -9.195841477e-15 2.2634588e-19)
5(-8.983927578e-11 -5.940749299e-13 -1.07199005e-14 3.615996664e-15 2.945950639e-20)
5(1.293676733e-13 5.527370611e-15 7.552242719e-16 1.170314794e-16 2.394380798e-23)
5(3.155131887e-16 -5.260888055e-16 -1.197502055e-15 -2.260767099e-18 5.933013531e-27)
5(4.919994271e-23 2.008758796e-24 -1.760250026e-33 1.202626166e-29 3.092162811e-32)
)


60
(
5(-0.3566514606 -0.4229116312 -0.3742903372 -0.3480283628 -0.3555459208)
5(-0.5256387829 -0.6722786722 -0.5518462565 -0.4534293744 -0.4897983113)
5(-0.7111123847 -0.5869174223 -0.5847686162 -0.4923680808 -0.5908411465)
5(-0.6181133092 -0.5500208551 -0.5219867181 -0.5185114208 -0.3904726871)
5(-0.6492242449 -0.5635279787 -0.5280190568 -0.4690906157 -0.4630705435)
5(-0.5933988673 -0.5792484313 -0.6169062247 -0.4708775532 -0.499229055)
5(-0.547223861 -0.5843600542 -0.6032088115 -0.49159234 -0.4616991053)
5(-0.5925886216 -0.5757003043 -0.5619360485 -0.4756109178 -0.5133417398)
5(-0.5575546045 -0.5591804251 -0.5625008628 -0.4635786824 -0.4843398227)
5(-0.5553779823 -0.5419006551 -0.531143383 -0.4601471878 -0.4702237776)
5(-0.540497739 -0.5328366084 -0.5230852058 -0.451632134 -0.4611075586)
5(-0.5267885331 -0.5226089973 -0.5260325582 -0.4446634194 -0.4599264247)
5(-0.5233379051 -0.5112098243 -0.5201354902 -0.432470926 -0.4494975953)
5(-0.5023356774 -0.4996228415 -0.5083409403 -0.4321822926 -0.4453381274)
5(-0.5021333352 -0.4944165993 -0.502065134 -0.4212358745 -0.4375849238)
5(-0.489528521 -0.4834786824 -0.4890846857 -0.4130691628 -0.4287022412)
5(-0.4803477765 -0.4743138459 -0.479294595 -0.4054554741 -0.4181171475)
5(-0.4713688619 -0.4651135939 -0.4693036666 -0.3958649703 -0.4087076115)
5(-0.4636878292 -0.455103173 -0.4595457464 -0.389013143 -0.4002721152)
5(-0.4520989249 -0.440814144 -0.4471831168 -0.3774985304 -0.3924395925)
5(-0.4448119541 -0.4354192754 -0.4407986375 -0.3714114175 -0.3842868891)
5(-0.4366720465 -0.4273459806 -0.4300342761 -0.3715062629 -0.3794508629)
5(-0.4259614598 -0.4172359567 -0.4212910972 -0.359652451 -0.3669246896)
5(-0.4201797862 -0.4051169291 -0.4119018727 -0.352064426 -0.3584407637)
5(-0.4116802437 -0.3966667637 -0.401078422 -0.3418854503 -0.347887748)
5(-0.4048240995 -0.3893050636 -0.3885592475 -0.3315066643 -0.3388481641)
5(-0.3978144102 -0.3827126648 -0.3823546186 -0.3227466085 -0.3291855765)
5(-0.3923163713 -0.3747116876 -0.3713423653 -0.3146622057 -0.3194389953)
5(-0.3837842303 -0.3654564359 -0.363569007 -0.3076266283 -0.308635239)
5(-0.3777208587 -0.355655662 -0.3548561905 -0.301797613 -0.2988131704)
5(-0.3705585221 -0.3464456499 -0.3431519514 -0.2907182302 -0.2867378777)
5(-0.3647717951 -0.339407927 -0.334800576 -0.2843474923 -0.2798531455)
5(-0.359460819 -0.3300449462 -0.3228053928 -0.2737936547 -0.2615053473)
5(-0.3527711774 -0.3198212655 -0.3090020411 -0.2628697538 -0.2516312643)
5(-0.3452967666 -0.3106174289 -0.2967577608 -0.2496086851 -0.2343831005)
5(-0.337279066 -0.2968406329 -0.2774811061 -0.233898734 -0.2154586162)
5(-0.3279387694 -0.2881543718 -0.2681070113 -0.219012505 -0.1941394048)
5(-0.3169388647 -0.2709923286 -0.2488031042 -0.1976464831 -0.1780536879)
5(-0.3025619123 -0.254099338 -0.2250479836 -0.176275261 -0.1473464578)
5(-0.2833229924 -0.2327107319 -0.198032323 -0.1509135621 -0.1358994923)
5(-0.2627785442 -0.2106349482 -0.1733819771 -0.125835014 -0.1057914295)
5(-0.2385801879 -0.1835098599 -0.1445408042 -0.1039282051 -0.07688729655)
5(-0.2095330599 -0.1555188756 -0.1154936997 -0.08305498313 -0.05098715594)
5(-0.1765674334 -0.1228689489 -0.08253157489 -0.05626209619 -0.03027145639)
5(-0.1415419522 -0.09249372663 -0.05817999443 -0.03420246244 -0.01612791698)
5(-0.1073308994 -0.06409305675 -0.03781183794 -0.01848662716 -0.00737397419)
5(-0.07527910613 -0.04163672145 -0.02354124447 -0.008578146389 -0.002837300165)
5(-0.04795793475 -0.02498590615 -0.01174084421 -0.003366053362 -0.0008830696546)
5(-0.027320949 -0.01239316826 -0.004785911476 -0.001081884825 -0.000215850992)
5(-0.01351165352 -0.005852350888 -0.001574435078 -0.0002712787509 -3.895784322e-05)
5(-0.00567779097 -0.001973780541 -0.0004052830533 -5.122247393e-05 -5.147303696e-06)
5(-0.002034698119 -0.0005004670167 -7.548290612e-05 -6.92830119e-06 -4.896562808e-07)
5(-0.0005111498244 -9.380079049e-05 -1.001536997e-05 -6.531828276e-07 -2.938803467e-08)
5(-8.836205035e-05 -1.135226281e-05 -8.153296737e-07 -3.395192432e-08 -9.747327871e-10)
5(-9.350385655e-06 -8.050466208e-07 -3.905477452e-08 -1.104699628e-09 -2.293815537e-11)
5(-5.068617261e-07 -2.89342387e-08 -8.018573649e-10 -1.898835097e-11 -3.760528853e-13)
5(-1.002141651e-08 -3.360271149e-10 -7.457667227e-12 -1.347615046e-13 -6.065022568e-15)
5(-5.545262327e-12 2.996796052e-13 -9.518214524e-17 2.156758576e-15 -5.686630095e-17)
5(2.39198822e-13 -3.632966815e-12 -4.317435012e-12 -2.99264703e-15 3.27013425e-18)
5(6.373044871e-17 3.309526464e-16 7.046557647e-16 7.516981609e-18 -4.92542558e-27)
)


60
(
5(-0.2214121977 -0.172392525 -0.2446122684 -0.2115543986 -0.2510820218)
5(-0.3220621427 -0.2336145155 -0.3386028149 -0.2583814532 -0.3304038191)
5(-0.3483019493 -0.2533454234 -0.3594669496 -0.2689541304 -0.3425217434)
5(-0.3419142399 -0.2534707447 -0.3494692969 -0.2656430574 -0.3284641131)
5(-0.3264966813 -0.2473037199 -0.3293756343 -0.2575842198 -0.3066487979)
5(-0.3100838804 -0.2420449256 -0.3153935655 -0.2533487407 -0.2933034509)
5(-0.3011211916 -0.2364989321 -0.3117246208 -0.2490950202 -0.2906868066)
5(-0.2952441678 -0.2318396523 -0.3072750909 -0.2459009543 -0.2903948572)
5(-0.288542268 -0.2281187645 -0.3030082612 -0.2436403408 -0.2876061211)
5(-0.2784975418 -0.2225259962 -0.2956369314 -0.2388246119 -0.2825732286)
5(-0.2708409417 -0.215806169 -0.2879269674 -0.2339676014 -0.2758942751)
5(-0.2604373304 -0.2103027552 -0.2795252542 -0.2293851579 -0.2691591426)
5(-0.2518217324 -0.2042338678 -0.2723667353 -0.2253701601 -0.2640753449)
5(-0.2441086629 -0.1989473989 -0.265783298 -0.2205115391 -0.2584965396)
5(-0.2367627438 -0.193880084 -0.2596567967 -0.2163272086 -0.2533530363)
5(-0.2284809958 -0.1883186539 -0.2527894593 -0.2118780941 -0.2478175902)
5(-0.2211101973 -0.1830219589 -0.2457212952 -0.207378363 -0.2424423513)
5(-0.2142416467 -0.1775001376 -0.2388803436 -0.2030170591 -0.2371065203)
5(-0.2068343566 -0.1730509397 -0.2326520621 -0.1988417177 -0.2315937389)
5(-0.2003435872 -0.1681887845 -0.2264351471 -0.1944133132 -0.2261105507)
5(-0.1936679483 -0.1633821907 -0.2206363027 -0.1910058718 -0.2214097091)
5(-0.1875289951 -0.1593275969 -0.2150416677 -0.1867051184 -0.2164004031)
5(-0.1818729288 -0.1554122012 -0.2095559231 -0.1834502429 -0.2114947523)
5(-0.1762762876 -0.1514563706 -0.2039214968 -0.1807604332 -0.2070467396)
5(-0.1712824156 -0.1481031101 -0.199629499 -0.1774591702 -0.2030362761)
5(-0.1662240525 -0.1452875343 -0.1944922419 -0.1743262753 -0.1988866154)
5(-0.1619394975 -0.1429837025 -0.1902153772 -0.171523861 -0.1949074026)
5(-0.1578194945 -0.1403373885 -0.1864178291 -0.1693353668 -0.1917252967)
5(-0.1544790843 -0.1384802217 -0.1827825925 -0.1673707731 -0.1877091258)
5(-0.1512784621 -0.1371147593 -0.1796089124 -0.1656288887 -0.1848486038)
5(-0.1485119301 -0.1362746706 -0.1767842964 -0.1640791982 -0.1810130488)
5(-0.1463167152 -0.1358965735 -0.174254553 -0.1624095543 -0.1778167596)
5(-0.1445214256 -0.1355677826 -0.171850441 -0.1609665394 -0.1741993281)
5(-0.1427436864 -0.1357814954 -0.1697763345 -0.1592030543 -0.1703911508)
5(-0.1416922883 -0.1359522184 -0.1671857278 -0.1570568054 -0.1652327855)
5(-0.1398591155 -0.1361775451 -0.164226924 -0.154218281 -0.1593941861)
5(-0.1382827613 -0.135978267 -0.1606759817 -0.150340843 -0.1515730937)
5(-0.136298217 -0.135146537 -0.1560724847 -0.1445165769 -0.1418203658)
5(-0.1335019999 -0.1337052244 -0.1500371915 -0.1366307703 -0.1308198295)
5(-0.1299150662 -0.1300028298 -0.1419631186 -0.1266857268 -0.11785528)
5(-0.1247399515 -0.125135019 -0.1317657048 -0.1142935119 -0.1027498361)
5(-0.1178033859 -0.116984552 -0.1183436399 -0.09973777724 -0.08533932243)
5(-0.1083953964 -0.1066690286 -0.1025106607 -0.08330369495 -0.06629228078)
5(-0.09688969617 -0.09399357498 -0.0849097643 -0.06541726619 -0.04739014076)
5(-0.0834594824 -0.07834782664 -0.06647270305 -0.0474267736 -0.03084051424)
5(-0.06840269761 -0.06132180773 -0.0484017059 -0.03125242881 -0.01795186427)
5(-0.05240696403 -0.04470347104 -0.03236141475 -0.0182863833 -0.009113740569)
5(-0.03717346567 -0.02983965868 -0.01928758167 -0.009294521932 -0.003963073004)
5(-0.0235041713 -0.01777383899 -0.00995761765 -0.00401896999 -0.001437441795)
5(-0.01331070342 -0.009243197959 -0.004293143494 -0.001434553159 -0.0004103708166)
5(-0.006347296537 -0.004043709912 -0.001515745727 -0.0004063982727 -9.157163022e-05)
5(-0.002451390377 -0.001394110811 -0.0004164413195 -8.662752582e-05 -1.427858558e-05)
5(-0.0007101305101 -0.0003636959929 -8.343596774e-05 -1.327841365e-05 -1.636482754e-06)
5(-0.0001440368037 -6.632681462e-05 -1.141960382e-05 -1.354772669e-06 -1.105990749e-07)
5(-1.805919455e-05 -7.84536605e-06 -9.398704258e-07 -8.080830937e-08 -4.535920038e-09)
5(-1.104155209e-06 -5.066093352e-07 -4.483231473e-08 -2.720860273e-09 -1.140523716e-10)
5(-3.032856788e-08 -1.735829881e-08 -9.105351349e-10 -5.333649447e-11 -1.32009836e-12)
5(3.689565859e-09 -1.192583198e-10 -1.1005594e-11 -5.920043628e-13 -1.275144188e-14)
5(6.607559492e-11 5.564972859e-12 2.879733489e-12 1.853030824e-12 1.06692045e-14)
5(4.363394334e-12 5.5139002e-08 5.710715208e-08 1.147096178e-10 -3.66435019e-23)
)


60
(
5(-0.1654515382 -0.09500167701 -0.1870678991 -0.1596990287 -0.2050763439)
5(-0.2432074938 -0.1449750673 -0.2525584794 -0.1910371348 -0.2592220597)
5(-0.2616907266 -0.1628026542 -0.2643066938 -0.1983175562 -0.2646417431)
5(-0.2560040868 -0.1625883865 -0.2568879005 -0.1957407793 -0.2544990426)
5(-0.2408634752 -0.1573158824 -0.2421429129 -0.1895780779 -0.2390001365)
5(-0.228047404 -0.1525765657 -0.2317026105 -0.1855305706 -0.2298693607)
5(-0.219165472 -0.1484066133 -0.2266440655 -0.1821683091 -0.2271213767)
5(-0.2119811974 -0.1435489938 -0.22219726 -0.1794579183 -0.2257776679)
5(-0.2033641057 -0.1381965365 -0.2164605209 -0.1755411468 -0.2226699781)
5(-0.1940399376 -0.1322346167 -0.2097720227 -0.1713217777 -0.2166213433)
5(-0.1853607542 -0.1268481995 -0.2018799398 -0.1664845832 -0.2108121293)
5(-0.1762216146 -0.1212662715 -0.1945786431 -0.1621731964 -0.2053291813)
5(-0.1669951112 -0.1151865373 -0.1876728103 -0.1575425347 -0.2003325753)
5(-0.1581986899 -0.1097714562 -0.1809905821 -0.1533589804 -0.1955884979)
5(-0.1504246616 -0.1044141442 -0.1742753265 -0.149178044 -0.1905416075)
5(-0.1431648611 -0.09925440426 -0.1677947008 -0.144976368 -0.1857146982)
5(-0.1347540708 -0.09430708519 -0.1615747323 -0.1406829725 -0.180879418)
5(-0.1273918362 -0.08945257403 -0.1558535481 -0.1362159065 -0.1764747898)
5(-0.120225281 -0.0847290261 -0.1495191254 -0.1328517201 -0.1720606297)
5(-0.1132584614 -0.08039210666 -0.1441400371 -0.1289977342 -0.1676588548)
5(-0.1073390447 -0.07598828539 -0.1387867784 -0.1257801648 -0.1636836753)
5(-0.1006810071 -0.07203288034 -0.1341294864 -0.1230347952 -0.1599122942)
5(-0.0948013927 -0.06844249854 -0.1291719488 -0.1198768257 -0.1564590995)
5(-0.08929128543 -0.06542137099 -0.1247671361 -0.1174624609 -0.1532162443)
5(-0.0847268154 -0.06272605829 -0.1208054754 -0.1155260045 -0.1504149331)
5(-0.07976276742 -0.06016685525 -0.1175157618 -0.1135720229 -0.1482083956)
5(-0.07574852659 -0.05889817581 -0.1147515681 -0.1124170035 -0.1460463318)
5(-0.07243016361 -0.05727013167 -0.1120673533 -0.111212508 -0.1444843769)
5(-0.06888216885 -0.05651562006 -0.110310969 -0.1111211595 -0.1428607292)
5(-0.06612752001 -0.05640945308 -0.1086689188 -0.1108258958 -0.1419485229)
5(-0.06384636449 -0.05657078958 -0.1077206795 -0.1113440744 -0.1410464022)
5(-0.06221356875 -0.05742676704 -0.107224298 -0.1120916668 -0.1402393309)
5(-0.06078842531 -0.05908121543 -0.1070563428 -0.1130975423 -0.1400653568)
5(-0.05976733261 -0.0603747235 -0.1075327978 -0.1142459952 -0.1396892072)
5(-0.0589832153 -0.06254949488 -0.1081931726 -0.1155397538 -0.1389444016)
5(-0.05919907487 -0.06504379769 -0.1087490369 -0.1165089026 -0.1371437607)
5(-0.05844035164 -0.06746885057 -0.1091672079 -0.1168421699 -0.134665801)
5(-0.05760824761 -0.0696409181 -0.1091568351 -0.1164127883 -0.1305155987)
5(-0.05647524083 -0.07171236923 -0.1087343971 -0.1144845298 -0.1252598662)
5(-0.05492268242 -0.07309370003 -0.1068209155 -0.1109038099 -0.1185392356)
5(-0.05291278324 -0.07344016185 -0.1031106739 -0.1054518507 -0.1092960465)
5(-0.04912081063 -0.07182286238 -0.09752510095 -0.0976231651 -0.0969372026)
5(-0.04438645912 -0.06875441716 -0.08937590373 -0.08725026708 -0.08136022771)
5(-0.0385258283 -0.06381051102 -0.07896366097 -0.07428822449 -0.06415403969)
5(-0.03163685701 -0.05682545149 -0.06688413561 -0.05929331039 -0.04689458142)
5(-0.02473524112 -0.04777901403 -0.05343108609 -0.04360683716 -0.03131155675)
5(-0.01755244373 -0.03769714144 -0.03964053282 -0.02908656444 -0.01874733006)
5(-0.01134747085 -0.02767414566 -0.02664904531 -0.0173185413 -0.00982360547)
5(-0.005707520197 -0.01855818064 -0.01591473696 -0.008945256711 -0.004380405983)
5(-0.001412049961 -0.01099243508 -0.008184919312 -0.00389073238 -0.001617580617)
5(0.001141725346 -0.005624824572 -0.00348588243 -0.00138806587 -0.0004880947309)
5(0.002115994099 -0.002358111374 -0.001188890896 -0.0003962920286 -0.0001112841612)
5(0.001972996805 -0.0007361014731 -0.0003142098326 -8.217107409e-05 -1.785887328e-05)
5(0.001184581051 -0.0001601382035 -5.908529179e-05 -1.192014449e-05 -2.084975803e-06)
5(0.0004495718119 -2.225880021e-05 -7.126477485e-06 -1.081810899e-06 -1.394944119e-07)
5(0.000147073027 -4.601105293e-07 -4.701284455e-07 -5.597739444e-08 -4.709750884e-09)
5(2.472857382e-05 2.618891478e-07 -1.993021445e-08 -1.398357013e-09 -1.032096913e-10)
5(1.985697645e-06 2.357614098e-08 -2.242166545e-10 -1.805403133e-11 -1.104656638e-12)
5(1.302409112e-07 1.485394349e-08 2.103206328e-08 3.588496395e-11 1.293816338e-12)
5(3.353411923e-07 1.485621124e-07 1.890440089e-08 -3.43657705e-08 -2.346314751e-10)
)


60
(
5(-0.1445065366 -0.0728180235 -0.1641127656 -0.1426126642 -0.1866641451)
5(-0.2070266816 -0.1151959746 -0.2116007488 -0.1647128659 -0.2251016195)
5(-0.2232871187 -0.1304762793 -0.2185795601 -0.169332352 -0.2274041923)
5(-0.2165651925 -0.1294651601 -0.2115413175 -0.1663782927 -0.2177522133)
5(-0.2028947484 -0.1237284975 -0.1997906636 -0.160638298 -0.2060176728)
5(-0.1908397816 -0.1184753343 -0.1903903487 -0.1557950939 -0.1985684749)
5(-0.1818852666 -0.1126595207 -0.1839285863 -0.1521043673 -0.1953925671)
5(-0.1732143226 -0.1069080851 -0.1784013625 -0.14834836 -0.1927912637)
5(-0.1647230461 -0.100892204 -0.1714720789 -0.1435582318 -0.1885880334)
5(-0.1552169014 -0.09425701158 -0.1640557505 -0.1382565325 -0.1828592391)
5(-0.1453942429 -0.08766481709 -0.1560283965 -0.1331531971 -0.177052366)
5(-0.1362700293 -0.08128969197 -0.1485906645 -0.1283050341 -0.171565572)
5(-0.1274257223 -0.07495277367 -0.141266394 -0.1232113394 -0.1662186835)
5(-0.1185741359 -0.06876489989 -0.1343391396 -0.1182267637 -0.1617568344)
5(-0.1096664386 -0.06303782669 -0.1273414057 -0.1136429299 -0.1564469661)
5(-0.1016536109 -0.05712436383 -0.1203841875 -0.109127696 -0.1517693371)
5(-0.09402606298 -0.05160052449 -0.1137682711 -0.1043593493 -0.1468346617)
5(-0.08590825521 -0.0461707066 -0.1076811485 -0.1003535317 -0.1422707549)
5(-0.07902095422 -0.04096050107 -0.1016914012 -0.09601147909 -0.1382465368)
5(-0.0717896276 -0.03619949176 -0.0961839838 -0.09246405573 -0.1340421978)
5(-0.06513368387 -0.03179674831 -0.09060527613 -0.08869286142 -0.1303767649)
5(-0.05915021656 -0.02735846985 -0.08582548205 -0.08567356112 -0.1271569616)
5(-0.0531913091 -0.02369100145 -0.08108917985 -0.08261336318 -0.124030272)
5(-0.04733820122 -0.02035942008 -0.07723519225 -0.08011445621 -0.1213776786)
5(-0.04228275317 -0.01749812629 -0.07326996257 -0.07803057834 -0.1185703792)
5(-0.03766668261 -0.01478835714 -0.0699238417 -0.07641938735 -0.1168309327)
5(-0.03326823284 -0.01277240162 -0.06704718454 -0.07522267246 -0.1153858048)
5(-0.0296724844 -0.01128557707 -0.06495593863 -0.07443515349 -0.1140098875)
5(-0.02639689931 -0.01017989365 -0.06329155563 -0.07444243686 -0.1137666701)
5(-0.02344529454 -0.00987280351 -0.06209877898 -0.07465779596 -0.1132121469)
5(-0.02108959132 -0.009878572693 -0.06147280506 -0.07548604219 -0.1135991607)
5(-0.0189271516 -0.01025324582 -0.06193682943 -0.07692003023 -0.1139282004)
5(-0.01721185432 -0.01178541306 -0.06209950766 -0.07847335223 -0.1146912871)
5(-0.01609842133 -0.01313306963 -0.06310485919 -0.08071651847 -0.1156382674)
5(-0.01478639214 -0.0150535769 -0.06424215527 -0.083012913 -0.116932922)
5(-0.01370569302 -0.01699784165 -0.06589260237 -0.08522747246 -0.1174581851)
5(-0.01213551695 -0.01937717411 -0.06789733115 -0.08754668867 -0.1176378876)
5(-0.01046034499 -0.02186059764 -0.06947013734 -0.08940685104 -0.1171498698)
5(-0.008269340286 -0.02408878083 -0.07083362726 -0.09063266803 -0.1155730871)
5(-0.005392888866 -0.02574140488 -0.07162402445 -0.09085453179 -0.1134284657)
5(-0.001331798239 -0.0267317907 -0.07141110055 -0.08998389315 -0.1091097667)
5(0.003341311915 -0.02689071484 -0.07024172705 -0.08721453807 -0.1016827096)
5(0.009295327262 -0.02611632357 -0.06704601986 -0.08234321695 -0.09092711555)
5(0.01512315413 -0.02488555965 -0.06245428727 -0.0749048215 -0.07683525199)
5(0.02079138436 -0.02225317591 -0.05601302447 -0.0644003117 -0.06093388088)
5(0.02521824452 -0.01903588968 -0.04823258345 -0.05166319087 -0.0449312626)
5(0.02845828351 -0.01554918126 -0.03884385072 -0.03820744284 -0.03045180791)
5(0.02898962103 -0.01146429103 -0.02898551733 -0.02556563988 -0.01841452746)
5(0.02761601497 -0.007692915131 -0.01947218803 -0.01512028426 -0.009749335935)
5(0.02647024931 -0.004437599737 -0.01145413764 -0.007764865399 -0.004423173532)
5(0.02237421813 -0.002274768401 -0.005772026383 -0.003351071497 -0.001637531421)
5(0.01784510424 -0.0005615618659 -0.002350563939 -0.001162284965 -0.0004903805761)
5(0.01269945119 2.807887793e-05 -0.0007650517682 -0.0003155472882 -0.0001107430489)
5(0.008425711623 0.0002202263565 -0.0001912400356 -5.944400723e-05 -1.68756729e-05)
5(0.004316594556 0.0001760307783 -3.089530727e-05 -7.532070349e-06 -1.723621391e-06)
5(0.002086693156 5.843698515e-05 -3.68498117e-06 -5.291457113e-07 -1.020378267e-07)
5(0.0006451584422 2.111242569e-05 -1.146236492e-08 -1.481390807e-08 -3.115067994e-09)
5(0.000172602604 2.27670801e-06 6.618554151e-09 -5.78015911e-11 -4.775605654e-11)
5(3.790661284e-05 2.402721345e-07 -1.870588273e-09 -5.432979217e-12 -3.778969361e-13)
5(6.008233689e-05 3.446058313e-07 -1.536788185e-07 -3.20377494e-10 3.038370845e-10)
)


60
(
5(-0.1412931401 -0.07583400129 -0.158429633 -0.1422801325 -0.1819502753)
5(-0.1946079965 -0.1122921265 -0.1941146256 -0.1583194156 -0.2099625835)
5(-0.2101518477 -0.126376799 -0.1982378892 -0.1604796294 -0.2100096149)
5(-0.2042341067 -0.1255878397 -0.1915436316 -0.1569747764 -0.2011620216)
5(-0.1919485251 -0.119924231 -0.181033665 -0.1509368227 -0.1905096668)
5(-0.1810043241 -0.114017798 -0.1722174847 -0.1457917227 -0.1835770082)
5(-0.1730117428 -0.108268952 -0.1652221173 -0.1411232271 -0.1802536354)
5(-0.1648153188 -0.1020801276 -0.1590837399 -0.1362274543 -0.1763172115)
5(-0.1566220466 -0.09550558575 -0.1515508726 -0.130682895 -0.1714963706)
5(-0.1474981681 -0.08923405609 -0.1438376581 -0.1248610138 -0.1653672702)
5(-0.1384711602 -0.08213585724 -0.1354865205 -0.1189676427 -0.1593164324)
5(-0.1296924421 -0.07585316012 -0.1279383589 -0.1132118044 -0.1534602361)
5(-0.1213081807 -0.06941695506 -0.1201695392 -0.1077144777 -0.1480762271)
5(-0.1137198345 -0.06314075899 -0.1132653937 -0.1022687705 -0.1427336802)
5(-0.1054403586 -0.0569732259 -0.1060013367 -0.09701353809 -0.1376677975)
5(-0.09762459836 -0.05102974682 -0.09950526171 -0.09188499235 -0.1326929793)
5(-0.09028143401 -0.04538023883 -0.09258937878 -0.08685730104 -0.127667107)
5(-0.08329978264 -0.03992877387 -0.08603059744 -0.08263604172 -0.1229878337)
5(-0.07634671508 -0.03477348203 -0.08027717073 -0.07769413946 -0.1185653748)
5(-0.06999946303 -0.02991333404 -0.0744413851 -0.07359010924 -0.1144230448)
5(-0.06370806696 -0.02553194813 -0.06904323858 -0.06968293318 -0.1105946685)
5(-0.05784562087 -0.02103303365 -0.06402396244 -0.06609065495 -0.1071498312)
5(-0.0526407837 -0.01733912533 -0.05959405728 -0.06304310047 -0.1039460656)
5(-0.04746821601 -0.01388297258 -0.05531474608 -0.06024618114 -0.1011554105)
5(-0.0425299621 -0.01085747815 -0.05147170985 -0.05783605078 -0.09863373736)
5(-0.03849776535 -0.008236485208 -0.04822932064 -0.05590300789 -0.09679976043)
5(-0.03428684234 -0.005970121803 -0.04534935146 -0.05444874614 -0.09509771443)
5(-0.0309083263 -0.004186636952 -0.04340488193 -0.05354038838 -0.09392931427)
5(-0.02758271328 -0.003131284058 -0.04136018657 -0.05287714181 -0.09340644944)
5(-0.02493396833 -0.00228897739 -0.04015153096 -0.05323022702 -0.09310415492)
5(-0.02212657945 -0.00166459219 -0.03938889958 -0.05350876919 -0.093502566)
5(-0.02005566631 -0.001864553967 -0.03941007672 -0.05460929932 -0.09435679504)
5(-0.01804493567 -0.002060269244 -0.03960766532 -0.05598800789 -0.0952507955)
5(-0.01599333204 -0.002931723578 -0.03997448063 -0.05802754922 -0.09669747412)
5(-0.01415057589 -0.003855206198 -0.04140155982 -0.06032534461 -0.09844978783)
5(-0.0119406249 -0.004420410209 -0.04234262276 -0.06283497831 -0.100015076)
5(-0.009201324309 -0.005999360471 -0.04388463474 -0.06560258422 -0.1012519596)
5(-0.005966100901 -0.006655754976 -0.04538061371 -0.06794297582 -0.1024480025)
5(-0.001669019231 -0.006815508144 -0.04660759342 -0.07004164737 -0.1033584273)
5(0.003957587996 -0.006918597595 -0.04784999836 -0.07169747905 -0.1035617794)
5(0.01046700216 -0.005998799019 -0.04802956718 -0.07277758748 -0.1027242607)
5(0.01818456239 -0.00463945865 -0.04747452037 -0.0729816133 -0.1000092183)
5(0.02678276414 -0.00227234842 -0.04643755573 -0.0718910556 -0.09346811613)
5(0.03524352417 0.0005336939498 -0.04403627579 -0.06857367801 -0.08376262772)
5(0.0429030924 0.003110926929 -0.04071218272 -0.06255193458 -0.07093016402)
5(0.05000476885 0.005618746905 -0.03632415582 -0.05399026598 -0.05685190684)
5(0.05302655526 0.007966746627 -0.03104076199 -0.04337087897 -0.04215326174)
5(0.05464406309 0.008867631249 -0.02494059601 -0.03184005903 -0.02847745032)
5(0.05334043492 0.008993102445 -0.01834091108 -0.02129477066 -0.01730914278)
5(0.04976578494 0.008014806367 -0.01209218925 -0.01245573578 -0.009103451237)
5(0.04435344406 0.006576710191 -0.006798274876 -0.006210656125 -0.004061714154)
5(0.03824270464 0.005205394502 -0.00329479576 -0.002552928595 -0.001475813706)
5(0.03029496454 0.003809621262 -0.001133236555 -0.0008498256756 -0.0004223540456)
5(0.02214856665 0.002598708759 -0.0003425279013 -0.0001982804095 -9.086410265e-05)
5(0.01496776492 0.001658448177 -5.380880604e-05 -3.100367779e-05 -1.310385661e-05)
5(0.008216031597 0.0006955283117 1.036225236e-05 -1.723762487e-06 -1.087756332e-06)
5(0.004421455172 0.0002754141475 6.997438734e-07 6.45980934e-08 -5.334852876e-08)
5(0.002097807078 6.349370668e-05 1.047099365e-06 2.927310053e-08 -1.366408787e-09)
5(0.001023973479 2.510627311e-05 9.203660203e-08 1.391902398e-09 3.900236909e-11)
5(0.001479823401 0.0001100865088 9.567904613e-06 3.578648372e-09 6.022613434e-10)
)


60
(
5(-0.1464244016 -0.08975593974 -0.1613903335 -0.1507709896 -0.1845582624)
5(-0.1939377411 -0.1228018474 -0.1897810432 -0.1621441313 -0.2054407926)
5(-0.2099284355 -0.1375716998 -0.1922313469 -0.1625456823 -0.2032643167)
5(-0.2063859632 -0.1371008692 -0.1861728897 -0.1581873125 -0.194453099)
5(-0.1962381174 -0.1315464856 -0.1767241713 -0.1518640974 -0.1842852223)
5(-0.1870334512 -0.1268048122 -0.1681485648 -0.1459501806 -0.1771886419)
5(-0.1800141981 -0.1214400689 -0.1619800477 -0.140830426 -0.1730093337)
5(-0.1734336322 -0.1154640404 -0.1551537117 -0.1349622539 -0.1682865451)
5(-0.1661274969 -0.1095664927 -0.1482938629 -0.1289374734 -0.1624662582)
5(-0.1585883169 -0.1030769313 -0.1399243468 -0.122276691 -0.155802885)
5(-0.1507502071 -0.09714671551 -0.1325380235 -0.1160529899 -0.1491077472)
5(-0.1432901397 -0.09091516381 -0.1245658847 -0.1095927869 -0.1428534917)
5(-0.1360468475 -0.0850336803 -0.1176057186 -0.103667874 -0.1367880167)
5(-0.1291197385 -0.07925835149 -0.1103782193 -0.09756410914 -0.1309735377)
5(-0.1223274031 -0.07363159697 -0.1036781182 -0.0919025323 -0.1252424394)
5(-0.1159966909 -0.06812002023 -0.09682718073 -0.08618061237 -0.1196503446)
5(-0.1094547763 -0.06285522905 -0.09055310896 -0.08094067026 -0.1143006771)
5(-0.1037216392 -0.05786581174 -0.08440711081 -0.07564920936 -0.109224029)
5(-0.09761915762 -0.05319038416 -0.07853234569 -0.07084330091 -0.1043020091)
5(-0.09225198209 -0.04865532134 -0.07295466962 -0.06620490714 -0.09988324713)
5(-0.08686667761 -0.04449062308 -0.06783829894 -0.06197107918 -0.09539008625)
5(-0.08174364151 -0.04039596198 -0.0628472009 -0.05797774261 -0.09168556875)
5(-0.07749799318 -0.03694238642 -0.05846468153 -0.05454553029 -0.08791652791)