/*--------------------------------*- C++ -*----------------------------------*\
| =========                 |                                                 |
| \\      /  F ield         | OpenFOAM: The Open Source CFD Toolbox           |
|  \\    /   O peration     | Version:  2.3.1                                 |
|   \\  /    A nd           | Web:      www.OpenFOAM.org                      |
|    \\/     M anipulation  |                                                 |
\*---------------------------------------------------------------------------*/
FoamFile
{
    version     2.0;
    format      ascii;
    class       dictionary;
    location    "constant";
    object      PM5;
}
// * * * * * * * * * * * * * * * * * * * * * * * * * * * * * * * * * * * * * //

PM5_table
60
(

60
(
5{0}
5(0 0 8.858597577e-09 0 0)
5(0 1.447790849e-08 5.30012322e-08 1.145155664e-09 4.74033805e-07)
5(0 0 -2.915258278e-08 4.689548599e-07 7.55587393e-06)
5(0 0 0 8.925688912e-08 -5.206911571e-07)
5(0 0 0 0 -2.07322806e-07)
5{0}
5{0}
5{0}
5{0}
5{0}
5{0}
5{0}
5{0}
5{0}
5{0}
5{0}
5{0}
5{0}
5{0}
5{0}
5{0}
5{0}
5{0}
5{0}
5{0}
5{0}
5{0}
5{0}
5{0}
5{0}
5{0}
5{0}
5{0}
5{0}
5{0}
5{0}
5{0}
5{0}
5{0}
5{0}
5{0}
5{0}
5{0}
5{0}
5{0}
5{0}
5{0}
5{0}
5{0}
5{0}
5{0}
5{0}
5{0}
5{0}
5{0}
5{0}
5{0}
5{0}
5{0}
)


60
(
5{0}
5{0}
5(0 0 4.731675065e-08 0 0)
5(0 0 0 0 2.511753541e-06)
5(0 0 0 0 3.249221284e-07)
5{0}
5{0}
5{0}
5{0}
5{0}
5{0}
5{0}
5{0}
5{0}
5{0}
5{0}
5{0}
5{0}
5{0}
5{0}
5{0}
5{0}
5{0}
5{0}
5{0}
5{0}
5{0}
5{0}
5{0}
5{0}
5{0}
5{0}
5{0}
5{0}
5{0}
5{0}
5{0}
5{0}
5{0}
5{0}
5{0}
5{0}
5{0}
5{0}
5{0}
5{0}
5{0}
5{0}
5{0}
5{0}
5{0}
5{0}
5{0}
5{0}
5{0}
5{0}
5{0}
5{0}
5{0}
5{0}
)


60
(
5{0}
5{0}
5{0}
5{0}
5{0}
5{0}
5{0}
5{0}
5{0}
5{0}
5{0}
5{0}
5{0}
5{0}
5{0}
5{0}
5{0}
5{0}
5{0}
5{0}
5{0}
5{0}
5{0}
5{0}
5{0}
5{0}
5{0}
5{0}
5{0}
5{0}
5{0}
5{0}
5{0}
5{0}
5{0}
5{0}
5{0}
5{0}
5{0}
5{0}
5{0}
5{0}
5{0}
5{0}
5{0}
5{0}
5{0}
5{0}
5{0}
5{0}
5{0}
5{0}
5{0}
5{0}
5{0}
5{0}
5{0}
5{0}
5{0}
5{0}
)


60
(
5{0}
5{0}
5{0}
5{0}
5{0}
5{0}
5{0}
5{0}
5{0}
5{0}
5{0}
5{0}
5{0}
5{0}
5{0}
5{0}
5{0}
5{0}
5{0}
5{0}
5{0}
5{0}
5{0}
5{0}
5{0}
5{0}
5{0}
5{0}
5{0}
5{0}
5{0}
5{0}
5{0}
5{0}
5{0}
5{0}
5{0}
5{0}
5{0}
5{0}
5{0}
5{0}
5{0}
5{0}
5{0}
5{0}
5{0}
5{0}
5{0}
5{0}
5{0}
5{0}
5{0}
5{0}
5{0}
5{0}
5{0}
5{0}
5{0}
5{0}
)


60
(
5{0}
5{0}
5{0}
5{0}
5{0}
5{0}
5{0}
5{0}
5{0}
5{0}
5{0}
5{0}
5{0}
5{0}
5{0}
5{0}
5{0}
5{0}
5{0}
5{0}
5{0}
5{0}
5{0}
5{0}
5{0}
5{0}
5{0}
5{0}
5{0}
5{0}
5{0}
5{0}
5{0}
5{0}
5{0}
5{0}
5{0}
5{0}
5{0}
5{0}
5{0}
5{0}
5{0}
5{0}
5{0}
5{0}
5{0}
5{0}
5{0}
5{0}
5{0}
5{0}
5{0}
5{0}
5{0}
5{0}
5{0}
5{0}
5{0}
5{0}
)


60
(
5{0}
5{0}
5{0}
5{0}
5{0}
5{0}
5{0}
5{0}
5{0}
5{0}
5{0}
5{0}
5{0}
5{0}
5{0}
5{0}
5{0}
5{0}
5{0}
5{0}
5{0}
5{0}
5{0}
5{0}
5{0}
5{0}
5{0}
5{0}
5{0}
5{0}
5{0}
5{0}
5{0}
5{0}
5{0}
5{0}
5{0}
5{0}
5{0}
5{0}
5{0}
5{0}
5{0}
5{0}
5{0}
5{0}
5{0}
5{0}
5{0}
5{0}
5{0}
5{0}
5{0}
5{0}
5{0}
5{0}
5{0}
5{0}
5{0}
5{0}
)


60
(
5{0}
5{0}
5{0}
5{0}
5{0}
5{0}
5{0}
5{0}
5{0}
5{0}
5{0}
5{0}
5{0}
5{0}
5{0}
5{0}
5{0}
5{0}
5{0}
5{0}
5{0}
5{0}
5{0}
5{0}
5{0}
5{0}
5{0}
5{0}
5{0}
5{0}
5{0}
5{0}
5{0}
5{0}
5{0}
5{0}
5{0}
5{0}
5{0}
5{0}
5{0}
5{0}
5{0}
5{0}
5{0}
5{0}
5{0}
5{0}
5{0}
5{0}
5{0}
5{0}
5{0}
5{0}
5{0}
5{0}
5{0}
5{0}
5{0}
5{0}
)


60
(
5{0}
5{0}
5{0}
5{0}
5{0}
5{0}
5{0}
5{0}
5{0}
5{0}
5{0}
5{0}
5{0}
5{0}
5{0}
5{0}
5{0}
5{0}
5{0}
5{0}
5{0}
5{0}
5{0}
5{0}
5{0}
5{0}
5{0}
5{0}
5{0}
5{0}
5{0}
5{0}
5{0}
5{0}
5{0}
5{0}
5{0}
5{0}
5{0}
5{0}
5{0}
5{0}
5{0}
5{0}
5{0}
5{0}
5{0}
5{0}
5{0}
5{0}
5{0}
5{0}
5{0}
5{0}
5{0}
5{0}
5{0}
5{0}
5{0}
5{0}
)


60
(
5{0}
5{0}
5{0}
5{0}
5{0}
5{0}
5{0}
5{0}
5{0}
5{0}
5{0}
5{0}
5{0}
5{0}
5{0}
5{0}
5{0}
5{0}
5{0}
5{0}
5{0}
5{0}
5{0}
5{0}
5{0}
5{0}
5{0}
5{0}
5{0}
5{0}
5{0}
5{0}
5{0}
5{0}
5{0}
5{0}
5{0}
5{0}
5{0}
5{0}
5{0}
5{0}
5{0}
5{0}
5{0}
5{0}
5{0}
5{0}
5{0}
5{0}
5{0}
5{0}
5{0}
5{0}
5{0}
5{0}
5{0}
5{0}
5{0}
5{0}
)


60
(
5{0}
5{0}
5{0}
5{0}
5{0}
5{0}
5{0}
5{0}
5{0}
5{0}
5{0}
5{0}
5{0}
5{0}
5{0}
5{0}
5{0}
5{0}
5{0}
5{0}
5{0}
5{0}
5{0}
5{0}
5{0}
5{0}
5{0}
5{0}
5{0}
5{0}
5{0}
5{0}
5{0}
5{0}
5{0}
5{0}
5{0}
5{0}
5{0}
5{0}
5{0}
5{0}
5{0}
5{0}
5{0}
5{0}
5{0}
5{0}
5{0}
5{0}
5{0}
5{0}
5{0}
5{0}
5{0}
5{0}
5{0}
5{0}
5{0}
5{0}
)


60
(
5{0}
5{0}
5{0}
5{0}
5{0}
5{0}
5{0}
5{0}
5{0}
5{0}
5{0}
5{0}
5{0}
5{0}
5{0}
5{0}
5{0}
5{0}
5{0}
5{0}
5{0}
5{0}
5{0}
5{0}
5{0}
5{0}
5{0}
5{0}
5{0}
5{0}
5{0}
5{0}
5{0}
5{0}
5{0}
5{0}
5{0}
5{0}
5{0}
5{0}
5{0}
5{0}
5{0}
5{0}
5{0}
5{0}
5{0}
5{0}
5{0}
5{0}
5{0}
5{0}
5{0}
5{0}
5{0}
5{0}
5{0}
5{0}
5{0}
5{0}
)


60
(
5{0}
5{0}
5{0}
5{0}
5{0}
5{0}
5{0}
5{0}
5{0}
5{0}
5{0}
5{0}
5{0}
5{0}
5{0}
5{0}
5{0}
5{0}
5{0}
5{0}
5{0}
5{0}
5{0}
5{0}
5{0}
5{0}
5{0}
5{0}
5{0}
5{0}
5{0}
5{0}
5{0}
5{0}
5{0}
5{0}
5{0}
5{0}
5{0}
5{0}
5{0}
5{0}
5{0}
5{0}
5{0}
5{0}
5{0}
5{0}
5{0}
5{0}
5{0}
5{0}
5{0}
5{0}
5{0}
5{0}
5{0}
5{0}
5{0}
5{0}
)


60
(
5{0}
5{0}
5{0}
5{0}
5{0}
5{0}
5{0}
5{0}
5{0}
5{0}
5{0}
5{0}
5{0}
5{0}
5{0}
5{0}
5{0}
5{0}
5{0}
5{0}
5{0}
5{0}
5{0}
5{0}
5{0}
5{0}
5{0}
5{0}
5{0}
5{0}
5{0}
5{0}
5{0}
5{0}
5{0}
5{0}
5{0}
5{0}
5{0}
5{0}
5{0}
5{0}
5{0}
5{0}
5{0}
5{0}
5{0}
5{0}
5{0}
5{0}
5{0}
5{0}
5{0}
5{0}
5{0}
5{0}
5{0}
5{0}
5{0}
5{0}
)


60
(
5{0}
5{0}
5{0}
5{0}
5{0}
5{0}
5{0}
5{0}
5{0}
5{0}
5{0}
5{0}
5{0}
5{0}
5{0}
5{0}
5{0}
5{0}
5{0}
5{0}
5{0}
5{0}
5{0}
5{0}
5{0}
5{0}
5{0}
5{0}
5{0}
5{0}
5{0}
5{0}
5{0}
5{0}
5{0}
5{0}
5{0}
5{0}
5{0}
5{0}
5{0}
5{0}
5{0}
5{0}
5{0}
5{0}
5{0}
5{0}
5{0}
5{0}
5{0}
5{0}
5{0}
5{0}
5{0}
5{0}
5{0}
5{0}
5{0}
5{0}
)


60
(
5{0}
5{0}
5{0}
5{0}
5{0}
5{0}
5{0}
5{0}
5{0}
5{0}
5{0}
5{0}
5{0}
5{0}
5{0}
5{0}
5{0}
5{0}
5{0}
5{0}
5{0}
5{0}
5{0}
5{0}
5{0}
5{0}
5{0}
5{0}
5{0}
5{0}
5{0}
5{0}
5{0}
5{0}
5{0}
5{0}
5{0}
5{0}
5{0}
5{0}
5{0}
5{0}
5{0}
5{0}
5{0}
5{0}
5{0}
5{0}
5{0}
5{0}
5{0}
5{0}
5{0}
5{0}
5{0}
5{0}
5{0}
5{0}
5{0}
5{0}
)


60
(
5{0}
5{0}
5{0}
5{0}
5{0}
5{0}
5{0}
5{0}
5{0}
5{0}
5{0}
5{0}
5{0}
5{0}
5{0}
5{0}
5{0}
5{0}
5{0}
5{0}
5{0}
5{0}
5{0}
5{0}
5{0}
5{0}
5{0}
5{0}
5{0}
5{0}
5{0}
5{0}
5{0}
5{0}
5{0}
5{0}
5{0}
5{0}
5{0}
5{0}
5{0}
5{0}
5{0}
5{0}
5{0}
5{0}
5{0}
5{0}
5{0}
5{0}
5{0}
5{0}
5{0}
5{0}
5{0}
5{0}
5{0}
5{0}
5{0}
5{0}
)


60
(
5{0}
5{0}
5{0}
5{0}
5{0}
5{0}
5{0}
5{0}
5{0}
5{0}
5{0}
5{0}
5{0}
5{0}
5{0}
5{0}
5{0}
5{0}
5{0}
5{0}
5{0}
5{0}
5{0}
5{0}
5{0}
5{0}
5{0}
5{0}
5{0}
5{0}
5{0}
5{0}
5{0}
5{0}
5{0}
5{0}
5{0}
5{0}
5{0}
5{0}
5{0}
5{0}
5{0}
5{0}
5{0}
5{0}
5{0}
5{0}
5{0}
5{0}
5{0}
5{0}
5{0}
5{0}
5{0}
5{0}
5{0}
5{0}
5{0}
5{0}
)


60
(
5{0}
5{0}
5{0}
5{0}
5{0}
5{0}
5{0}
5{0}
5{0}
5{0}
5{0}
5{0}
5{0}
5{0}
5{0}
5{0}
5{0}
5{0}
5{0}
5{0}
5{0}
5{0}
5{0}
5{0}
5{0}
5{0}
5{0}
5{0}
5{0}
5{0}
5{0}
5{0}
5{0}
5{0}
5{0}
5{0}
5{0}
5{0}
5{0}
5{0}
5{0}
5{0}
5{0}
5{0}
5{0}
5{0}
5{0}
5{0}
5{0}
5{0}
5{0}
5{0}
5{0}
5{0}
5{0}
5{0}
5{0}
5{0}
5{0}
5{0}
)


60
(
5{0}
5{0}
5{0}
5{0}
5{0}
5{0}
5{0}
5{0}
5{0}
5{0}
5{0}
5{0}
5{0}
5{0}
5{0}
5{0}
5{0}
5{0}
5{0}
5{0}
5{0}
5{0}
5{0}
5{0}
5{0}
5{0}
5{0}
5{0}
5{0}
5{0}
5{0}
5{0}
5{0}
5{0}
5{0}
5{0}
5{0}
5{0}
5{0}
5{0}
5{0}
5{0}
5{0}
5{0}
5{0}
5{0}
5{0}
5{0}
5{0}
5{0}
5{0}
5{0}
5{0}
5{0}
5{0}
5{0}
5{0}
5{0}
5{0}
5{0}
)


60
(
5{0}
5{0}
5{0}
5{0}
5{0}
5{0}
5{0}
5{0}
5{0}
5{0}
5{0}
5{0}
5{0}
5{0}
5{0}
5{0}
5{0}
5{0}
5{0}
5{0}
5{0}
5{0}
5{0}
5{0}
5{0}
5{0}
5{0}
5{0}
5{0}
5{0}
5{0}
5{0}
5{0}
5{0}
5{0}
5{0}
5{0}
5{0}
5{0}
5{0}
5{0}
5{0}
5{0}
5{0}
5{0}
5{0}
5{0}
5{0}
5{0}
5{0}
5{0}
5{0}
5{0}
5{0}
5{0}
5{0}
5{0}
5{0}
5{0}
5{0}
)


60
(
5{0}
5{0}
5{0}
5{0}
5{0}
5{0}
5{0}
5{0}
5{0}
5{0}
5{0}
5{0}
5{0}
5{0}
5{0}
5{0}
5{0}
5{0}
5{0}
5{0}
5{0}
5{0}
5{0}
5{0}
5{0}
5{0}
5{0}
5{0}
5{0}
5{0}
5{0}
5{0}
5{0}
5{0}
5{0}
5{0}
5{0}
5{0}
5{0}
5{0}
5{0}
5{0}
5{0}
5{0}
5{0}
5{0}
5{0}
5{0}
5{0}
5{0}
5{0}
5{0}
5{0}
5{0}
5{0}
5{0}
5{0}
5{0}
5{0}
5{0}
)


60
(
5{0}
5{0}
5{0}
5{0}
5{0}
5{0}
5{0}
5{0}
5{0}
5{0}
5{0}
5{0}
5{0}
5{0}
5{0}
5{0}
5{0}
5{0}
5{0}
5{0}
5{0}
5{0}
5{0}
5{0}
5{0}
5{0}
5{0}
5{0}
5{0}
5{0}
5{0}
5{0}
5{0}
5{0}
5{0}
5{0}
5{0}
5{0}
5{0}
5{0}
5{0}
5{0}
5{0}
5{0}
5{0}
5{0}
5{0}
5{0}
5{0}
5{0}
5{0}
5{0}
5{0}
5{0}
5{0}
5{0}
5{0}
5{0}
5{0}
5{0}
)


60
(
5{0}
5{0}
5{0}
5{0}
5{0}
5{0}
5{0}
5{0}
5{0}
5{0}
5{0}
5{0}
5{0}
5{0}
5{0}
5{0}
5{0}
5{0}
5{0}
5{0}
5{0}
5{0}
5{0}
5{0}
5{0}
5{0}
5{0}
5{0}
5{0}
5{0}
5{0}
5{0}
5{0}
5{0}
5{0}
5{0}
5{0}
5{0}
5{0}
5{0}
5{0}
5{0}
5{0}
5{0}
5{0}
5{0}
5{0}
5{0}
5{0}
5{0}
5{0}
5{0}
5{0}
5{0}
5{0}
5{0}
5{0}
5{0}
5{0}
5{0}
)


60
(
5{0}
5{0}
5{0}
5{0}
5{0}
5{0}
5{0}
5{0}
5{0}
5{0}
5{0}
5{0}
5{0}
5{0}
5{0}
5{0}
5{0}
5{0}
5{0}
5{0}
5{0}
5{0}
5{0}
5{0}
5{0}
5{0}
5{0}
5{0}
5{0}
5{0}
5{0}
5{0}
5{0}
5{0}
5{0}
5{0}
5{0}
5{0}
5{0}
5{0}
5{0}
5{0}
5{0}
5{0}
5{0}
5{0}
5{0}
5{0}
5{0}
5{0}
5{0}
5{0}
5{0}
5{0}
5{0}
5{0}
5{0}
5{0}
5{0}
5{0}
)


60
(
5{0}
5{0}
5{0}
5{0}
5{0}
5{0}
5{0}
5{0}
5{0}
5{0}
5{0}
5{0}
5{0}
5{0}
5{0}
5{0}
5{0}
5{0}
5{0}
5{0}
5{0}
5{0}
5{0}
5{0}
5{0}
5{0}
5{0}
5{0}
5{0}
5{0}
5{0}
5{0}
5{0}
5{0}
5{0}
5{0}
5{0}
5{0}
5{0}
5{0}
5{0}
5{0}
5{0}
5{0}
5{0}
5{0}
5{0}
5{0}
5{0}
5{0}
5{0}
5{0}
5{0}
5{0}
5{0}
5{0}
5{0}
5{0}
5{0}
5{0}
)


60
(
5{0}
5{0}
5{0}
5{0}
5{0}
5{0}
5{0}
5{0}
5{0}
5{0}
5{0}
5{0}
5{0}
5{0}
5{0}
5{0}
5{0}
5{0}
5{0}
5{0}
5{0}
5{0}
5{0}
5{0}
5{0}
5{0}
5{0}
5{0}
5{0}
5{0}
5{0}
5{0}
5{0}
5{0}
5{0}
5{0}
5{0}
5{0}
5{0}
5{0}
5{0}
5{0}
5{0}
5{0}
5{0}
5{0}
5{0}
5{0}
5{0}
5{0}
5{0}
5{0}
5{0}
5{0}
5{0}
5{0}
5{0}
5{0}
5{0}
5{0}
)


60
(
5{0}
5{0}
5{0}
5{0}
5{0}
5{0}
5{0}
5{0}
5{0}
5{0}
5{0}
5{0}
5{0}
5{0}
5{0}
5{0}
5{0}
5{0}
5{0}
5{0}
5{0}
5{0}
5{0}
5{0}
5{0}
5{0}
5{0}
5{0}
5{0}
5{0}
5{0}
5{0}
5{0}
5{0}
5{0}
5{0}
5{0}
5{0}
5{0}
5{0}
5{0}
5{0}
5{0}
5{0}
5{0}
5{0}
5{0}
5{0}
5{0}
5{0}
5{0}
5{0}
5{0}
5{0}
5{0}
5{0}
5{0}
5{0}
5{0}
5{0}
)


60
(
5{0}
5{0}
5{0}
5{0}
5{0}
5{0}
5{0}
5{0}
5{0}
5{0}
5{0}
5{0}
5{0}
5{0}
5{0}
5{0}
5{0}
5{0}
5{0}
5{0}
5{0}
5{0}
5{0}
5{0}
5{0}
5{0}
5{0}
5{0}
5{0}
5{0}
5{0}
5{0}
5{0}
5{0}
5{0}
5{0}
5{0}
5{0}
5{0}
5{0}
5{0}
5{0}
5{0}
5{0}
5{0}
5{0}
5{0}
5{0}
5{0}
5{0}
5{0}
5{0}
5{0}
5{0}
5{0}
5{0}
5{0}
5{0}
5{0}
5{0}
)


60
(
5{0}
5{0}
5{0}
5{0}
5{0}
5{0}
5{0}
5{0}
5{0}
5{0}
5{0}
5{0}
5{0}
5{0}
5{0}
5{0}
5{0}
5{0}
5{0}
5{0}
5{0}
5{0}
5{0}
5{0}
5{0}
5{0}
5{0}
5{0}
5{0}
5{0}
5{0}
5{0}
5{0}
5{0}
5{0}
5{0}
5{0}
5{0}
5{0}
5{0}
5{0}
5{0}
5{0}
5{0}
5{0}
5{0}
5{0}
5{0}
5{0}
5{0}
5{0}
5{0}
5{0}
5{0}
5{0}
5{0}
5{0}
5{0}
5{0}
5{0}
)


60
(
5{0}
5{0}
5{0}
5{0}
5{0}
5{0}
5{0}
5{0}
5{0}
5{0}
5{0}
5{0}
5{0}
5{0}
5{0}
5{0}
5{0}
5{0}
5{0}
5{0}
5{0}
5{0}
5{0}
5{0}
5{0}
5{0}
5{0}
5{0}
5{0}
5{0}
5{0}
5{0}
5{0}
5{0}
5{0}
5{0}
5{0}
5{0}
5{0}
5{0}
5{0}
5{0}
5{0}
5{0}
5{0}
5{0}
5{0}
5{0}
5{0}
5{0}
5{0}
5{0}
5{0}
5{0}
5{0}
5{0}
5{0}
5{0}
5{0}
5{0}
)


60
(
5{0}
5{0}
5{0}
5{0}
5{0}
5{0}
5{0}
5{0}
5{0}
5{0}
5{0}
5{0}
5{0}
5{0}
5{0}
5{0}
5{0}
5{0}
5{0}
5{0}
5{0}
5{0}
5{0}
5{0}
5{0}
5{0}
5{0}
5{0}
5{0}
5{0}
5{0}
5{0}
5{0}
5{0}
5{0}
5{0}
5{0}
5{0}
5{0}
5{0}
5{0}
5{0}
5{0}
5{0}
5{0}
5{0}
5{0}
5{0}
5{0}
5{0}
5{0}
5{0}
5{0}
5{0}
5{0}
5{0}
5{0}
5{0}
5{0}
5{0}
)


60
(
5{0}
5{0}
5{0}
5{0}
5{0}
5{0}
5{0}
5{0}
5{0}
5{0}
5{0}
5{0}
5{0}
5{0}
5{0}
5{0}
5{0}
5{0}
5{0}
5{0}
5{0}
5{0}
5{0}
5{0}
5{0}
5{0}
5{0}
5{0}
5{0}
5{0}
5{0}
5{0}
5{0}
5{0}
5{0}
5{0}
5{0}
5{0}
5{0}
5{0}
5{0}
5{0}
5{0}
5{0}
5{0}
5{0}
5{0}
5{0}
5{0}
5{0}
5{0}
5{0}
5{0}
5{0}
5{0}
5{0}
5{0}
5{0}
5{0}
5{0}
)


60
(
5{0}
5{0}
5{0}
5{0}
5{0}
5{0}
5{0}
5{0}
5{0}
5{0}
5{0}
5{0}
5{0}
5{0}
5{0}
5{0}
5{0}
5{0}
5{0}
5{0}
5{0}
5{0}
5{0}
5{0}
5{0}
5{0}
5{0}
5{0}
5{0}
5{0}
5{0}
5{0}
5{0}
5{0}
5{0}
5{0}
5{0}
5{0}
5{0}
5{0}
5{0}
5{0}
5{0}
5{0}
5{0}
5{0}
5{0}
5{0}
5{0}
5{0}
5{0}
5{0}
5{0}
5{0}
5{0}
5{0}
5{0}
5{0}
5{0}
5{0}
)


60
(
5{0}
5{0}
5{0}
5{0}
5{0}
5{0}
5{0}
5{0}
5{0}
5{0}
5{0}
5{0}
5{0}
5{0}
5{0}
5{0}
5{0}
5{0}
5{0}
5{0}
5{0}
5{0}
5{0}
5{0}
5{0}
5{0}
5{0}
5{0}
5{0}
5{0}
5{0}
5{0}
5{0}
5{0}
5{0}
5{0}
5{0}
5{0}
5{0}
5{0}
5{0}
5{0}
5{0}
5{0}
5{0}
5{0}
5{0}
5{0}
5{0}
5{0}
5{0}
5{0}
5{0}
5{0}
5{0}
5{0}
5{0}
5{0}
5{0}
5{0}
)


60
(
5{0}
5{0}
5{0}
5{0}
5{0}
5{0}
5{0}
5{0}
5{0}
5{0}
5{0}
5{0}
5{0}
5{0}
5{0}
5{0}
5{0}
5{0}
5{0}
5{0}
5{0}
5{0}
5{0}
5{0}
5{0}
5{0}
5{0}
5{0}
5{0}
5{0}
5{0}
5{0}
5{0}
5{0}
5{0}
5{0}
5{0}
5{0}
5{0}
5{0}
5{0}
5{0}
5{0}
5{0}
5{0}
5{0}
5{0}
5{0}
5{0}
5{0}
5{0}
5{0}
5{0}
5{0}
5{0}
5{0}
5{0}
5{0}
5{0}
5{0}
)


60
(
5{0}
5{0}
5{0}
5{0}
5{0}
5{0}
5{0}
5{0}
5{0}
5{0}
5{0}
5{0}
5{0}
5{0}
5{0}
5{0}
5{0}
5{0}
5{0}
5{0}
5{0}
5{0}
5{0}
5{0}
5{0}
5{0}
5{0}
5{0}
5{0}
5{0}
5{0}
5{0}
5{0}
5{0}
5{0}
5{0}
5{0}
5{0}
5{0}
5{0}
5{0}
5{0}
5{0}
5{0}
5{0}
5{0}
5{0}
5{0}
5{0}
5{0}
5{0}
5{0}
5{0}
5{0}
5{0}
5{0}
5{0}
5{0}
5{0}
5{0}
)


60
(
5{0}
5{0}
5{0}
5{0}
5{0}
5{0}
5{0}
5{0}
5{0}
5{0}
5{0}
5{0}
5{0}
5{0}
5{0}
5{0}
5{0}
5{0}
5{0}
5{0}
5{0}
5{0}
5{0}
5{0}
5{0}
5{0}
5{0}
5{0}
5{0}
5{0}
5{0}
5{0}
5{0}
5{0}
5{0}
5{0}
5{0}
5{0}
5{0}
5{0}
5{0}
5{0}
5{0}
5{0}
5{0}
5{0}
5{0}
5{0}
5{0}
5{0}
5{0}
5{0}
5{0}
5{0}
5{0}
5{0}
5{0}
5{0}
5{0}
5{0}
)


60
(
5{0}
5{0}
5{0}
5{0}
5{0}
5{0}
5{0}
5{0}
5{0}
5{0}
5{0}
5{0}
5{0}
5{0}
5{0}
5{0}
5{0}
5{0}
5{0}
5{0}
5{0}
5{0}
5{0}
5{0}
5{0}
5{0}
5{0}
5{0}
5{0}
5{0}
5{0}
5{0}
5{0}
5{0}
5{0}
5{0}
5{0}
5{0}
5{0}
5{0}
5{0}
5{0}
5{0}
5{0}
5{0}
5{0}
5{0}
5{0}
5{0}
5{0}
5{0}
5{0}
5{0}
5{0}
5{0}
5{0}
5{0}
5{0}
5{0}
5{0}
)


60
(
5{0}
5{0}
5{0}
5{0}
5{0}
5{0}
5{0}
5{0}
5{0}
5{0}
5{0}
5{0}
5{0}
5{0}
5{0}
5{0}
5{0}
5{0}
5{0}
5{0}
5{0}
5{0}
5{0}
5{0}
5{0}
5{0}
5{0}
5{0}
5{0}
5{0}
5{0}
5{0}
5{0}
5{0}
5{0}
5{0}
5{0}
5{0}
5{0}
5{0}
5{0}
5{0}
5{0}
5{0}
5{0}
5{0}
5{0}
5{0}
5{0}
5{0}
5{0}
5{0}
5{0}
5{0}
5{0}
5{0}
5{0}
5{0}
5{0}
5{0}
)


60
(
5{0}
5{0}
5{0}
5{0}
5{0}
5{0}
5{0}
5{0}
5{0}
5{0}
5{0}
5{0}
5{0}
5{0}
5{0}
5{0}
5{0}
5{0}
5{0}
5{0}
5{0}
5{0}
5{0}
5{0}
5{0}
5{0}
5{0}
5{0}
5{0}
5{0}
5{0}
5{0}
5{0}
5{0}
5{0}
5{0}
5{0}
5{0}
5{0}
5{0}
5{0}
5{0}
5{0}
5{0}
5{0}
5{0}
5{0}
5{0}
5{0}
5{0}
5{0}
5{0}
5{0}
5{0}
5{0}
5{0}
5{0}
5{0}
5{0}
5{0}
)


60
(
5{0}
5{0}
5{0}
5{0}
5{0}
5{0}
5{0}
5{0}
5{0}
5{0}
5{0}
5{0}
5{0}
5{0}
5{0}
5{0}
5{0}
5{0}
5{0}
5{0}
5{0}
5{0}
5{0}
5{0}
5{0}
5{0}
5{0}
5{0}
5{0}
5{0}
5{0}
5{0}
5{0}
5{0}
5{0}
5{0}
5{0}
5{0}
5{0}
5{0}
5{0}
5{0}
5{0}
5{0}
5{0}
5{0}
5{0}
5{0}
5{0}
5{0}
5{0}
5{0}
5{0}
5{0}
5{0}
5{0}
5{0}
5{0}
5{0}
5{0}
)


60
(
5{0}
5{0}
5{0}
5{0}
5{0}
5{0}
5{0}
5{0}
5{0}
5{0}
5{0}
5{0}
5{0}
5{0}
5{0}
5{0}
5{0}
5{0}
5{0}
5{0}
5{0}
5{0}
5{0}
5{0}
5{0}
5{0}
5{0}
5{0}
5{0}
5{0}
5{0}
5{0}
5{0}
5{0}
5{0}
5{0}
5{0}
5{0}
5{0}
5{0}
5{0}
5{0}
5{0}
5{0}
5{0}
5{0}
5{0}
5{0}
5{0}
5{0}
5{0}
5{0}
5{0}
5{0}
5{0}
5{0}
5{0}
5{0}
5{0}
5{0}
)


60
(
5{0}
5{0}
5{0}
5{0}
5{0}
5{0}
5{0}
5{0}
5{0}
5{0}
5{0}
5{0}
5{0}
5{0}
5{0}
5{0}
5{0}
5{0}
5{0}
5{0}
5{0}
5{0}
5{0}
5{0}
5{0}
5{0}
5{0}
5{0}
5{0}
5{0}
5{0}
5{0}
5{0}
5{0}
5{0}
5{0}
5{0}
5{0}
5{0}
5{0}
5{0}
5{0}
5{0}
5{0}
5{0}
5{0}
5{0}
5{0}
5{0}
5{0}
5{0}
5{0}
5{0}
5{0}
5{0}
5{0}
5{0}
5{0}
5{0}
5{0}
)


60
(
5{0}
5{0}
5{0}
5{0}
5{0}
5{0}
5{0}
5{0}
5{0}
5{0}
5{0}
5{0}
5{0}
5{0}
5{0}
5{0}
5{0}
5{0}
5{0}
5{0}
5{0}
5{0}
5{0}
5{0}
5{0}
5{0}
5{0}
5{0}
5{0}
5{0}
5{0}
5{0}
5{0}
5{0}
5{0}
5{0}
5{0}
5{0}
5{0}
5{0}
5{0}
5{0}
5{0}
5{0}
5{0}
5{0}
5{0}
5{0}
5{0}
5{0}
5{0}
5{0}
5{0}
5{0}
5{0}
5{0}
5{0}
5{0}
5{0}
5{0}
)


60
(
5{0}
5{0}
5{0}
5{0}
5{0}
5{0}
5{0}
5{0}
5{0}
5{0}
5{0}
5{0}
5{0}
5{0}
5{0}
5{0}
5{0}
5{0}
5{0}
5{0}
5{0}
5{0}
5{0}
5{0}
5{0}
5{0}
5{0}
5{0}
5{0}
5{0}
5{0}
5{0}
5{0}
5{0}
5{0}
5{0}
5{0}
5{0}
5{0}
5{0}
5{0}
5{0}
5{0}
5{0}
5{0}
5{0}
5{0}
5{0}
5{0}
5{0}
5{0}
5{0}
5{0}
5{0}
5{0}
5{0}
5{0}
5{0}
5{0}
5{0}
)


60
(
5{0}
5{0}
5{0}
5{0}
5{0}
5{0}
5{0}
5{0}
5{0}
5{0}
5{0}
5{0}
5{0}
5{0}
5{0}
5{0}
5{0}
5{0}
5{0}
5{0}
5{0}
5{0}
5{0}
5{0}
5{0}
5{0}
5{0}
5{0}
5{0}
5{0}
5{0}
5{0}
5{0}
5{0}
5{0}
5{0}
5{0}
5{0}
5{0}
5{0}
5{0}
5{0}
5{0}
5{0}
5{0}
5{0}
5{0}
5{0}
5{0}
5{0}
5{0}
5{0}
5{0}
5{0}
5{0}
5{0}
5{0}
5{0}
5{0}
5{0}
)


60
(
5{0}
5{0}
5{0}
5{0}
5{0}
5{0}
5{0}
5{0}
5{0}
5{0}
5{0}
5{0}
5{0}
5{0}
5{0}
5{0}
5{0}
5{0}
5{0}
5{0}
5{0}
5{0}
5{0}
5{0}
5{0}
5{0}
5{0}
5{0}
5{0}
5{0}
5{0}
5{0}
5{0}
5{0}
5{0}
5{0}
5{0}
5{0}
5{0}
5{0}
5{0}
5{0}
5{0}
5{0}
5{0}
5{0}
5{0}
5{0}
5{0}
5{0}
5{0}
5{0}
5{0}
5{0}
5{0}
5{0}
5{0}
5{0}
5{0}
5{0}
)


60
(
5{0}
5{0}
5{0}
5{0}
5{0}
5{0}
5{0}
5{0}
5{0}
5{0}
5{0}
5{0}
5{0}
5{0}
5{0}
5{0}
5{0}
5{0}
5{0}
5{0}
5{0}
5{0}
5{0}
5{0}
5{0}
5{0}
5{0}
5{0}
5{0}
5{0}
5{0}
5{0}
5{0}
5{0}
5{0}
5{0}
5{0}
5{0}
5{0}
5{0}
5{0}
5{0}
5{0}
5{0}
5{0}
5{0}
5{0}
5{0}
5{0}
5{0}
5{0}
5{0}
5{0}
5{0}
5{0}
5{0}
5{0}
5{0}
5{0}
5{0}
)


60
(
5{0}
5{0}
5{0}
5{0}
5{0}
5{0}
5{0}
5{0}
5{0}
5{0}
5{0}
5{0}
5{0}
5{0}
5{0}
5{0}
5{0}
5{0}
5{0}
5{0}
5{0}
5{0}
5{0}
5{0}
5{0}
5{0}
5{0}
5{0}
5{0}
5{0}
5{0}
5{0}
5{0}
5{0}
5{0}
5{0}
5{0}
5{0}
5{0}
5{0}
5{0}
5{0}
5{0}
5{0}
5{0}
5{0}
5{0}
5{0}
5{0}
5{0}
5{0}
5{0}
5{0}
5{0}
5{0}
5{0}
5{0}
5{0}
5{0}
5{0}
)


60
(
5{0}
5{0}
5{0}
5{0}
5{0}
5{0}
5{0}
5{0}
5{0}
5{0}
5{0}
5{0}
5{0}
5{0}
5{0}
5{0}
5{0}
5{0}
5{0}
5{0}
5{0}
5{0}
5{0}
5{0}
5{0}
5{0}
5{0}
5{0}
5{0}
5{0}
5{0}
5{0}
5{0}
5{0}
5{0}
5{0}
5{0}
5{0}
5{0}
5{0}
5{0}
5{0}
5{0}
5{0}
5{0}
5{0}
5{0}
5{0}
5{0}
5{0}
5{0}
5{0}
5{0}
5{0}
5{0}
5{0}
5{0}
5{0}
5{0}
5{0}
)


60
(
5{0}
5{0}
5{0}
5{0}
5{0}
5{0}
5{0}
5{0}
5{0}
5{0}
5{0}
5{0}
5{0}
5{0}
5{0}
5{0}
5{0}
5{0}
5{0}
5{0}
5{0}
5{0}
5{0}
5{0}
5{0}
5{0}
5{0}
5{0}
5{0}
5{0}
5{0}
5{0}
5{0}
5{0}
5{0}
5{0}
5{0}
5{0}
5{0}
5{0}
5{0}
5{0}
5{0}
5{0}
5{0}
5{0}
5{0}
5{0}
5{0}
5{0}
5{0}
5{0}
5{0}
5{0}
5{0}
5{0}
5{0}
5{0}
5{0}
5{0}
)


60
(
5{0}
5{0}
5{0}
5{0}
5{0}
5{0}
5{0}
5{0}
5{0}
5{0}
5{0}
5{0}
5{0}
5{0}
5{0}
5{0}
5{0}
5{0}
5{0}
5{0}
5{0}
5{0}
5{0}
5{0}
5{0}
5{0}
5{0}
5{0}
5{0}
5{0}
5{0}
5{0}
5{0}
5{0}
5{0}
5{0}
5{0}
5{0}
5{0}
5{0}
5{0}
5{0}
5{0}
5{0}
5{0}
5{0}
5{0}
5{0}
5{0}
5{0}
5{0}
5{0}
5{0}
5{0}
5{0}
5{0}
5{0}
5{0}
5{0}
5{0}
)


60
(
5{0}
5{0}
5{0}
5{0}
5{0}
5{0}
5{0}
5{0}
5{0}
5{0}
5{0}
5{0}
5{0}
5{0}
5{0}
5{0}
5{0}
5{0}
5{0}
5{0}
5{0}
5{0}
5{0}
5{0}
5{0}
5{0}
5{0}
5{0}
5{0}
5{0}
5{0}
5{0}
5{0}
5{0}
5{0}
5{0}
5{0}
5{0}
5{0}
5{0}
5{0}
5{0}
5{0}
5{0}
5{0}
5{0}
5{0}
5{0}
5{0}
5{0}
5{0}
5{0}
5{0}
5{0}
5{0}
5{0}
5{0}
5{0}
5{0}
5{0}
)


60
(
5{0}
5{0}
5{0}
5{0}
5{0}
5{0}
5{0}
5{0}
5{0}
5{0}
5{0}
5{0}
5{0}
5{0}
5{0}
5{0}
5{0}
5{0}
5{0}
5{0}
5{0}
5{0}
5{0}
5{0}
5{0}
5{0}
5{0}
5{0}
5{0}
5{0}
5{0}
5{0}
5{0}
5{0}
5{0}
5{0}
5{0}
5{0}
5{0}
5{0}
5{0}
5{0}
5{0}
5{0}
5{0}
5{0}
5{0}
5{0}
5{0}
5{0}
5{0}
5{0}
5{0}
5{0}
5{0}
5{0}
5{0}
5{0}
5{0}
5{0}
)


60
(
5{0}
5{0}
5{0}
5{0}
5{0}
5{0}
5{0}
5{0}
5{0}
5{0}
5{0}
5{0}
5{0}
5{0}
5{0}
5{0}
5{0}
5{0}
5{0}
5{0}
5{0}
5{0}
5{0}
5{0}
5{0}
5{0}
5{0}
5{0}
5{0}
5{0}
5{0}
5{0}
5{0}
5{0}
5{0}
5{0}
5{0}
5{0}
5{0}
5{0}
5{0}
5{0}
5{0}
5{0}
5{0}
5{0}
5{0}
5{0}
5{0}
5{0}
5{0}
5{0}
5{0}
5{0}
5{0}
5{0}
5{0}
5{0}
5{0}
5{0}
)


60
(
5{0}
5{0}
5{0}
5{0}
5{0}
5{0}
5{0}
5{0}
5{0}
5{0}
5{0}
5{0}
5{0}
5{0}
5{0}
5{0}
5{0}
5{0}
5{0}
5{0}
5{0}
5{0}
5{0}
5{0}
5{0}
5{0}
5{0}
5{0}
5{0}
5{0}
5{0}
5{0}
5{0}
5{0}
5{0}
5{0}
5{0}
5{0}
5{0}
5{0}
5{0}
5{0}
5{0}
5{0}
5{0}
5{0}
5{0}
5{0}
5{0}
5{0}
5{0}
5{0}
5{0}
5{0}
5{0}
5{0}
5{0}
5{0}
5{0}
5{0}
)


60
(
5{0}
5{0}
5{0}
5{0}
5{0}
5{0}
5{0}
5{0}
5{0}
5{0}
5{0}
5{0}
5{0}
5{0}
5{0}
5{0}
5{0}
5{0}
5{0}
5{0}
5{0}
5{0}
5{0}
5{0}
5{0}
5{0}
5{0}
5{0}
5{0}
5{0}
5{0}
5{0}
5{0}
5{0}
5{0}
5{0}
5{0}
5{0}
5{0}
5{0}
5{0}
5{0}
5{0}
5{0}
5{0}
5{0}
5{0}
5{0}
5{0}
5{0}
5{0}
5{0}
5{0}
5{0}
5{0}
5{0}
5{0}
5{0}
5{0}
5{0}
)


60
(
5{0}
5{0}
5{0}
5{0}
5{0}
5{0}
5{0}
5{0}
5{0}
5{0}
5{0}
5{0}
5{0}
5{0}
5{0}
5{0}
5{0}
5{0}
5{0}
5{0}
5{0}
5{0}
5{0}
5{0}
5{0}
5{0}
5{0}
5{0}
5{0}
5{0}
5{0}
5{0}
5{0}
5{0}
5{0}
5{0}
5{0}
5{0}
5{0}
5{0}
5{0}
5{0}
5{0}
5{0}
5{0}
5{0}
5{0}
5{0}
5{0}
5{0}
5{0}
5{0}
5{0}
5{0}
5{0}
5{0}
5{0}
5{0}
5{0}
5{0}
)


60
(
5{0}
5{0}
5{0}
5{0}
5{0}
5{0}
5{0}
5{0}
5{0}
5{0}
5{0}
5{0}
5{0}
5{0}
5{0}
5{0}
5{0}
5{0}
5{0}
5{0}
5{0}
5{0}
5{0}
5{0}
5{0}
5{0}
5{0}
5{0}
5{0}
5{0}
5{0}
5{0}
5{0}
5{0}
5{0}
5{0}
5{0}
5{0}
5{0}
5{0}
5{0}
5{0}
5{0}
5{0}
5{0}
5{0}
5{0}
5{0}
5{0}
5{0}
5{0}
5{0}
5{0}
5{0}
5{0}
5{0}
5{0}
5{0}
5{0}
5{0}
)


60
(
5{0}
5{0}
5{0}
5{0}
5{0}
5{0}
5{0}
5{0}
5{0}
5{0}
5{0}
5{0}
5{0}
5{0}
5{0}
5{0}
5{0}
5{0}
5{0}
5{0}
5{0}
5{0}
5{0}
5{0}
5{0}
5{0}
5{0}
5{0}
5{0}
5{0}
5{0}
5{0}
5{0}
5{0}
5{0}
5{0}
5{0}
5{0}
5{0}
5{0}
5{0}
5{0}
5{0}
5{0}
5{0}
5{0}
5{0}
5{0}
5{0}
5{0}
5{0}
5{0}
5{0}
5{0}
5{0}
5{0}
5{0}
5{0}
5{0}
5{0}
)

)
;