/*--------------------------------*- C++ -*----------------------------------*\
| =========                 |                                                 |
| \\      /  F ield         | OpenFOAM: The Open Source CFD Toolbox           |
|  \\    /   O peration     | Version:  2.3.1                                 |
|   \\  /    A nd           | Web:      www.OpenFOAM.org                      |
|    \\/     M anipulation  |                                                 |
\*---------------------------------------------------------------------------*/
FoamFile
{
    version     2.0;
    format      ascii;
    class       dictionary;
    location    "constant";
    object      PM61;
}
// * * * * * * * * * * * * * * * * * * * * * * * * * * * * * * * * * * * * * //

PM61_table
60
(

60
(
5(5.855266667e-09 3.285662975e-09 2.201036344e-09 -1.111078443e-09 -1.560791692e-10)
5(1.513175404e-08 -3.008617674e-09 -2.491539992e-09 -1.144575367e-09 1.828709068e-09)
5(-1.531746126e-09 -3.588124867e-09 -2.133256687e-09 -4.562089052e-10 -7.334535819e-10)
5(-4.284028653e-09 -3.591151513e-09 -1.936478847e-09 -1.120673914e-09 -5.653908997e-10)
5(-5.811662881e-09 -3.599440611e-09 -1.576941453e-09 -1.143745578e-09 -4.916444585e-10)
5(-6.175450533e-09 -3.115880073e-09 -1.756497847e-09 -1.009417506e-09 -6.364098009e-10)
5(-5.007743819e-09 -3.058322935e-09 -2.232557784e-09 -1.019786514e-09 -6.366815236e-10)
5(-5.101274327e-09 -3.155805975e-09 -2.057954519e-09 -9.129012789e-10 -5.171758102e-10)
5(-5.123049626e-09 -2.968861353e-09 -1.847644136e-09 -8.33143686e-10 -5.477802835e-10)
5(-4.642662081e-09 -2.792980782e-09 -1.695384654e-09 -7.418839224e-10 -4.739053081e-10)
5(-4.56817605e-09 -2.54753524e-09 -1.47372491e-09 -6.657695772e-10 -4.032477353e-10)
5(-4.189771863e-09 -2.336978606e-09 -1.315833815e-09 -5.896762051e-10 -3.453126965e-10)
5(-4.054766521e-09 -2.117776718e-09 -1.206124837e-09 -5.077165592e-10 -2.945138422e-10)
5(-3.719761508e-09 -1.878991542e-09 -1.048883157e-09 -4.285937675e-10 -2.43306723e-10)
5(-3.383203546e-09 -1.672571055e-09 -9.146283988e-10 -3.630633852e-10 -1.989813493e-10)
5(-3.078080921e-09 -1.465499479e-09 -7.839506598e-10 -2.98539739e-10 -1.609183548e-10)
5(-2.781371749e-09 -1.266957005e-09 -6.564804792e-10 -2.446185719e-10 -1.272581178e-10)
5(-2.484232903e-09 -1.083049047e-09 -5.466807749e-10 -1.947546851e-10 -9.77808359e-11)
5(-2.196282994e-09 -9.24437789e-10 -4.452609101e-10 -1.534316504e-10 -7.3578483e-11)
5(-1.923953153e-09 -7.655427227e-10 -3.561524948e-10 -1.180498975e-10 -5.496242293e-11)
5(-1.637409537e-09 -6.189207945e-10 -2.795136216e-10 -8.789748905e-11 -4.029973235e-11)
5(-1.402365194e-09 -4.995798816e-10 -2.144872242e-10 -6.550649389e-11 -2.92465651e-11)
5(-1.179926715e-09 -3.963217921e-10 -1.634607298e-10 -4.861911612e-11 -2.098875764e-11)
5(-9.579630752e-10 -3.052858943e-10 -1.212243436e-10 -3.500674276e-11 -1.502270379e-11)
5(-7.752965831e-10 -2.309877682e-10 -8.954669185e-11 -2.538883639e-11 -1.102552078e-11)
5(-6.093886274e-10 -1.718129521e-10 -6.425193191e-11 -1.849542832e-11 -8.563974839e-12)
5(-4.691652001e-10 -1.261084112e-10 -4.618793563e-11 -1.413382522e-11 -7.412990505e-12)
5(-3.630528726e-10 -9.179398297e-11 -3.397142773e-11 -1.186788229e-11 -7.35417576e-12)
5(-2.740494364e-10 -6.619479788e-11 -2.627820252e-11 -1.139755208e-11 -8.266533875e-12)
5(-2.038360686e-10 -4.966921791e-11 -2.274255935e-11 -1.258793965e-11 -1.021107887e-11)
5(-1.50951692e-10 -4.003890934e-11 -2.25921907e-11 -1.536487818e-11 -1.316989123e-11)
5(-1.133732327e-10 -3.642661974e-11 -2.561677223e-11 -1.976206089e-11 -1.738657443e-11)
5(-8.961182907e-11 -3.797811851e-11 -3.169882572e-11 -2.644655136e-11 -2.338774529e-11)
5(-7.603496767e-11 -4.438163245e-11 -4.090692727e-11 -3.469047418e-11 -2.944156042e-11)
5(-7.257656661e-11 -5.544779424e-11 -5.326592051e-11 -4.489797303e-11 -3.741175937e-11)
5(-7.723106078e-11 -7.098739535e-11 -6.871796346e-11 -5.600552721e-11 -4.467144692e-11)
5(-9.107736204e-11 -9.176307382e-11 -8.69214303e-11 -6.687007201e-11 -4.82911241e-11)
5(-1.108850783e-10 -1.129427081e-10 -1.036535222e-10 -7.269598629e-11 -4.82853489e-11)
5(-1.34997298e-10 -1.34717747e-10 -1.154102138e-10 -7.768725697e-11 -4.212158394e-11)
5(-1.604373855e-10 -1.515766723e-10 -1.19810544e-10 -6.325993228e-11 -4.528654888e-12)
5(-1.824321463e-10 -1.582868211e-10 -1.135495308e-10 -4.825691519e-11 -2.048534049e-11)
5(-1.918888367e-10 -1.493416401e-10 -9.319425021e-11 -2.317914416e-11 -1.610118733e-11)
5(-1.836933667e-10 -1.273464314e-10 -6.592263663e-11 -1.902598548e-11 -1.096481869e-11)
5(-1.58951715e-10 -9.591679947e-11 -4.312220927e-11 -1.394857162e-11 -4.845603418e-12)
5(-1.206906519e-10 -6.265374118e-11 -2.270531652e-11 -6.438365699e-12 -1.715578668e-12)
5(-8.006795849e-11 -3.424590987e-11 -7.777855695e-12 -2.407394931e-12 -4.522587713e-13)
5(-4.390963841e-11 -1.364827217e-11 -2.545369829e-12 -7.542046312e-13 -9.230260241e-14)
5(-1.941401072e-11 -4.997115975e-12 -1.071110553e-12 -1.643525331e-13 -1.192071577e-14)
5(-7.517047799e-12 -1.132482564e-12 -2.435172972e-13 -2.363900078e-14 -1.144971603e-15)
5(-1.315017384e-12 -2.04053857e-13 -4.20804471e-14 -2.219029098e-15 -8.410852707e-17)
5(-2.173121701e-13 -4.164554456e-14 -4.014182643e-15 -1.47753546e-16 -4.253993311e-18)
5(-3.887043769e-14 -4.358963539e-15 -2.50231852e-16 -6.774533294e-18 -1.677279723e-19)
5(-4.408014377e-15 -2.536344893e-16 -1.073699493e-17 -2.282943734e-19 -4.654402453e-21)
5(-1.851620104e-16 -7.253557042e-18 -2.503886894e-19 -6.32261058e-21 -9.148829772e-23)
5(-3.805784946e-18 5.746660799e-19 -3.672896282e-21 -1.07921281e-19 -8.921087208e-25)
5(-2.306464732e-20 6.589940402e-17 -1.563035885e-20 -2.097238851e-18 1.38451097e-28)
5(-4.297574342e-23 3.157990231e-15 3.971457087e-19 8.70916578e-15 4.302362419e-29)
5(1.777469259e-26 1.538889535e-13 -9.389943384e-18 5.143724222e-12 1.504192738e-31)
5(5.12974412e-30 -2.804090362e-11 -7.479170381e-14 -1.942240188e-12 8.813345025e-34)
5(4.230349157e-36 2.761196697e-35 4.483979329e-36 2.310591067e-34 7.341940042e-34)
)


60
(
5(-1.364213035e-08 -6.808282941e-09 -5.365777558e-09 -2.667832747e-09 -1.344048622e-09)
5(-1.661698202e-08 -8.647901777e-09 -5.978234907e-09 -2.436807966e-09 -1.4786899e-09)
5(-1.501650289e-08 -8.256929783e-09 -4.885677942e-09 -2.226130096e-09 -1.48463884e-09)
5(-1.34814772e-08 -8.241708943e-09 -4.488692383e-09 -2.219449525e-09 -1.040040214e-09)
5(-1.571946641e-08 -8.884631446e-09 -4.833458948e-09 -2.182205199e-09 -1.22657712e-09)
5(-1.825057566e-08 -9.508366102e-09 -5.45606762e-09 -2.275287535e-09 -1.343957379e-09)
5(-1.893605777e-08 -9.723654423e-09 -5.472090942e-09 -2.339483063e-09 -1.221402269e-09)
5(-1.939973916e-08 -9.522748718e-09 -5.183080853e-09 -2.179262419e-09 -1.268154105e-09)
5(-1.870328577e-08 -9.172563221e-09 -4.919713056e-09 -2.013045879e-09 -1.133466152e-09)
5(-1.814886672e-08 -8.74320409e-09 -4.536816412e-09 -1.878404032e-09 -1.025152834e-09)
5(-1.789200921e-08 -8.382053929e-09 -4.233925422e-09 -1.725424078e-09 -9.321548791e-10)
5(-1.748391748e-08 -7.891028434e-09 -3.979008825e-09 -1.570201838e-09 -8.487088997e-10)
5(-1.672498345e-08 -7.331885534e-09 -3.643204862e-09 -1.399785723e-09 -7.445834982e-10)
5(-1.581431221e-08 -6.716590719e-09 -3.275987663e-09 -1.249447013e-09 -6.490256878e-10)
5(-1.49062302e-08 -6.162079905e-09 -2.921331629e-09 -1.079973758e-09 -5.531610632e-10)
5(-1.39502009e-08 -5.533028542e-09 -2.558574277e-09 -9.243105913e-10 -4.641624907e-10)
5(-1.27343664e-08 -4.956486333e-09 -2.209727894e-09 -7.780557922e-10 -3.803056077e-10)
5(-1.168956786e-08 -4.357936638e-09 -1.884819264e-09 -6.433367357e-10 -3.085236889e-10)
5(-1.059573341e-08 -3.771018826e-09 -1.580456075e-09 -5.272671024e-10 -2.464477003e-10)
5(-9.437863765e-09 -3.211154733e-09 -1.302619421e-09 -4.213793351e-10 -1.934268831e-10)
5(-8.497182594e-09 -2.723614288e-09 -1.062891023e-09 -3.340889436e-10 -1.485429166e-10)
5(-7.298374084e-09 -2.261920471e-09 -8.455228184e-10 -2.624686498e-10 -1.127479512e-10)
5(-6.364565665e-09 -1.847090404e-09 -6.617872752e-10 -1.966948844e-10 -8.256665948e-11)
5(-5.386622843e-09 -1.465118733e-09 -5.054938479e-10 -1.457729111e-10 -5.986612088e-11)
5(-4.565912714e-09 -1.152251615e-09 -3.777647618e-10 -1.057824708e-10 -4.268158015e-11)
5(-3.75146546e-09 -8.891454522e-10 -2.757097552e-10 -7.477097038e-11 -3.026321142e-11)
5(-3.059231201e-09 -6.745406894e-10 -1.979879811e-10 -5.241384618e-11 -2.148599026e-11)
5(-2.525921834e-09 -5.000592967e-10 -1.382306999e-10 -3.650404025e-11 -1.587500975e-11)
5(-1.972153475e-09 -3.631871564e-10 -9.544193338e-11 -2.592613563e-11 -1.252695228e-11)
5(-1.562010635e-09 -2.584681852e-10 -6.508411583e-11 -1.933836987e-11 -1.121234879e-11)
5(-1.203178113e-09 -1.801118503e-10 -4.471058977e-11 -1.581744296e-11 -1.162926052e-11)
5(-9.225800727e-10 -1.263690526e-10 -3.275895776e-11 -1.538754914e-11 -1.397534128e-11)
5(-6.903862988e-10 -9.002941911e-11 -2.699585602e-11 -1.761165788e-11 -1.834548235e-11)
5(-5.105586256e-10 -6.573512723e-11 -2.656429314e-11 -2.306608763e-11 -2.598842638e-11)
5(-3.716578607e-10 -5.369491686e-11 -3.182402881e-11 -3.234015606e-11 -3.663963282e-11)
5(-2.888983209e-10 -5.05426479e-11 -4.221954259e-11 -4.586068111e-11 -5.089722398e-11)
5(-2.072236687e-10 -5.831353344e-11 -6.047868225e-11 -6.438424736e-11 -6.805603237e-11)
5(-1.639316017e-10 -7.355699907e-11 -8.378184036e-11 -8.538825872e-11 -8.844018151e-11)
5(-1.447613938e-10 -9.74339111e-11 -1.102225352e-10 -1.072013027e-10 -1.011706538e-10)
5(-1.46789424e-10 -1.2589867e-10 -1.357277158e-10 -1.233951682e-10 -1.20147211e-10)
5(-1.663571168e-10 -1.555600792e-10 -1.574881948e-10 -1.307707931e-10 -1.151665273e-10)
5(-1.890680509e-10 -1.761861872e-10 -1.643405032e-10 -1.29017919e-10 -9.618382125e-11)
5(-2.072315881e-10 -1.833393617e-10 -1.544281468e-10 -1.15219096e-10 -6.802894198e-11)
5(-2.08925224e-10 -1.671286526e-10 -1.216740046e-10 -8.155459393e-11 -3.991536508e-11)
5(-1.88865032e-10 -1.353588889e-10 -8.775196076e-11 -4.786027728e-11 -1.919876141e-11)
5(-1.508316959e-10 -9.380700001e-11 -5.392031485e-11 -2.296954715e-11 -7.247604009e-12)
5(-1.030809551e-10 -5.623625544e-11 -2.923989443e-11 -8.663784063e-12 -2.107250134e-12)
5(-5.882480648e-11 -2.857290419e-11 -1.15602227e-11 -2.512875368e-12 -4.500668254e-13)
5(-2.735255711e-11 -1.088029574e-11 -3.373105235e-12 -5.425074425e-13 -6.951301458e-14)
5(-9.990682053e-12 -3.558263643e-12 -7.109319948e-13 -8.250604587e-14 -7.370017957e-15)
5(-2.753999074e-12 -7.315218822e-13 -1.043965708e-13 -8.588029934e-15 -5.458541094e-16)
5(-5.707226031e-13 -9.676572471e-14 -9.685582756e-15 -5.896654994e-16 -3.05107184e-17)
5(-6.828887753e-14 -8.287980988e-15 -5.692491542e-16 -2.726827178e-17 -1.150879037e-18)
5(-4.797032029e-15 -3.80163391e-16 -1.901737559e-17 -5.556055178e-19 -3.034334966e-20)
5(-1.635095206e-16 -3.683651313e-17 1.810377683e-19 3.924308921e-17 -2.762851896e-19)
5(-8.972277173e-17 -9.802134337e-17 7.255196681e-17 7.051838677e-15 -6.619077539e-17)
5(-6.095558298e-15 5.059664834e-13 1.049820893e-14 1.000425405e-12 -1.436079584e-14)
5(2.283051126e-13 -3.057832307e-11 1.371652167e-12 -4.456331723e-11 -2.513906031e-12)
5(-1.159276035e-11 -1.424978413e-07 1.238409714e-12 -1.084686701e-08 2.809291049e-12)
5(-2.677564448e-30 1.763986921e-11 4.401028377e-14 6.45788935e-12 1.021973984e-33)
)


60
(
5(-2.534958884e-08 -9.882095597e-09 -8.826117507e-09 -4.072396283e-09 -2.177466022e-09)
5(-3.67847864e-08 -1.324302456e-08 -1.01284182e-08 -3.677466326e-09 -2.215914071e-09)
5(-3.896385275e-08 -1.482052501e-08 -9.692006557e-09 -3.455944521e-09 -2.016150583e-09)
5(-4.063799065e-08 -1.580585755e-08 -9.765773973e-09 -3.465932557e-09 -1.937992435e-09)
5(-4.386237138e-08 -1.672920107e-08 -1.00796324e-08 -3.57298486e-09 -1.920683921e-09)
5(-4.722754775e-08 -1.770076622e-08 -1.033486263e-08 -3.696797835e-09 -1.927590737e-09)
5(-4.915160612e-08 -1.808490196e-08 -1.040699018e-08 -3.688268768e-09 -1.909555135e-09)
5(-4.985541124e-08 -1.812010407e-08 -1.018571895e-08 -3.571929872e-09 -1.847992366e-09)
5(-4.974311963e-08 -1.77924327e-08 -9.78096674e-09 -3.401270557e-09 -1.753002761e-09)
5(-4.873181353e-08 -1.725714637e-08 -9.297762932e-09 -3.206019533e-09 -1.640641523e-09)
5(-4.769841841e-08 -1.667151578e-08 -8.775575053e-09 -2.991734596e-09 -1.512630635e-09)
5(-4.670719849e-08 -1.59822962e-08 -8.178257023e-09 -2.768261416e-09 -1.379477709e-09)
5(-4.509448732e-08 -1.507955361e-08 -7.526552743e-09 -2.526211364e-09 -1.242094812e-09)
5(-4.28962001e-08 -1.411033253e-08 -6.84341412e-09 -2.263960699e-09 -1.102425826e-09)
5(-4.016301596e-08 -1.304932301e-08 -6.14009707e-09 -2.003507689e-09 -9.610262392e-10)
5(-3.785739325e-08 -1.199821163e-08 -5.429853927e-09 -1.751268883e-09 -8.25314122e-10)
5(-3.547563293e-08 -1.081438315e-08 -4.747143827e-09 -1.503425494e-09 -6.966976952e-10)
5(-3.242746345e-08 -9.705088006e-09 -4.093465903e-09 -1.274765943e-09 -5.79510272e-10)
5(-2.996030909e-08 -8.624497616e-09 -3.484660171e-09 -1.062311345e-09 -4.762096033e-10)
5(-2.701991291e-08 -7.561902462e-09 -2.919524214e-09 -8.721751028e-10 -3.839899942e-10)
5(-2.454494191e-08 -6.624203189e-09 -2.406261214e-09 -7.05662221e-10 -3.050961336e-10)
5(-2.200598149e-08 -5.614484753e-09 -1.953896309e-09 -5.598010837e-10 -2.36800698e-10)
5(-1.954359871e-08 -4.776460847e-09 -1.55928367e-09 -4.347116638e-10 -1.801925062e-10)
5(-1.686045015e-08 -3.974542567e-09 -1.219188938e-09 -3.311845175e-10 -1.347688144e-10)
5(-1.464774377e-08 -3.30399513e-09 -9.369376552e-10 -2.470237717e-10 -9.852829074e-11)
5(-1.263181221e-08 -2.674498801e-09 -7.039599686e-10 -1.804077601e-10 -7.057210986e-11)
5(-1.06812899e-08 -2.156753853e-09 -5.200061439e-10 -1.283342329e-10 -4.985228572e-11)
5(-9.162464117e-09 -1.735303923e-09 -3.754915452e-10 -8.950080135e-11 -3.437156617e-11)
5(-7.575596747e-09 -1.343282811e-09 -2.665218919e-10 -6.096605623e-11 -2.371346383e-11)
5(-6.203151278e-09 -1.050030126e-09 -1.852811967e-10 -4.025202671e-11 -1.608479444e-11)
5(-5.064508894e-09 -8.026826412e-10 -1.254188329e-10 -2.589607953e-11 -1.133019004e-11)
5(-4.057655856e-09 -6.08226438e-10 -8.402612264e-11 -1.630616138e-11 -8.601619959e-12)
5(-3.169408987e-09 -4.507574275e-10 -5.533335318e-11 -1.046174683e-11 -7.99878228e-12)
5(-2.470151358e-09 -3.288739658e-10 -3.559956769e-11 -7.710856762e-12 -9.605956687e-12)
5(-1.830129124e-09 -2.34443314e-10 -2.369630599e-11 -8.382804122e-12 -1.446902578e-11)
5(-1.359986149e-09 -1.704454581e-10 -1.85117934e-11 -1.30838092e-11 -2.30240024e-11)
5(-9.772337305e-10 -1.146897019e-10 -2.004226559e-11 -2.275455648e-11 -3.617062131e-11)
5(-6.562132431e-10 -8.10372699e-11 -2.840917835e-11 -3.795920653e-11 -5.385391688e-11)
5(-4.40328423e-10 -6.334896309e-11 -4.38662719e-11 -5.796880848e-11 -7.427376044e-11)
5(-2.835918115e-10 -6.025958915e-11 -6.520386086e-11 -8.058738628e-11 -9.385402047e-11)
5(-1.807206271e-10 -6.988433798e-11 -8.933728519e-11 -1.012119002e-10 -1.074311598e-10)
5(-1.330507442e-10 -8.430760898e-11 -1.099811128e-10 -1.141137462e-10 -1.09372421e-10)
5(-1.089886735e-10 -9.98989574e-11 -1.210291247e-10 -1.143002525e-10 -9.681745308e-11)
5(-1.019129665e-10 -1.085516793e-10 -1.180182166e-10 -9.999033521e-11 -7.33932312e-11)
5(-9.76327182e-11 -1.042472397e-10 -1.0075851e-10 -7.480943277e-11 -4.675739167e-11)
5(-8.781492636e-11 -8.704756062e-11 -7.388488596e-11 -4.687512086e-11 -2.452256781e-11)
5(-6.953479111e-11 -6.232260563e-11 -4.571071915e-11 -2.39586307e-11 -1.025945347e-11)
5(-4.715597173e-11 -3.753805285e-11 -2.304434204e-11 -9.71489795e-12 -3.350259536e-12)
5(-2.605004706e-11 -1.83398417e-11 -9.126539153e-12 -3.036745696e-12 -8.256560797e-13)
5(-1.168659319e-11 -7.05414616e-12 -2.707755733e-12 -7.068399339e-13 -1.448248373e-13)
5(-3.962681746e-12 -2.032546778e-12 -5.850585565e-13 -1.162404993e-13 -1.796869949e-14)
5(-9.589138526e-13 -4.004670659e-13 -8.593772123e-14 -1.283520811e-14 -1.410453173e-15)
5(-1.489508674e-13 -5.060783955e-14 -7.894024992e-15 -9.103717857e-16 -8.007708835e-17)
5(-1.371827806e-14 -3.682974086e-15 -4.253262494e-16 -4.997146952e-17 -2.643138996e-18)
5(-6.422882668e-16 -2.056327996e-15 1.230991049e-18 -1.694255959e-15 1.461273456e-17)
5(-4.381773109e-15 -3.567859561e-13 2.384344974e-15 -3.052167369e-13 2.780045018e-15)
5(-9.681665819e-13 -7.916770562e-11 4.447420988e-13 -6.013141738e-11 5.667785717e-13)
5(-2.729015546e-10 -2.340330285e-08 5.744540687e-11 -1.299262184e-08 1.294171418e-10)
5(-1.352972887e-07 2.101582954e-07 3.144487473e-08 -2.245184048e-08 3.687717473e-08)
5(8.343150681e-28 0.003052132054 3.541106485e-13 0.0005600705445 -1.464703872e-33)
)


60
(
5(-4.536208591e-08 -1.558724284e-08 -1.402410251e-08 -6.467449353e-09 -3.581942154e-09)
5(-7.312397272e-08 -2.340894915e-08 -1.671773335e-08 -6.034707595e-09 -3.615792384e-09)
5(-8.450415885e-08 -2.748826476e-08 -1.718064915e-08 -5.875629616e-09 -3.402779165e-09)
5(-9.026295923e-08 -2.979164428e-08 -1.764993453e-08 -6.006905151e-09 -3.331187693e-09)
5(-9.688844271e-08 -3.203791713e-08 -1.818614218e-08 -6.274012353e-09 -3.332038242e-09)
5(-1.043134322e-07 -3.445363159e-08 -1.871856974e-08 -6.511298264e-09 -3.374562506e-09)
5(-1.09609682e-07 -3.588564045e-08 -1.886012357e-08 -6.534315472e-09 -3.376528187e-09)
5(-1.110701253e-07 -3.606957632e-08 -1.859929031e-08 -6.386162364e-09 -3.297363008e-09)
5(-1.108066779e-07 -3.599455938e-08 -1.800789083e-08 -6.118851657e-09 -3.149664787e-09)
5(-1.10640564e-07 -3.554316005e-08 -1.717908832e-08 -5.808206692e-09 -2.962627317e-09)
5(-1.080850572e-07 -3.458886869e-08 -1.624984645e-08 -5.4639422e-09 -2.761103155e-09)
5(-1.05656803e-07 -3.372457549e-08 -1.523188483e-08 -5.098062037e-09 -2.552354346e-09)
5(-1.026163653e-07 -3.248030142e-08 -1.413456805e-08 -4.688195988e-09 -2.320524629e-09)
5(-1.002202639e-07 -3.079522193e-08 -1.295928098e-08 -4.240485528e-09 -2.076947052e-09)
5(-9.36818985e-08 -2.885806167e-08 -1.173541087e-08 -3.780343839e-09 -1.841805704e-09)
5(-8.766334606e-08 -2.706337864e-08 -1.049498396e-08 -3.330371285e-09 -1.602892062e-09)
5(-8.298483556e-08 -2.53299965e-08 -9.248609027e-09 -2.892211587e-09 -1.372114621e-09)
5(-7.68639738e-08 -2.316965645e-08 -8.069423971e-09 -2.476063783e-09 -1.16087908e-09)
5(-7.109604802e-08 -2.132712961e-08 -6.945944244e-09 -2.092986427e-09 -9.670909225e-10)
5(-6.526411039e-08 -1.928510557e-08 -5.929568914e-09 -1.742467824e-09 -7.952839212e-10)
5(-5.923331844e-08 -1.739761206e-08 -4.989137198e-09 -1.426609482e-09 -6.408581045e-10)
5(-5.315349086e-08 -1.563476468e-08 -4.132930076e-09 -1.153954951e-09 -5.088850641e-10)
5(-4.810616325e-08 -1.389788631e-08 -3.389212857e-09 -9.146351325e-10 -3.953669425e-10)
5(-4.243938557e-08 -1.205605089e-08 -2.745556597e-09 -7.116813655e-10 -3.020184678e-10)
5(-3.664701421e-08 -1.049144721e-08 -2.193630228e-09 -5.434529971e-10 -2.270663163e-10)
5(-3.17948117e-08 -9.113047455e-09 -1.727654096e-09 -4.068693988e-10 -1.667947297e-10)
5(-2.690561516e-08 -7.804987358e-09 -1.349545328e-09 -2.988125341e-10 -1.195158992e-10)
5(-2.302061739e-08 -6.695666507e-09 -1.039218336e-09 -2.148915906e-10 -8.409420622e-11)
5(-1.908265887e-08 -5.584363653e-09 -7.926626417e-10 -1.513176313e-10 -5.735883243e-11)
5(-1.562928449e-08 -4.617032129e-09 -5.991222433e-10 -1.035451375e-10 -3.810068496e-11)
5(-1.254707554e-08 -3.794449589e-09 -4.48279918e-10 -6.860389976e-11 -2.378164005e-11)
5(-9.890377643e-09 -3.059510625e-09 -3.335384323e-10 -4.373170046e-11 -1.386359075e-11)
5(-7.529651174e-09 -2.407320681e-09 -2.442150616e-10 -2.53244171e-11 -6.781323102e-12)
5(-5.685672905e-09 -1.884389034e-09 -1.740258649e-10 -1.23744707e-11 -2.602450772e-12)
5(-4.126984685e-09 -1.40373595e-09 -1.220558534e-10 -3.870692616e-12 -1.381405221e-12)
5(-2.933623031e-09 -1.033968487e-09 -8.115766609e-11 -4.598687237e-14 -4.395252328e-12)
5(-1.963458828e-09 -7.37891175e-10 -5.384872066e-11 -1.318577127e-12 -1.200325974e-11)
5(-1.217416355e-09 -4.940151553e-10 -3.75258281e-11 -8.529931265e-12 -2.563337098e-11)
5(-7.158540643e-10 -3.282686116e-10 -3.164705936e-11 -2.25778853e-11 -4.548668845e-11)
5(-3.933772751e-10 -2.063879116e-10 -3.627270977e-11 -4.265958761e-11 -6.939733646e-11)
5(-1.805030822e-10 -1.241751534e-10 -4.937299051e-11 -6.657764878e-11 -9.307767983e-11)
5(-7.223692045e-11 -8.70080377e-11 -6.760411422e-11 -8.90819919e-11 -1.096293537e-10)
5(-2.85487941e-11 -7.006154277e-11 -8.485567174e-11 -1.043223445e-10 -1.131220206e-10)
5(-1.576672238e-11 -6.733500333e-11 -9.498686584e-11 -1.064496246e-10 -1.01002765e-10)
5(-1.911930761e-11 -6.737724236e-11 -9.369107833e-11 -9.358316812e-11 -7.739312544e-11)
5(-2.283328792e-11 -6.293972548e-11 -8.028411405e-11 -6.98791793e-11 -4.991163057e-11)
5(-2.096242822e-11 -5.184562899e-11 -5.863738273e-11 -4.340181668e-11 -2.645888411e-11)
5(-1.511209753e-11 -3.671133635e-11 -3.55397754e-11 -2.203863086e-11 -1.122984992e-11)
5(-7.356234468e-12 -2.172832552e-11 -1.740512477e-11 -8.819277196e-12 -3.664351434e-12)
5(-1.4454416e-12 -1.030626142e-11 -6.6192483e-12 -2.681586937e-12 -8.903250846e-13)
5(1.194822921e-12 -3.79460171e-12 -1.852830963e-12 -5.938914958e-13 -1.583811147e-13)
5(1.488969516e-12 -1.008553292e-12 -3.634562001e-13 -9.365683973e-14 -1.91350467e-14)
5(8.855540639e-13 -1.671031291e-13 -4.777988634e-14 -9.295107652e-15 -1.371944894e-15)
5(2.777309411e-13 -1.572885673e-14 -3.744909501e-15 -4.718672142e-16 -7.21414308e-17)
5(4.084797455e-14 7.095868601e-15 -2.858668173e-16 1.242741333e-14 -1.723897157e-16)
5(3.45548244e-14 1.401522903e-12 -2.026288853e-14 1.889336701e-12 -2.39190445e-14)
5(5.952153482e-12 3.516282194e-10 -4.103003666e-12 3.602307723e-10 -4.060984968e-12)
5(1.733072731e-09 1.543136911e-07 -1.192243426e-09 1.012815271e-07 -8.801405551e-10)
5(1.097618993e-06 0.0007661617747 -9.825369386e-08 0.0002548693353 -3.348819137e-07)
5(0.006494840167 0.002502888228 -0.0006123262486 0.0003619262466 -0.001145596073)
)


60
(
5(-8.192253805e-08 -2.749716907e-08 -2.224728333e-08 -1.021755809e-08 -5.659777934e-09)
5(-1.425745257e-07 -4.412877902e-08 -2.698878485e-08 -9.864191692e-09 -5.764776901e-09)
5(-1.73299756e-07 -5.330525706e-08 -2.885207944e-08 -9.876097217e-09 -5.573273073e-09)
5(-1.891852789e-07 -5.867964161e-08 -3.011636177e-08 -1.022142376e-08 -5.52976885e-09)
5(-2.060385825e-07 -6.419957019e-08 -3.121956451e-08 -1.071097586e-08 -5.57620879e-09)
5(-2.237247792e-07 -7.005893967e-08 -3.215962266e-08 -1.1103481e-08 -5.663444785e-09)
5(-2.352113478e-07 -7.401443344e-08 -3.256173087e-08 -1.118821643e-08 -5.690887338e-09)
5(-2.42485761e-07 -7.5702371e-08 -3.229429982e-08 -1.09752082e-08 -5.579500943e-09)
5(-2.4394203e-07 -7.604197791e-08 -3.144127308e-08 -1.055553584e-08 -5.359836562e-09)
5(-2.447696183e-07 -7.630964086e-08 -3.030824992e-08 -1.005939226e-08 -5.076664111e-09)
5(-2.422368932e-07 -7.570313485e-08 -2.882986201e-08 -9.513032051e-09 -4.772105709e-09)
5(-2.38221826e-07 -7.492942699e-08 -2.728070852e-08 -8.912183796e-09 -4.428247945e-09)
5(-2.314297171e-07 -7.351757033e-08 -2.553454706e-08 -8.227248516e-09 -4.06524875e-09)
5(-2.269639158e-07 -7.272478564e-08 -2.359140221e-08 -7.493947465e-09 -3.679223687e-09)
5(-2.1923342e-07 -6.923389761e-08 -2.15672666e-08 -6.742597294e-09 -3.280711295e-09)
5(-2.057022283e-07 -6.595505484e-08 -1.954824856e-08 -6.000713278e-09 -2.887121781e-09)
5(-1.94170297e-07 -6.322588482e-08 -1.759946714e-08 -5.243124554e-09 -2.509008222e-09)
5(-1.828965612e-07 -6.006643352e-08 -1.562838234e-08 -4.540118343e-09 -2.151409483e-09)
5(-1.690335821e-07 -5.655811216e-08 -1.375414938e-08 -3.886944714e-09 -1.815771262e-09)
5(-1.556460452e-07 -5.314892125e-08 -1.205463553e-08 -3.281003631e-09 -1.513826512e-09)
5(-1.424833412e-07 -4.967975186e-08 -1.045321278e-08 -2.729427525e-09 -1.241273387e-09)
5(-1.272388822e-07 -4.56776985e-08 -8.973931129e-09 -2.243358036e-09 -1.00156203e-09)
5(-1.131193243e-07 -4.229744389e-08 -7.676050641e-09 -1.822025618e-09 -7.985861262e-10)
5(-1.001572306e-07 -3.898684439e-08 -6.528466479e-09 -1.459238438e-09 -6.256189783e-10)
5(-8.564209543e-08 -3.500238279e-08 -5.505106874e-09 -1.149634138e-09 -4.785392259e-10)
5(-7.3140905e-08 -3.178791866e-08 -4.646297709e-09 -8.946259412e-10 -3.60997907e-10)
5(-5.996133386e-08 -2.790877537e-08 -3.836910672e-09 -6.896232577e-10 -2.67896856e-10)
5(-4.827054137e-08 -2.464417722e-08 -3.194654962e-09 -5.255290977e-10 -1.944547319e-10)
5(-3.74920419e-08 -2.140216635e-08 -2.661948322e-09 -3.950063047e-10 -1.379179934e-10)
5(-2.87607617e-08 -1.886438951e-08 -2.182236034e-09 -2.934800905e-10 -9.508104194e-11)
5(-2.126084088e-08 -1.588172922e-08 -1.760609351e-09 -2.170669235e-10 -6.308935694e-11)
5(-1.368451306e-08 -1.292432345e-08 -1.430834378e-09 -1.579192249e-10 -3.942454006e-11)
5(-7.693787033e-09 -1.049030083e-08 -1.135052086e-09 -1.110179701e-10 -2.20557453e-11)
5(-3.477996879e-09 -8.302546212e-09 -8.967995832e-10 -7.392272655e-11 -9.158345706e-12)
5(-2.13509104e-10 -6.571509504e-09 -6.83781733e-10 -4.611089148e-11 -3.476969033e-13)
5(1.437010821e-09 -4.943018155e-09 -5.028961112e-10 -2.492865367e-11 4.272056349e-12)
5(3.235971759e-09 -3.496223716e-09 -3.691884398e-10 -1.062809238e-11 3.703976054e-12)
5(3.740578034e-09 -2.424597708e-09 -2.565178129e-10 -3.791256227e-12 -3.211078465e-12)
5(3.883475544e-09 -1.559371893e-09 -1.628758442e-10 -5.128862998e-12 -1.725463487e-11)
5(3.474725592e-09 -9.366042241e-10 -1.05304855e-10 -1.493940146e-11 -3.900876191e-11)
5(2.781894632e-09 -5.339939342e-10 -7.11655805e-11 -3.252170058e-11 -6.504756632e-11)
5(2.020740735e-09 -2.661253341e-10 -5.802767678e-11 -5.47416437e-11 -9.058467563e-11)
5(1.402868094e-09 -1.207538252e-10 -5.830633517e-11 -7.671379352e-11 -1.086301037e-10)
5(8.26353281e-10 -5.854481446e-11 -6.422296555e-11 -9.184044932e-11 -1.119011802e-10)
5(4.411226293e-10 -2.796022946e-11 -6.875692298e-11 -9.37823057e-11 -9.928885838e-11)
5(2.221211566e-10 -1.962948743e-11 -6.70335302e-11 -8.173196919e-11 -7.538387484e-11)
5(1.190232593e-10 -1.715558977e-11 -5.680057815e-11 -6.012051203e-11 -4.830323733e-11)
5(5.985518493e-11 -1.369653007e-11 -4.095585009e-11 -3.655836372e-11 -2.533286832e-11)
5(3.977339418e-11 -9.272522794e-12 -2.426070478e-11 -1.792851672e-11 -1.056580981e-11)
5(3.289366477e-11 -4.881347878e-12 -1.142414079e-11 -6.892105389e-12 -3.404754451e-12)
5(2.374696475e-11 -2.015282048e-12 -4.139810744e-12 -1.998140534e-12 -7.939572104e-13)
5(1.555849119e-11 -3.382872123e-13 -1.070244453e-12 -4.098404785e-13 -1.325975739e-13)
5(8.111664101e-12 -7.779502989e-15 -1.933851533e-13 -5.782793147e-14 -1.509561253e-14)
5(3.685614274e-12 5.016356303e-14 -2.317655078e-14 -4.757692855e-15 -9.217911326e-16)
5(1.023609953e-12 3.242293906e-14 -1.525109333e-15 1.124489854e-14 -2.488653984e-16)
5(3.267935762e-13 1.823561589e-12 -7.167384679e-15 1.406930628e-12 -2.394715381e-14)
5(6.871762897e-12 4.419865285e-10 -1.486619564e-12 2.132521912e-10 -3.210314041e-12)
5(1.792523178e-09 1.666660054e-07 -1.887907662e-10 4.36417903e-08 -5.357450396e-10)
5(9.135909002e-07 -1.205812653e-06 -1.541023804e-07 -3.51544786e-07 -1.513785318e-07)
5(3.047445487e-16 -0.004845688322 -2.577219448e-12 -0.001564225531 9.63950538e-06)
)


60
(
5(-1.464907899e-07 -5.030826349e-08 -3.461265684e-08 -1.570898672e-08 -8.519172969e-09)
5(-2.771600818e-07 -8.488984257e-08 -4.283498828e-08 -1.566971734e-08 -8.789151714e-09)
5(-3.515790787e-07 -1.058676529e-07 -4.72158364e-08 -1.60292509e-08 -8.688243677e-09)
5(-3.953743491e-07 -1.193726855e-07 -4.99509706e-08 -1.673663516e-08 -8.712571796e-09)
5(-4.390920072e-07 -1.330201986e-07 -5.219039691e-08 -1.755976655e-08 -8.831359761e-09)
5(-4.889468407e-07 -1.480775089e-07 -5.427806858e-08 -1.81990074e-08 -8.99771904e-09)
5(-5.208058249e-07 -1.587988091e-07 -5.542875085e-08 -1.839192483e-08 -9.059503034e-09)
5(-5.472283232e-07 -1.658646815e-07 -5.545551123e-08 -1.809664727e-08 -8.927353658e-09)
5(-5.584649204e-07 -1.700034952e-07 -5.461102586e-08 -1.750836522e-08 -8.623347177e-09)
5(-5.732372942e-07 -1.73646081e-07 -5.307887297e-08 -1.67635689e-08 -8.227111367e-09)
5(-5.784234651e-07 -1.761523678e-07 -5.129489226e-08 -1.595047054e-08 -7.772000532e-09)
5(-5.816624797e-07 -1.777281919e-07 -4.914834833e-08 -1.502066495e-08 -7.280058126e-09)
5(-5.798675238e-07 -1.789779214e-07 -4.672531124e-08 -1.399571328e-08 -6.733597196e-09)
5(-5.714891107e-07 -1.7703847e-07 -4.40776101e-08 -1.285857091e-08 -6.148595424e-09)
5(-5.599455865e-07 -1.759470303e-07 -4.114245861e-08 -1.167154284e-08 -5.539398038e-09)
5(-5.45256319e-07 -1.729856411e-07 -3.818278593e-08 -1.048867919e-08 -4.931738184e-09)
5(-5.260650465e-07 -1.691152878e-07 -3.506365975e-08 -9.324590957e-09 -4.329698758e-09)
5(-5.053404177e-07 -1.658850321e-07 -3.215271185e-08 -8.219905623e-09 -3.754263426e-09)
5(-4.810541167e-07 -1.594090095e-07 -2.928952882e-08 -7.135683425e-09 -3.217308762e-09)
5(-4.518276553e-07 -1.544644765e-07 -2.657022628e-08 -6.154573573e-09 -2.7182156e-09)
5(-4.263254733e-07 -1.48392942e-07 -2.399424466e-08 -5.253480011e-09 -2.277850365e-09)
5(-3.89213962e-07 -1.40095005e-07 -2.15408238e-08 -4.445620997e-09 -1.883006593e-09)
5(-3.565526094e-07 -1.343583926e-07 -1.934013276e-08 -3.747911256e-09 -1.529308278e-09)
5(-3.278040656e-07 -1.264472091e-07 -1.734872694e-08 -3.124840662e-09 -1.226204677e-09)
5(-2.887625567e-07 -1.16947195e-07 -1.544405608e-08 -2.588978975e-09 -9.728284131e-10)
5(-2.508443351e-07 -1.086357457e-07 -1.367341399e-08 -2.14716847e-09 -7.599357535e-10)
5(-2.191664884e-07 -1.008295179e-07 -1.212595252e-08 -1.76862779e-09 -5.846187336e-10)
5(-1.898952474e-07 -9.124729679e-08 -1.074256618e-08 -1.445504804e-09 -4.470197915e-10)
5(-1.515714861e-07 -8.003500281e-08 -9.358328266e-09 -1.177660634e-09 -3.384438722e-10)
5(-1.200109624e-07 -7.097487975e-08 -8.011933517e-09 -9.65851646e-10 -2.501009756e-10)
5(-8.958379378e-08 -6.119308123e-08 -6.926553298e-09 -7.889845716e-10 -1.837565626e-10)
5(-6.794848071e-08 -5.256567586e-08 -5.968585398e-09 -6.347818434e-10 -1.324681793e-10)
5(-4.689488587e-08 -4.352936578e-08 -4.911410866e-09 -5.049349069e-10 -9.168941167e-11)
5(-2.434256795e-08 -3.443423953e-08 -3.988089356e-09 -3.965402222e-10 -5.959082297e-11)