/*--------------------------------*- C++ -*----------------------------------*\
| =========                 |                                                 |
| \\      /  F ield         | OpenFOAM: The Open Source CFD Toolbox           |
|  \\    /   O peration     | Version:  2.3.1                                 |
|   \\  /    A nd           | Web:      www.OpenFOAM.org                      |
|    \\/     M anipulation  |                                                 |
\*---------------------------------------------------------------------------*/
FoamFile
{
    version     2.0;
    format      ascii;
    class       dictionary;
    location    "constant";
    object      PM63;
}
// * * * * * * * * * * * * * * * * * * * * * * * * * * * * * * * * * * * * * //

PM63_table
60
(

60
(
5(1.551414722e-09 9.527964208e-10 6.366795792e-10 -4.383337539e-10 -3.608673812e-11)
5(6.123914258e-09 -1.099740249e-09 -7.722895991e-10 -4.221710371e-10 5.430310558e-10)
5(-6.120139898e-10 -1.461259674e-09 -7.386924315e-10 -1.581996661e-10 -2.331032677e-10)
5(-2.038860254e-09 -1.49672116e-09 -7.109551207e-10 -4.619487969e-10 -2.044142355e-10)
5(-2.868555585e-09 -1.462330598e-09 -5.753721539e-10 -4.89589277e-10 -1.690898172e-10)
5(-3.015530004e-09 -1.22819314e-09 -6.585363355e-10 -4.248864845e-10 -2.307749522e-10)
5(-2.342317668e-09 -1.216041587e-09 -8.57703941e-10 -4.34459337e-10 -2.307829511e-10)
5(-2.434640948e-09 -1.289621682e-09 -7.942965978e-10 -3.902505966e-10 -1.850913436e-10)
5(-2.491254591e-09 -1.225767553e-09 -7.212056959e-10 -3.609665722e-10 -2.021503075e-10)
5(-2.283768e-09 -1.17387598e-09 -6.7405183e-10 -3.247598848e-10 -1.770963325e-10)
5(-2.270339582e-09 -1.082228656e-09 -5.908305686e-10 -2.959809759e-10 -1.5247587e-10)
5(-2.094120327e-09 -1.005543372e-09 -5.348024056e-10 -2.657288375e-10 -1.322208486e-10)
5(-2.060082853e-09 -9.261319877e-10 -4.989647223e-10 -2.313781589e-10 -1.141712115e-10)
5(-1.90879866e-09 -8.313478389e-10 -4.390396891e-10 -1.96896426e-10 -9.536838393e-11)
5(-1.757156513e-09 -7.497993925e-10 -3.888302443e-10 -1.69558861e-10 -7.899691001e-11)
5(-1.621079582e-09 -6.677669554e-10 -3.385637208e-10 -1.409857196e-10 -6.483105766e-11)
5(-1.480574742e-09 -5.851028698e-10 -2.874960243e-10 -1.171319915e-10 -5.196674568e-11)
5(-1.337375085e-09 -5.075486706e-10 -2.429342026e-10 -9.439416645e-11 -4.038133752e-11)
5(-1.197554483e-09 -4.403263616e-10 -2.007273823e-10 -7.527947431e-11 -3.074899762e-11)
5(-1.061219531e-09 -3.699092497e-10 -1.627001994e-10 -5.85946781e-11 -2.323427668e-11)
5(-9.114327986e-10 -3.019292045e-10 -1.293429463e-10 -4.384466309e-11 -1.722690439e-11)
5(-7.889163562e-10 -2.473898218e-10 -1.004713501e-10 -3.301464097e-11 -1.267345048e-11)
5(-6.692916284e-10 -1.990216757e-10 -7.762081251e-11 -2.492529893e-11 -9.214951772e-12)
5(-5.491251223e-10 -1.553632024e-10 -5.829670342e-11 -1.810754285e-11 -6.664379943e-12)
5(-4.476962021e-10 -1.187499267e-10 -4.364876775e-11 -1.329388049e-11 -4.947165898e-12)
5(-3.540770685e-10 -8.927922565e-11 -3.165714865e-11 -9.765175176e-12 -3.879310394e-12)
5(-2.735760891e-10 -6.60545347e-11 -2.298803119e-11 -7.518120055e-12 -3.392023591e-12)
5(-2.127058831e-10 -4.85617056e-11 -1.706641193e-11 -6.345177853e-12 -3.398320034e-12)
5(-1.60618145e-10 -3.525391933e-11 -1.328665984e-11 -6.122091465e-12 -3.858287298e-12)
5(-1.194556951e-10 -2.658459046e-11 -1.157789958e-11 -6.803147697e-12 -4.813593213e-12)
5(-8.80734373e-11 -2.147114346e-11 -1.156354518e-11 -8.341304507e-12 -6.255068405e-12)
5(-6.565526153e-11 -1.951198839e-11 -1.316082241e-11 -1.073232468e-11 -8.349533977e-12)
5(-5.143487238e-11 -2.032763597e-11 -1.635358832e-11 -1.447319593e-11 -1.134709708e-11)
5(-4.305705214e-11 -2.369339657e-11 -2.1142971e-11 -1.897995086e-11 -1.437109001e-11)
5(-4.044262685e-11 -2.946827951e-11 -2.758794709e-11 -2.465589637e-11 -1.849441664e-11)
5(-4.235297692e-11 -3.757611827e-11 -3.556094853e-11 -3.077369768e-11 -2.231553347e-11)
5(-4.923348441e-11 -4.83236476e-11 -4.520843706e-11 -3.695901278e-11 -2.426143864e-11)
5(-5.896476636e-11 -5.900668291e-11 -5.395030126e-11 -3.994689532e-11 -2.459964167e-11)
5(-7.042440468e-11 -6.998713947e-11 -5.98741884e-11 -4.31472237e-11 -2.107884114e-11)
5(-8.198673831e-11 -7.814615391e-11 -6.179701701e-11 -3.357825547e-11 4.901150262e-13)
5(-9.186238274e-11 -8.111772691e-11 -5.881984956e-11 -2.489271928e-11 -1.016932326e-11)
5(-9.466466987e-11 -7.584614893e-11 -4.8019225e-11 -1.044481092e-11 -8.49325381e-12)
5(-8.824965454e-11 -6.439925306e-11 -3.338642208e-11 -1.035297146e-11 -6.196045108e-12)
5(-7.409748015e-11 -4.805017191e-11 -2.093614825e-11 -8.081461153e-12 -2.837406813e-12)
5(-5.484356728e-11 -3.1470037e-11 -1.090249235e-11 -3.823530827e-12 -1.051718864e-12)
5(-3.601549449e-11 -1.711858943e-11 -3.347957392e-12 -1.49402849e-12 -2.921715058e-13)
5(-1.958181831e-11 -6.681973053e-12 -1.315268807e-12 -5.051308352e-13 -6.405454717e-14)
5(-8.643198486e-12 -2.587585112e-12 -6.606228598e-13 -1.182849079e-13 -8.848272989e-15)
5(-3.307844014e-12 -5.409045073e-13 -1.586673545e-13 -1.832246532e-14 -9.310818777e-16)
5(-2.63239904e-13 -1.229532027e-13 -2.984102068e-14 -1.887144494e-15 -7.631751228e-17)
5(-3.766758409e-14 -2.826369988e-14 -3.091276665e-15 -1.414101979e-16 -4.420524333e-18)
5(-2.505397315e-14 -3.284813149e-15 -2.134675455e-16 -7.525923109e-18 -2.066976807e-19)
5(-3.128900141e-15 -2.129329838e-16 -1.041533543e-17 -3.111216639e-19 -7.255201378e-21)
5(-1.410849889e-16 -7.000485123e-18 -2.878491594e-19 -1.172976652e-20 -2.02275773e-22)
5(-3.258507327e-18 6.701506518e-19 -5.38674953e-21 -3.504378118e-19 -3.729348829e-24)
5(-2.313251965e-20 1.030301553e-16 -3.504230113e-20 -9.541131022e-17 -4.59157462e-26)
5(-5.848289149e-23 9.422912848e-15 3.471042697e-18 -2.291594385e-14 -1.82232704e-28)
5(-2.019630613e-26 -3.48225987e-13 1.882373864e-17 -3.400732535e-12 -2.866910939e-31)
5(3.334685004e-30 -1.988078776e-12 5.832829261e-15 1.075857907e-11 -1.25663271e-33)
5(6.164251177e-36 3.444870394e-35 1.217980069e-35 3.081195313e-34 8.819588299e-34)
)


60
(
5(-6.834302087e-09 -3.465581045e-09 -1.886776509e-09 -1.153530362e-09 -4.126206726e-10)
5(-6.942789378e-09 -3.479985181e-09 -1.97726895e-09 -9.802551458e-10 -4.469587191e-10)
5(-6.478768505e-09 -3.365563622e-09 -1.728912532e-09 -9.124928176e-10 -4.990549136e-10)
5(-6.066318771e-09 -3.408695684e-09 -1.663886162e-09 -9.314625213e-10 -3.702458638e-10)
5(-7.224791262e-09 -3.677887581e-09 -1.840280596e-09 -9.42284226e-10 -4.598580921e-10)
5(-8.345132264e-09 -3.929203117e-09 -2.101340853e-09 -9.896233033e-10 -5.113681836e-10)
5(-8.55560278e-09 -4.022712734e-09 -2.101859994e-09 -1.01697141e-09 -4.602316864e-10)
5(-8.830262359e-09 -3.968129969e-09 -1.994370248e-09 -9.535946536e-10 -4.805437454e-10)
5(-8.611119829e-09 -3.867617315e-09 -1.919380822e-09 -8.904068394e-10 -4.335270875e-10)
5(-8.477959972e-09 -3.737751326e-09 -1.795603503e-09 -8.414547847e-10 -3.986875312e-10)
5(-8.4624716e-09 -3.628192429e-09 -1.703245185e-09 -7.832232309e-10 -3.684907288e-10)
5(-8.336673118e-09 -3.45765198e-09 -1.626231301e-09 -7.214362408e-10 -3.40451155e-10)
5(-8.049090849e-09 -3.255432946e-09 -1.509020625e-09 -6.511563378e-10 -3.022639109e-10)
5(-7.680987025e-09 -3.022887007e-09 -1.374833811e-09 -5.875403067e-10 -2.668924354e-10)
5(-7.337756163e-09 -2.807448832e-09 -1.244687567e-09 -5.143174052e-10 -2.305827835e-10)
5(-6.945892986e-09 -2.557354183e-09 -1.106283587e-09 -4.458331668e-10 -1.962528748e-10)
5(-6.417765824e-09 -2.322716422e-09 -9.698072548e-10 -3.800662393e-10 -1.630444756e-10)
5(-5.962037425e-09 -2.070683111e-09 -8.39194583e-10 -3.182942009e-10 -1.340705493e-10)
5(-5.465801243e-09 -1.817008925e-09 -7.141502534e-10 -2.640795628e-10 -1.085777684e-10)
5(-4.920532132e-09 -1.570736056e-09 -5.971565699e-10 -2.137078722e-10 -8.637875494e-11)
5(-4.476740121e-09 -1.349262533e-09 -4.946116273e-10 -1.713518808e-10 -6.721093432e-11)
5(-3.884628789e-09 -1.135639521e-09 -3.989683329e-10 -1.36086786e-10 -5.169851191e-11)
5(-3.418611741e-09 -9.402404309e-10 -3.167402928e-10 -1.031744468e-10 -3.831711096e-11)
5(-2.91962978e-09 -7.557560559e-10 -2.45198468e-10 -7.728722904e-11 -2.810410405e-11)
5(-2.490720916e-09 -6.017061518e-10 -1.856113272e-10 -5.665900224e-11 -2.023045308e-11)
5(-2.059176753e-09 -4.697677228e-10 -1.370431349e-10 -4.037206752e-11 -1.443134573e-11)
5(-1.685264169e-09 -3.600479466e-10 -9.952000204e-11 -2.842846358e-11 -1.024535772e-11)
5(-1.394683058e-09 -2.695997223e-10 -7.003758685e-11 -1.978233885e-11 -7.495545958e-12)
5(-1.088248933e-09 -1.973673281e-10 -4.857773231e-11 -1.39003292e-11 -5.775989598e-12)
5(-8.589528842e-10 -1.412014877e-10 -3.303742782e-11 -1.009866447e-11 -4.98575884e-12)
5(-6.567592762e-10 -9.854730489e-11 -2.227376256e-11 -7.859014147e-12 -4.990000435e-12)
5(-4.983056332e-10 -6.868007344e-11 -1.565633962e-11 -7.240823234e-12 -5.937896281e-12)
5(-3.676604058e-10 -4.791654404e-11 -1.202193978e-11 -7.964159619e-12 -7.764965446e-12)
5(-2.659468284e-10 -3.350773928e-11 -1.0962113e-11 -1.041333e-11 -1.139785199e-11)
5(-1.878649947e-10 -2.557231918e-11 -1.278425201e-11 -1.494150578e-11 -1.657796424e-11)
5(-1.4007087e-10 -2.222101125e-11 -1.709781029e-11 -2.186653013e-11 -2.384005698e-11)
5(-9.538921052e-11 -2.492993701e-11 -2.609576611e-11 -3.196264784e-11 -3.294560826e-11)
5(-7.168743006e-11 -3.155548258e-11 -3.783876684e-11 -4.361892563e-11 -4.487705932e-11)
5(-6.12221709e-11 -4.320416224e-11 -5.161293612e-11 -5.633812512e-11 -5.158741961e-11)
5(-6.224415301e-11 -5.774986218e-11 -6.523111469e-11 -6.593612877e-11 -6.471526161e-11)
5(-7.315538563e-11 -7.396402101e-11 -7.838719247e-11 -7.088264954e-11 -6.203006753e-11)
5(-8.649054365e-11 -8.589164303e-11 -8.389924372e-11 -7.180821568e-11 -5.199378213e-11)
5(-9.717769197e-11 -9.172118095e-11 -8.063630529e-11 -6.613027035e-11 -3.717431318e-11)
5(-9.927085885e-11 -8.477959099e-11 -6.292178143e-11 -4.659769548e-11 -2.224404049e-11)
5(-9.014746679e-11 -7.00349739e-11 -4.608701468e-11 -2.743865476e-11 -1.098238285e-11)
5(-7.26088122e-11 -4.926959781e-11 -2.870128724e-11 -1.333391519e-11 -4.269377118e-12)
5(-4.99244129e-11 -3.025949545e-11 -1.663820778e-11 -5.137504142e-12 -1.280702715e-12)
5(-2.890587151e-11 -1.590505401e-11 -6.752119839e-12 -1.531986771e-12 -2.838341911e-13)
5(-1.335394228e-11 -6.099432628e-12 -2.02053143e-12 -3.410288347e-13 -4.566550473e-14)
5(-4.851695766e-12 -2.195651343e-12 -4.41030558e-13 -5.421135789e-14 -5.070747695e-15)
5(-1.358227104e-12 -4.651909388e-13 -6.802126233e-14 -5.887258643e-15 -4.018091679e-16)
5(-3.256560453e-13 -6.430285278e-14 -6.714578543e-15 -4.317856158e-16 -2.423389653e-17)
5(-4.153341848e-14 -5.95135007e-15 -4.266787673e-16 -2.197063485e-17 -1.033201671e-18)
5(-3.197461119e-15 -2.986680982e-16 -1.588664083e-17 -4.868162278e-19 -3.265798423e-20)
5(-1.198139882e-16 -4.468479951e-17 3.250945903e-19 5.013420753e-17 -3.906312527e-19)
5(-1.116659825e-16 -1.546532829e-15 1.071230005e-16 1.098202249e-14 -1.09758966e-16)
5(-9.684506568e-15 6.217907297e-13 1.849923351e-14 2.008694129e-12 -2.882831371e-14)
5(4.577026025e-13 5.908525039e-11 2.656411683e-12 3.83801281e-11 -6.375808667e-12)
5(-2.190999781e-11 -9.22912452e-08 4.517493752e-12 2.749831915e-08 9.471769672e-12)
5(-4.249153936e-30 2.828062232e-11 8.319901027e-14 1.189407441e-11 1.453151366e-33)
)


60
(
5(-1.294715006e-08 -6.579457977e-09 -3.088409594e-09 -1.829584634e-09 -6.943752292e-10)
5(-1.432483133e-08 -6.679100463e-09 -3.247197009e-09 -1.521896868e-09 -6.913032508e-10)
5(-1.489308762e-08 -6.677134652e-09 -3.21479008e-09 -1.422001415e-09 -6.792937379e-10)
5(-1.575640568e-08 -6.893624286e-09 -3.327880568e-09 -1.439255546e-09 -6.922741533e-10)
5(-1.700260912e-08 -7.23640929e-09 -3.458385677e-09 -1.497489512e-09 -7.088602914e-10)
5(-1.788067333e-08 -7.582120454e-09 -3.512043754e-09 -1.551582916e-09 -7.143458516e-10)
5(-1.823258162e-08 -7.695842993e-09 -3.508936443e-09 -1.54180335e-09 -7.016204897e-10)
5(-1.846778641e-08 -7.691012202e-09 -3.437343015e-09 -1.491683899e-09 -6.785037315e-10)
5(-1.854817996e-08 -7.558369584e-09 -3.337550964e-09 -1.427350505e-09 -6.500081136e-10)
5(-1.827604311e-08 -7.367978878e-09 -3.218545469e-09 -1.357332243e-09 -6.178617733e-10)
5(-1.810010089e-08 -7.170736759e-09 -3.080601435e-09 -1.277845416e-09 -5.770235866e-10)
5(-1.785944717e-08 -6.933660555e-09 -2.90422e-09 -1.192607208e-09 -5.323098422e-10)
5(-1.735320397e-08 -6.601623193e-09 -2.703344146e-09 -1.098260625e-09 -4.84522622e-10)
5(-1.667011026e-08 -6.239620584e-09 -2.489833122e-09 -9.93052822e-10 -4.344234898e-10)
5(-1.577405851e-08 -5.830141993e-09 -2.267051966e-09 -8.869259263e-10 -3.83593716e-10)
5(-1.504606477e-08 -5.426667997e-09 -2.034001152e-09 -7.831535468e-10 -3.33350971e-10)
5(-1.422801307e-08 -4.947972466e-09 -1.804725522e-09 -6.791525723e-10 -2.848044837e-10)
5(-1.3135411e-08 -4.496560316e-09 -1.578241485e-09 -5.817485447e-10 -2.396061695e-10)
5(-1.222153925e-08 -4.048657253e-09 -1.363852961e-09 -4.893440818e-10 -1.991612654e-10)
5(-1.109044492e-08 -3.594674677e-09 -1.158335645e-09 -4.053032788e-10 -1.624535722e-10)
5(-1.017201944e-08 -3.192428557e-09 -9.688329409e-10 -3.309331865e-10 -1.305392887e-10)
5(-9.123554725e-09 -2.737415765e-09 -7.973669675e-10 -2.645429412e-10 -1.022030212e-10)
5(-8.09277052e-09 -2.359732687e-09 -6.446648306e-10 -2.069603349e-10 -7.831044956e-11)
5(-6.965100015e-09 -1.98595873e-09 -5.097407095e-10 -1.586484986e-10 -5.891028145e-11)
5(-6.01800846e-09 -1.671186835e-09 -3.966521169e-10 -1.188113202e-10 -4.325415369e-11)
5(-5.108422476e-09 -1.366518523e-09 -3.009662012e-10 -8.690060775e-11 -3.083306946e-11)
5(-4.214356645e-09 -1.112825068e-09 -2.242244002e-10 -6.155122056e-11 -2.144826894e-11)
5(-3.529738288e-09 -9.058768046e-10 -1.624559219e-10 -4.239200667e-11 -1.424938253e-11)
5(-2.811644712e-09 -7.036280825e-10 -1.153882253e-10 -2.799609057e-11 -8.999984763e-12)
5(-2.190188302e-09 -5.529787456e-10 -7.956893378e-11 -1.722414595e-11 -4.98778386e-12)
5(-1.679673778e-09 -4.227422529e-10 -5.213677401e-11 -9.31620536e-12 -2.007704692e-12)
5(-1.246078015e-09 -3.187023759e-10 -3.245147238e-11 -3.447817131e-12 3.090618139e-13)
5(-8.831968186e-10 -2.325601477e-10 -1.830725763e-11 9.232501867e-13 1.987036316e-12)
5(-6.025283745e-10 -1.654214642e-10 -7.463991262e-12 4.171196611e-12 2.986300015e-12)
5(-3.763795162e-10 -1.11727298e-10 3.051334015e-13 6.129840577e-12 2.780449352e-12)
5(-2.337297926e-10 -7.714377901e-11 5.430587541e-12 6.424362065e-12 8.958008764e-13)
5(-1.235700158e-10 -4.276851323e-11 7.761942077e-12 4.277738303e-12 -3.239469791e-12)
5(-4.676434436e-11 -2.14343539e-11 6.666393627e-12 -8.322223635e-13 -1.002500827e-11)
5(-3.927020152e-12 -9.220258628e-12 1.840391305e-12 -8.916644966e-12 -1.89662616e-11)
5(1.40616489e-11 -5.45745078e-12 -6.712671221e-12 -1.936121525e-11 -2.851421799e-11)
5(1.12717429e-11 -9.716504965e-12 -1.803128262e-11 -2.987211403e-11 -3.652489345e-11)
5(3.798900455e-12 -1.714047126e-11 -2.918783515e-11 -3.771217904e-11 -4.010842794e-11)
5(-9.225363255e-12 -2.689525051e-11 -3.732003588e-11 -4.035929557e-11 -3.764390345e-11)
5(-2.119211455e-11 -3.448652545e-11 -3.980546292e-11 -3.686886196e-11 -2.99770093e-11)
5(-2.864149393e-11 -3.664310027e-11 -3.589613013e-11 -2.846978899e-11 -1.998443555e-11)
5(-2.929116037e-11 -3.261027784e-11 -2.724647196e-11 -1.838750229e-11 -1.096690004e-11)
5(-2.39739529e-11 -2.434921809e-11 -1.740097214e-11 -9.624287685e-12 -4.755800401e-12)
5(-1.580501188e-11 -1.508547218e-11 -8.995423773e-12 -3.99964512e-12 -1.624380225e-12)
5(-7.975926722e-12 -7.52499347e-12 -3.695657794e-12 -1.274340699e-12 -4.163109111e-13)
5(-2.939151207e-12 -2.953163466e-12 -1.162792281e-12 -3.080455974e-13 -7.526543361e-14)
5(-6.524242192e-13 -8.819943293e-13 -2.656487718e-13 -5.104381291e-14 -9.837601024e-15)
5(-3.046275909e-14 -1.846438677e-13 -4.104788533e-14 -5.880547811e-15 -8.25810857e-16)
5(1.738476807e-14 -2.423328258e-14 -4.050093824e-15 -4.30314159e-16 -4.871924675e-17)
5(4.865209901e-15 -1.79751604e-15 -2.458781405e-16 -2.788751709e-17 -1.649440185e-18)
5(5.374602654e-16 -2.196261522e-15 5.903415143e-18 -1.710417408e-15 2.062379565e-17)
5(-7.199325442e-15 -4.708766643e-13 2.963152059e-15 -3.655342322e-13 4.515561576e-15)
5(-1.768485217e-12 -1.289530388e-10 6.781470054e-13 -8.807252649e-11 1.094522182e-12)
5(-5.582368823e-10 -4.875463397e-08 1.145347073e-10 -2.453847737e-08 3.101573712e-10)
5(-2.997864623e-07 5.601044957e-07 8.183045719e-08 1.960204318e-07 1.168643571e-07)
5(1.097696588e-27 0.006224820898 1.185661448e-12 0.001699553343 -7.262819582e-33)
)


60
(
5(-1.969938227e-08 -1.062560398e-08 -4.406644853e-09 -2.740296396e-09 -1.150202833e-09)
5(-2.341742644e-08 -1.11850505e-08 -4.891736142e-09 -2.351554641e-09 -1.14552499e-09)
5(-2.578547707e-08 -1.12541657e-08 -5.158673113e-09 -2.256962829e-09 -1.15338765e-09)
5(-2.759567474e-08 -1.166319624e-08 -5.402599156e-09 -2.323246782e-09 -1.190678317e-09)
5(-2.921627212e-08 -1.243972853e-08 -5.587609664e-09 -2.457171963e-09 -1.228140285e-09)
5(-3.044674379e-08 -1.330458088e-08 -5.732436986e-09 -2.567279713e-09 -1.251325533e-09)
5(-3.11852451e-08 -1.384584045e-08 -5.765029384e-09 -2.578359256e-09 -1.245339388e-09)
5(-3.141689929e-08 -1.395807605e-08 -5.737220174e-09 -2.531111606e-09 -1.219048156e-09)
5(-3.157534994e-08 -1.40603962e-08 -5.661671466e-09 -2.447592033e-09 -1.177945491e-09)
5(-3.199630241e-08 -1.406629948e-08 -5.519174319e-09 -2.35477067e-09 -1.125388182e-09)
5(-3.160428376e-08 -1.390782524e-08 -5.332396013e-09 -2.246323222e-09 -1.064671706e-09)
5(-3.113879636e-08 -1.381410542e-08 -5.101142715e-09 -2.127301781e-09 -9.979585166e-10)
5(-3.065561101e-08 -1.35669538e-08 -4.834674662e-09 -1.984065409e-09 -9.180201625e-10)
5(-3.018829044e-08 -1.312489696e-08 -4.530363529e-09 -1.819826757e-09 -8.319997975e-10)
5(-2.861985787e-08 -1.255389903e-08 -4.198781081e-09 -1.645232715e-09 -7.482599581e-10)
5(-2.714867287e-08 -1.204821379e-08 -3.840631805e-09 -1.472004082e-09 -6.602358747e-10)
5(-2.607223195e-08 -1.154893014e-08 -3.46667081e-09 -1.297731235e-09 -5.734070855e-10)
5(-2.431715469e-08 -1.080494371e-08 -3.098756709e-09 -1.127250201e-09 -4.918164895e-10)
5(-2.276141787e-08 -1.019358027e-08 -2.727222575e-09 -9.681504901e-10 -4.154850802e-10)
5(-2.101729726e-08 -9.431959767e-09 -2.386633956e-09 -8.179945243e-10 -3.462367829e-10)
5(-1.911933809e-08 -8.714166401e-09 -2.056619353e-09 -6.792716546e-10 -2.827926136e-10)
5(-1.719166098e-08 -8.024243283e-09 -1.741963463e-09 -5.572321447e-10 -2.270696933e-10)
5(-1.557331064e-08 -7.301514858e-09 -1.460470323e-09 -4.471471345e-10 -1.781927792e-10)
5(-1.339357533e-08 -6.46862403e-09 -1.210399499e-09 -3.522503986e-10 -1.375772364e-10)
5(-1.123363856e-08 -5.753822502e-09 -9.894603042e-10 -2.720208968e-10 -1.042800585e-10)
5(-9.344336739e-09 -5.100347306e-09 -7.953544733e-10 -2.055876698e-10 -7.669868818e-11)
5(-7.545993369e-09 -4.472165937e-09 -6.332366273e-10 -1.517553346e-10 -5.476517958e-11)
5(-6.073819182e-09 -3.918361207e-09 -4.95315699e-10 -1.091329792e-10 -3.78964298e-11)
5(-4.500982821e-09 -3.32257156e-09 -3.838273214e-10 -7.623234458e-11 -2.471324224e-11)
5(-3.001873397e-09 -2.791898921e-09 -2.935885652e-10 -5.084706211e-11 -1.480980109e-11)
5(-1.853090488e-09 -2.334750218e-09 -2.198653938e-10 -3.170223229e-11 -6.868757464e-12)
5(-1.009169943e-09 -1.907874401e-09 -1.628558241e-10 -1.741156523e-11 -7.027729999e-13)
5(-2.337259274e-10 -1.516498194e-09 -1.173433243e-10 -5.987970508e-12 4.432855356e-12)
5(2.410386319e-10 -1.196794937e-09 -8.019514113e-11 3.080178059e-12 8.602750279e-12)
5(6.749628755e-10 -8.910204254e-10 -5.142195643e-11 1.018707225e-11 1.176530689e-11)
5(8.514044427e-10 -6.563596081e-10 -2.685245327e-11 1.50473589e-11 1.296661848e-11)
5(8.487610656e-10 -4.609905155e-10 -9.559849951e-12 1.731957613e-11 1.194398118e-11)
5(8.190381308e-10 -2.964110824e-10 2.039240701e-12 1.630453485e-11 7.509216607e-12)
5(6.651376756e-10 -1.922053311e-10 8.044273952e-12 1.089826287e-11 -8.703271567e-13)
5(5.010919375e-10 -1.104351848e-10 7.20572379e-12 1.24192087e-12 -1.251595347e-11)
5(3.731335964e-10 -5.326724121e-11 6.233498893e-13 -1.162461264e-11 -2.544119864e-11)
5(2.371846663e-10 -3.102821364e-11 -1.038218687e-11 -2.477479547e-11 -3.591944699e-11)
5(1.351342316e-10 -2.115398673e-11 -2.247531357e-11 -3.500266996e-11 -4.149749058e-11)
5(6.908249405e-11 -2.298575884e-11 -3.181884724e-11 -3.918744367e-11 -3.994174473e-11)
5(2.202075426e-11 -2.729591302e-11 -3.552960083e-11 -3.640219513e-11 -3.246284892e-11)
5(-1.356481281e-12 -2.894156317e-11 -3.25120494e-11 -2.820755865e-11 -2.196905068e-11)
5(-9.0287259e-12 -2.58053551e-11 -2.47815525e-11 -1.794008663e-11 -1.219926764e-11)
5(-8.043341677e-12 -1.90912784e-11 -1.561528616e-11 -9.397269856e-12 -5.415701471e-12)
5(-3.048667868e-12 -1.147272071e-11 -7.975824507e-12 -3.853012421e-12 -1.852867944e-12)
5(1.119335935e-12 -5.507641702e-12 -3.187998263e-12 -1.176757493e-12 -4.750785841e-13)
5(2.508108123e-12 -2.072573145e-12 -9.4045977e-13 -2.663387977e-13 -8.995747368e-14)
5(2.038959563e-12 -5.887470321e-13 -1.966496847e-13 -4.330849257e-14 -1.080218042e-14)
5(1.085122008e-12 -9.045185475e-14 -2.818535948e-14 -4.514917895e-15 -9.159141088e-16)
5(3.269021873e-13 -6.596141177e-15 -2.492914035e-15 -1.962448457e-16 -4.977691698e-17)
5(4.699549312e-14 1.176163122e-14 -2.868665099e-16 1.520038853e-14 -2.502750813e-16)
5(4.954319677e-14 2.356147615e-12 -3.096694772e-14 2.679077854e-12 -3.986567e-14)
5(9.445872096e-12 6.478552456e-10 -7.427400483e-12 6.13619489e-10 -7.938337339e-12)
5(2.952120346e-09 3.040748096e-07 -2.58495628e-09 2.159291854e-07 -2.107748216e-09)
5(1.959957618e-06 0.001527783092 -2.459962863e-07 0.0006938890899 -1.03907045e-06)
5(0.0126754753 0.005342020792 -0.001747137355 0.001076980471 -0.00453404693)
)


60
(
5(-2.634690594e-08 -1.601533687e-08 -6.06960829e-09 -3.951889259e-09 -1.81955426e-09)
5(-3.445723076e-08 -1.784452183e-08 -7.120802715e-09 -3.532292922e-09 -1.845742504e-09)
5(-3.952593364e-08 -1.827488785e-08 -7.86978602e-09 -3.497702963e-09 -1.898337012e-09)
5(-4.277643032e-08 -1.932865461e-08 -8.414314999e-09 -3.667093229e-09 -1.979059037e-09)
5(-4.542906404e-08 -2.134078448e-08 -8.836951566e-09 -3.923067824e-09 -2.058672989e-09)
5(-4.685402224e-08 -2.358749878e-08 -9.175892454e-09 -4.126578043e-09 -2.108437807e-09)
5(-4.763578273e-08 -2.530691216e-08 -9.372581431e-09 -4.195323935e-09 -2.113861204e-09)
5(-4.871291323e-08 -2.634537355e-08 -9.483043958e-09 -4.161130943e-09 -2.081581454e-09)
5(-4.934355286e-08 -2.700489923e-08 -9.489075643e-09 -4.061159978e-09 -2.025652134e-09)
5(-5.013309007e-08 -2.784885172e-08 -9.46136578e-09 -3.943536648e-09 -1.952673953e-09)
5(-4.966453785e-08 -2.838786931e-08 -9.268075506e-09 -3.804883102e-09 -1.865870562e-09)
5(-4.929440759e-08 -2.897739647e-08 -9.044630744e-09 -3.636577739e-09 -1.757405293e-09)
5(-4.734516076e-08 -2.931460295e-08 -8.71707289e-09 -3.422303534e-09 -1.635116407e-09)
5(-4.823772488e-08 -3.002544782e-08 -8.296814573e-09 -3.179563878e-09 -1.502597738e-09)
5(-4.674537492e-08 -2.941191471e-08 -7.819836853e-09 -2.919451494e-09 -1.359718243e-09)
5(-4.321738158e-08 -2.887991636e-08 -7.313948571e-09 -2.654154073e-09 -1.216784987e-09)
5(-4.106650681e-08 -2.862878985e-08 -6.804681125e-09 -2.365345792e-09 -1.074978823e-09)
5(-3.824477439e-08 -2.807539903e-08 -6.231038211e-09 -2.09221181e-09 -9.3727533e-10)
5(-3.559834881e-08 -2.72794353e-08 -5.659692252e-09 -1.830590462e-09 -8.042830185e-10)
5(-3.195793489e-08 -2.645513611e-08 -5.123249978e-09 -1.577732213e-09 -6.807339695e-10)
5(-2.885208707e-08 -2.551528523e-08 -4.584944796e-09 -1.339097737e-09 -5.674457065e-10)
5(-2.513033938e-08 -2.417788619e-08 -4.060189925e-09 -1.122468284e-09 -4.651738535e-10)
5(-2.050112727e-08 -2.309129523e-08 -3.579019775e-09 -9.31115571e-10 -3.771260669e-10)
5(-1.707515171e-08 -2.194162984e-08 -3.140026929e-09 -7.614643594e-10 -2.999816716e-10)
5(-1.302660086e-08 -2.029966158e-08 -2.728963478e-09 -6.113072964e-10 -2.321157601e-10)
5(-9.366123211e-09 -1.901869653e-08 -2.37139481e-09 -4.850099768e-10 -1.770090376e-10)
5(-4.561634489e-09 -1.717753672e-08 -2.007424334e-09 -3.811378205e-10 -1.324313737e-10)
5(-1.042143994e-09 -1.56299488e-08 -1.719770663e-09 -2.951118201e-10 -9.604308432e-11)
5(1.562834698e-09 -1.399565457e-08 -1.478333002e-09 -2.248334547e-10 -6.761984078e-11)
5(3.897461785e-09 -1.275266668e-08 -1.240640275e-09 -1.69010086e-10 -4.520413231e-11)
5(5.559748071e-09 -1.10599745e-08 -1.018934995e-09 -1.257301119e-10 -2.764759768e-11)
5(7.709804299e-09 -9.269279234e-09 -8.495050246e-10 -9.108865648e-11 -1.400684154e-11)
5(8.85612906e-09 -7.757636891e-09 -6.875823895e-10 -6.220804902e-11 -3.197562036e-12)
5(8.878162396e-09 -6.350719021e-09 -5.536960432e-10 -3.785158728e-11 6.059293696e-12)
5(8.836058312e-09 -5.201940336e-09 -4.257069301e-10 -1.874082824e-11 1.332852646e-11)
5(7.66307778e-09 -4.045809156e-09 -3.123936816e-10 -2.854185615e-12 1.885530793e-11)
5(7.257369867e-09 -2.952237946e-09 -2.309458895e-10 9.22468824e-12 2.161840566e-11)
5(5.999138006e-09 -2.121518055e-09 -1.566102295e-10 1.641710439e-11 2.061463321e-11)
5(4.934334442e-09 -1.412063616e-09 -8.988504406e-11 1.802461544e-11 1.50882995e-11)
5(3.745704657e-09 -8.781600572e-10 -5.033015835e-11 1.35370352e-11 3.922457964e-12)
5(2.616914591e-09 -5.209342813e-10 -2.601671854e-11 2.956562542e-12 -1.09987712e-11)
5(1.709421235e-09 -2.70073769e-10 -1.752616049e-11 -1.167266687e-11 -2.656782729e-11)
5(1.092465527e-09 -1.287925706e-10 -1.989164383e-11 -2.680065126e-11 -3.982873362e-11)
5(5.94504055e-10 -6.599798631e-11 -2.713620081e-11 -3.81655068e-11 -4.609469617e-11)
5(2.93661987e-10 -3.472569989e-11 -3.406593368e-11 -4.224077081e-11 -4.398465954e-11)
5(1.32648569e-10 -2.689442923e-11 -3.627644074e-11 -3.856885737e-11 -3.5294443e-11)
5(5.824860543e-11 -2.478617326e-11 -3.244598917e-11 -2.932326263e-11 -2.394598043e-11)
5(1.697980844e-11 -2.103283975e-11 -2.440411616e-11 -1.828754947e-11 -1.307608197e-11)
5(7.816948511e-12 -1.509575326e-11 -1.499677762e-11 -9.175144806e-12 -5.748830177e-12)
5(9.790327709e-12 -8.742649001e-12 -7.424640372e-12 -3.64902814e-12 -1.986300569e-12)
5(9.833949921e-12 -4.074397237e-12 -2.8693783e-12 -1.102354855e-12 -4.953432125e-13)
5(8.367792654e-12 -1.284153438e-12 -7.961696249e-13 -2.368556487e-13 -8.890055304e-14)
5(5.135695587e-12 -3.466482222e-13 -1.58169246e-13 -3.690593143e-14 -1.149591113e-14)
5(2.701535571e-12 -3.663011025e-14 -2.249029274e-14 -3.190739976e-15 -7.205724193e-16)
5(8.253582829e-13 2.389571515e-14 -1.826172329e-15 1.516173085e-14 -3.508754008e-16)
5(3.061954646e-13 2.587648326e-12 -1.145156752e-14 2.148685128e-12 -4.027883604e-14)
5(9.490469507e-12 6.449400409e-10 -2.606040624e-12 3.796770437e-10 -6.29179747e-12)
5(2.619314319e-09 2.472483932e-07 -3.780804868e-10 9.137214084e-08 -1.270493459e-09)
5(1.412145935e-06 -1.531837099e-06 -3.337355388e-07 -5.946723418e-07 -4.471550566e-07)
5(4.074527698e-16 -0.007192005995 -5.194653866e-12 -0.002930121607 2.147344417e-05)
)


60
(
5(-3.149613467e-08 -2.364257454e-08 -8.354737186e-09 -5.576301561e-09 -2.741854151e-09)
5(-4.896175097e-08 -2.890904168e-08 -1.046473977e-08 -5.215255548e-09 -2.838063105e-09)
5(-5.830656786e-08 -3.089988028e-08 -1.210457524e-08 -5.314622615e-09 -2.971205563e-09)
5(-6.356890174e-08 -3.39595203e-08 -1.320131702e-08 -5.661702148e-09 -3.123276734e-09)
5(-6.736906758e-08 -3.892336741e-08 -1.408823971e-08 -6.104138979e-09 -3.262919362e-09)
5(-7.036058117e-08 -4.466250561e-08 -1.493848909e-08 -6.461913454e-09 -3.356939009e-09)
5(-7.064747137e-08 -4.921278394e-08 -1.552045606e-08 -6.625500879e-09 -3.382917028e-09)
5(-7.196466666e-08 -5.282733741e-08 -1.595192554e-08 -6.620915632e-09 -3.35048549e-09)
5(-7.368535215e-08 -5.566030309e-08 -1.625115403e-08 -6.52816437e-09 -3.284942952e-09)
5(-7.412815981e-08 -5.877985251e-08 -1.639718563e-08 -6.391370463e-09 -3.19250812e-09)
5(-7.433564636e-08 -6.163036332e-08 -1.641667731e-08 -6.22559857e-09 -3.068915477e-09)
5(-7.167857505e-08 -6.439735209e-08 -1.628644085e-08 -6.001425208e-09 -2.920981744e-09)
5(-7.133130841e-08 -6.716426056e-08 -1.599743617e-08 -5.722994637e-09 -2.742453524e-09)
5(-6.83256774e-08 -6.869166223e-08 -1.563057859e-08 -5.382564189e-09 -2.54471303e-09)
5(-6.42599443e-08 -7.067406309e-08 -1.508950958e-08 -5.001856563e-09 -2.331817039e-09)
5(-6.078222728e-08 -7.186923558e-08 -1.451097484e-08 -4.608173724e-09 -2.115584692e-09)
5(-5.376538978e-08 -7.255622054e-08 -1.377076481e-08 -4.199546223e-09 -1.891709286e-09)
5(-5.22488166e-08 -7.368901768e-08 -1.307972328e-08 -3.802982111e-09 -1.671266441e-09)
5(-4.287834615e-08 -7.305607789e-08 -1.234295488e-08 -3.384526197e-09 -1.4584358e-09)
5(-3.622133244e-08 -7.318459361e-08 -1.158460976e-08 -2.996231239e-09 -1.256632954e-09)
5(-2.964883656e-08 -7.268221251e-08 -1.083492979e-08 -2.622992391e-09 -1.074241076e-09)
5(-1.795244028e-08 -7.062548923e-08 -1.00411452e-08 -2.278093595e-09 -9.055170204e-10)
5(-1.371691242e-08 -7.008068778e-08 -9.323153679e-09 -1.974528637e-09 -7.510476305e-10)
5(-5.547193788e-09 -6.814805882e-08 -8.652468075e-09 -1.69169691e-09 -6.135090251e-10)
5(6.682747833e-09 -6.496277543e-08 -7.954465272e-09 -1.44277739e-09 -4.962133121e-10)
5(1.285374181e-08 -6.247851771e-08 -7.280767577e-09 -1.232990156e-09 -3.957689994e-10)
5(2.094632891e-08 -6.000530755e-08 -6.677696243e-09 -1.045009637e-09 -3.09773576e-10)
5(2.241207396e-08 -5.61297617e-08 -6.110549421e-09 -8.772031101e-10 -2.409652907e-10)
5(3.30940704e-08 -5.08561507e-08 -5.495913651e-09 -7.344919931e-10 -1.860680573e-10)
5(3.912740169e-08 -4.679039356e-08 -4.83998149e-09 -6.189955778e-10 -1.381777436e-10)
5(4.739645509e-08 -4.179042697e-08 -4.324159455e-09 -5.198686085e-10 -1.022392879e-10)
5(4.198160402e-08 -3.733266041e-08 -3.869311605e-09 -4.28475991e-10 -7.267679533e-11)
5(4.122787344e-08 -3.218513712e-08 -3.288396202e-09 -3.478833302e-10 -4.825707965e-11)
5(4.435385423e-08 -2.64999185e-08 -2.754182419e-09 -2.779935813e-10 -2.714802357e-11)
5(4.073580149e-08 -2.208784973e-08 -2.277057273e-09 -2.18187917e-10 -1.056593932e-11)