/*--------------------------------*- C++ -*----------------------------------*\
| =========                 |                                                 |
| \\      /  F ield         | OpenFOAM: The Open Source CFD Toolbox           |
|  \\    /   O peration     | Version:  2.3.1                                 |
|   \\  /    A nd           | Web:      www.OpenFOAM.org                      |
|    \\/     M anipulation  |                                                 |
\*---------------------------------------------------------------------------*/
FoamFile
{
    version     2.0;
    format      ascii;
    class       dictionary;
    location    "constant";
    object      PM64;
}
// * * * * * * * * * * * * * * * * * * * * * * * * * * * * * * * * * * * * * //

PM64_table
60
(

60
(
5(2.027564345e-10 1.785852628e-10 1.5915018e-10 -4.082054302e-11 7.417185534e-11)
5(4.623833584e-10 -1.050250505e-10 -1.150293443e-10 -5.599728724e-11 2.102379028e-10)
5(-4.245912898e-11 -1.19509696e-10 -9.153433152e-11 -1.811947714e-11 -3.923974828e-11)
5(-1.002139978e-10 -1.051874401e-10 -7.634558091e-11 -5.229031123e-11 -3.385446115e-11)
5(-1.148074802e-10 -9.102731498e-11 -5.467179494e-11 -4.990500415e-11 -2.607495336e-11)
5(-1.035109599e-10 -6.701230306e-11 -5.327738839e-11 -3.928183537e-11 -3.4059605e-11)
5(-7.167920319e-11 -5.418079872e-11 -6.057221192e-11 -3.355448566e-11 -3.044752959e-11)
5(-5.930055836e-11 -4.609973275e-11 -4.528989034e-11 -2.363057253e-11 -1.689215589e-11)
5(-4.834130862e-11 -3.311261752e-11 -2.998648946e-11 -1.521929455e-11 -1.402879059e-11)
5(-3.247947815e-11 -2.006963644e-11 -1.797593259e-11 -7.89188297e-12 -6.940971905e-12)
5(-2.069867013e-11 -1.058209281e-11 -8.538557129e-12 -3.522580939e-12 -2.745793972e-12)
5(-1.140175191e-11 -5.149814008e-12 -3.822988551e-12 -1.516065065e-12 -1.004091533e-12)
5(-5.805399093e-12 -2.371689681e-12 -1.800673018e-12 -6.463152465e-13 -4.382368509e-13)
5(-2.89230824e-12 -1.225913382e-12 -8.474290756e-13 -3.083629699e-13 -1.941677379e-13)
5(-1.598529343e-12 -5.639706161e-13 -4.42684579e-13 -1.567037145e-13 -9.352585344e-14)
5(-8.474479332e-13 -2.020281465e-13 -2.931953707e-13 -8.214335311e-14 -5.012858175e-14)
5(-5.065605621e-13 -2.134433101e-13 -1.763934944e-13 -4.928892707e-14 -2.665509212e-14)
5(-3.224615996e-13 -1.536817169e-13 -1.064994372e-13 -2.715593657e-14 -1.359067031e-14)
5(-2.194578838e-13 -1.165944338e-13 -5.635038675e-14 -1.524165209e-14 -7.35883286e-15)
5(-1.543757042e-13 -7.233756472e-14 -2.880067234e-14 -8.924317508e-15 -4.16649133e-15)
5(-1.022933673e-13 -3.62469607e-14 -1.763300796e-14 -5.206628413e-15 -2.413612831e-15)
5(-7.03829506e-14 -2.372164059e-14 -1.086283544e-14 -3.139697333e-15 -1.415609527e-15)
5(-4.906396907e-14 -1.561466668e-14 -6.828036957e-15 -1.956869603e-15 -8.574522542e-16)
5(-3.330272707e-14 -1.021487731e-14 -4.292545954e-15 -1.221963229e-15 -5.486635343e-16)
5(-2.305257409e-14 -6.709008638e-15 -2.774457522e-15 -8.167905101e-16 -3.951822336e-16)
5(-1.583298759e-14 -4.455968015e-15 -1.828147879e-15 -6.035453327e-16 -3.431177696e-16)
5(-1.084098676e-14 -3.049132873e-15 -1.308677558e-15 -5.403844576e-16 -3.794903762e-16)
5(-7.684375271e-15 -2.229664731e-15 -1.097151254e-15 -6.104825084e-16 -5.109314753e-16)
5(-5.509594621e-15 -1.830781867e-15 -1.145201292e-15 -8.441920712e-16 -7.844054519e-16)
5(-4.16517747e-15 -1.855267441e-15 -1.498521001e-15 -1.323675028e-15 -1.292100151e-15)
5(-3.54202558e-15 -2.33805763e-15 -2.282628814e-15 -2.200545084e-15 -2.154631992e-15)
5(-3.633586665e-15 -3.453982628e-15 -3.713013511e-15 -3.689786436e-15 -3.628056104e-15)
5(-4.585506925e-15 -5.514466919e-15 -6.226596797e-15 -6.32001512e-15 -6.209173186e-15)
5(-6.716511733e-15 -9.105498105e-15 -1.038494708e-14 -1.034351356e-14 -9.616546345e-15)
5(-1.071445786e-14 -1.502197287e-14 -1.700880578e-14 -1.656142781e-14 -1.510621906e-14)
5(-1.750339336e-14 -2.438977794e-14 -2.705641025e-14 -2.504984856e-14 -2.184049745e-14)
5(-2.863159299e-14 -3.844163571e-14 -4.119999779e-14 -3.617868866e-14 -2.830543042e-14)
5(-4.524008595e-14 -5.750966092e-14 -5.947291952e-14 -4.685972602e-14 -3.340883372e-14)
5(-6.841456417e-14 -8.142715409e-14 -7.89171722e-14 -5.915622345e-14 -3.449022221e-14)
5(-9.793922082e-14 -1.078916089e-13 -9.616247594e-14 -5.559755337e-14 -3.190136827e-15)
5(-1.311927174e-13 -1.308445801e-13 -1.056714246e-13 -4.925501422e-14 -2.234841994e-14)
5(-1.612575663e-13 -1.435231089e-13 -1.005543395e-13 -2.664915096e-14 -2.009365398e-14)
5(-1.789995448e-13 -1.408076897e-13 -8.190484324e-14 -2.551422256e-14 -1.555615473e-14)
5(-1.787482987e-13 -1.222645845e-13 -6.164224137e-14 -2.121623147e-14 -7.715827146e-15)
5(-1.548610118e-13 -9.065205902e-14 -3.641994259e-14 -1.096032527e-14 -2.998313398e-15)
5(-1.166371437e-13 -5.608582605e-14 -1.385617713e-14 -4.549585831e-15 -8.738454592e-16)
5(-7.236880935e-14 -2.480840492e-14 -5.083902659e-15 -1.563540027e-15 -1.870302512e-16)
5(-3.574296011e-14 -1.000711465e-14 -2.355324697e-15 -3.633194165e-16 -2.802973712e-17)
5(-1.517738409e-14 -2.507896369e-15 -5.780082617e-16 -5.775974294e-17 -2.998298635e-18)
5(-2.922391478e-15 -4.908075016e-16 -1.057561254e-16 -6.129122771e-18 -2.418103417e-19)
5(-5.173784634e-16 -1.064078594e-16 -1.09571876e-17 -4.70371115e-19 -1.48946819e-20)
5(-1.008801882e-16 -1.167919575e-17 -7.50095172e-19 -2.539266129e-20 -6.898250611e-22)
5(-1.192799513e-17 -7.054474791e-19 -3.483520123e-20 -9.64446348e-22 -2.261858179e-23)
5(-5.19436303e-19 -2.132044287e-20 -9.154053337e-22 -2.347692351e-23 -5.532080838e-25)
5(-1.036503889e-20 -3.945393671e-22 -1.452403448e-23 -6.274511284e-25 -8.601096182e-27)
5(-6.533998346e-23 2.41875567e-22 -1.694214309e-25 -6.176104374e-24 5.258103252e-30)
5(-1.406899337e-25 1.100664338e-20 1.251033331e-24 2.516890947e-20 2.529173034e-29)
5(1.269479361e-28 5.075941467e-19 -2.862060458e-23 1.47352353e-17 1.763272901e-30)
5(2.532398854e-30 -8.820530585e-17 -2.226702102e-19 -5.579368901e-18 2.171873903e-32)
5(8.101577937e-35 3.756826838e-34 6.559662116e-34 6.424976316e-33 1.952689466e-32)
)


60
(
5(-4.444498162e-10 -2.489469966e-10 -2.921407317e-10 -1.631413288e-10 -1.040859137e-10)
5(-5.323247094e-10 -3.341083552e-10 -3.165489492e-10 -1.529775588e-10 -1.234932343e-10)
5(-4.533453369e-10 -3.132990263e-10 -2.413318912e-10 -1.363328636e-10 -1.059602066e-10)
5(-3.738958272e-10 -2.870402612e-10 -2.098922488e-10 -1.291058138e-10 -7.288650455e-11)
5(-3.787561198e-10 -2.731579915e-10 -2.094569814e-10 -1.184779024e-10 -8.13206955e-11)
5(-3.77941298e-10 -2.544700131e-10 -2.123604272e-10 -1.122865948e-10 -8.308179159e-11)
5(-3.400413644e-10 -2.243284064e-10 -1.890780415e-10 -1.023387547e-10 -7.018058908e-11)
5(-2.99676493e-10 -1.861439545e-10 -1.540382287e-10 -8.105876512e-11 -6.132423982e-11)
5(-2.381323858e-10 -1.42335015e-10 -1.156221672e-10 -5.763668491e-11 -4.296399835e-11)
5(-1.766706749e-10 -9.498764143e-11 -7.407915942e-11 -3.499243136e-11 -2.509904185e-11)
5(-1.152581527e-10 -5.383008501e-11 -3.989962749e-11 -1.69776962e-11 -1.178013385e-11)
5(-6.431787447e-11 -2.677609361e-11 -1.877935258e-11 -7.182096709e-12 -4.67125879e-12)
5(-3.363239265e-11 -1.312828622e-11 -8.475639628e-12 -3.058433256e-12 -1.831443038e-12)
5(-1.791053501e-11 -6.768349647e-12 -4.059189055e-12 -1.456092501e-12 -8.16617095e-13)
5(-1.004729573e-11 -3.746598618e-12 -2.103044767e-12 -7.318288943e-13 -3.929977243e-13)
5(-5.940843887e-12 -2.093865927e-12 -1.141503516e-12 -3.880188879e-13 -2.004820102e-13)
5(-3.622782979e-12 -1.250740798e-12 -6.456550647e-13 -2.14566307e-13 -1.060825844e-13)
5(-2.317716888e-12 -7.718855137e-13 -3.78985781e-13 -1.221964351e-13 -5.833466948e-14)
5(-1.526035771e-12 -4.93085606e-13 -2.274876422e-13 -7.179500916e-14 -3.307670324e-14)
5(-1.017620471e-12 -3.217429575e-13 -1.391626681e-13 -4.265762049e-14 -1.914477545e-14)
5(-7.135274063e-13 -2.114992937e-13 -8.707691478e-14 -2.599326867e-14 -1.125406963e-14)
5(-4.838996544e-13 -1.399676869e-13 -5.471147037e-14 -1.617162123e-14 -6.753351214e-15)
5(-3.457131984e-13 -9.339934259e-14 -3.469624742e-14 -9.871144851e-15 -4.048523501e-15)
5(-2.420198998e-13 -6.179502066e-14 -2.201621424e-14 -6.120641927e-15 -2.475063795e-15)
5(-1.747797334e-13 -4.133072141e-14 -1.397191515e-14 -3.817956437e-15 -1.549247564e-15)
5(-1.237288484e-13 -2.764470877e-14 -8.86012636e-15 -2.392876695e-15 -1.008945334e-15)
5(-8.856105199e-14 -1.84825853e-14 -5.654220935e-15 -1.540523285e-15 -6.983018472e-16)
5(-6.533807891e-14 -1.228166568e-14 -3.59693842e-15 -1.024787757e-15 -5.334098268e-16)
5(-4.59104804e-14 -8.121614477e-15 -2.310997391e-15 -7.153986516e-16 -4.53111517e-16)
5(-3.321047868e-14 -5.315840598e-15 -1.468123585e-15 -5.182141384e-16 -4.558887278e-16)
5(-2.358534927e-14 -3.378103812e-15 -8.938236602e-16 -4.208362814e-16 -5.640603414e-16)
5(-1.672442488e-14 -2.048173717e-15 -4.853915049e-16 -4.520722332e-16 -8.653978531e-16)
5(-1.144344598e-14 -1.068488154e-15 -2.838151411e-16 -8.220986351e-16 -1.815194591e-15)
5(-7.516698466e-15 -3.815554936e-16 -5.488299859e-16 -2.026003079e-15 -3.95839236e-15)
5(-4.593390305e-15 -3.684710715e-16 -1.957041381e-15 -5.001756319e-15 -8.307921516e-15)
5(-3.280861156e-15 -1.826402435e-15 -5.879133758e-15 -1.119098501e-14 -1.640749158e-14)
5(-3.812581945e-15 -6.271362347e-15 -1.416087405e-14 -2.248178084e-14 -2.945050976e-14)
5(-8.124398016e-15 -1.612051509e-14 -2.956137356e-14 -4.036519536e-14 -4.890056599e-14)
5(-1.959941028e-14 -3.41465686e-14 -5.367288823e-14 -6.527831275e-14 -7.074065992e-14)
5(-4.07048041e-14 -6.222807939e-14 -8.62840161e-14 -9.377924878e-14 -1.009760335e-13)
5(-7.445634999e-14 -1.003830776e-13 -1.245774419e-13 -1.204919818e-13 -1.158874156e-13)
5(-1.193851009e-13 -1.423447897e-13 -1.57878874e-13 -1.407962157e-13 -1.135123574e-13)
5(-1.682745035e-13 -1.797415514e-13 -1.763445767e-13 -1.458461309e-13 -9.247291403e-14)
5(-2.083093518e-13 -1.948882269e-13 -1.630153526e-13 -1.18910122e-13 -6.155220447e-14)
5(-2.243680132e-13 -1.840642364e-13 -1.351452353e-13 -7.911752206e-14 -3.323862353e-14)
5(-2.087475531e-13 -1.467178238e-13 -9.398513484e-14 -4.24995408e-14 -1.39507327e-14)
5(-1.635375354e-13 -9.966497592e-14 -5.667313736e-14 -1.776974577e-14 -4.474794962e-15)
5(-1.057428731e-13 -5.655176374e-14 -2.471399936e-14 -5.654321028e-15 -1.050746123e-15)
5(-5.484645557e-14 -2.374123072e-14 -7.873238461e-15 -1.324576098e-15 -1.779128526e-16)
5(-2.201937364e-14 -8.407211159e-15 -1.789215435e-15 -2.178096055e-16 -2.106574902e-17)
5(-6.614220444e-15 -1.851075644e-15 -2.783088596e-16 -2.453439883e-17 -1.744448593e-18)
5(-1.457137664e-15 -2.603285149e-16 -2.737774567e-17 -1.817767571e-18 -1.096070626e-19)
5(-1.85991032e-16 -2.30399994e-17 -1.678275286e-18 -9.007815484e-20 -4.62516485e-21)
5(-1.358153334e-17 -1.063869459e-18 -5.773503903e-20 -2.621391598e-21 -1.330038386e-22)
5(-4.563466522e-19 -2.38402183e-20 -1.136685816e-21 7.26024121e-23 -3.56341302e-24)
5(-6.510562714e-21 4.544185843e-21 2.215015349e-22 2.120148467e-20 -1.949482202e-22)
5(-2.126561968e-20 2.363281961e-18 3.0710899e-20 2.888151123e-18 -4.150174456e-20)
5(7.530516787e-19 -1.402700169e-16 3.959293389e-18 -1.682025767e-16 -7.201590774e-18)
5(-3.646612058e-17 -6.335377628e-13 3.611268227e-18 -4.054393762e-14 8.070099264e-18)
5(-1.316935448e-30 5.548787157e-17 1.310276226e-19 1.855123132e-17 1.57485399e-32)
)


60
(
5(-8.811410941e-10 -3.687327093e-10 -5.314709671e-10 -2.761182093e-10 -1.838677938e-10)
5(-1.268300919e-09 -5.521450598e-10 -5.953836659e-10 -2.62129644e-10 -2.00901316e-10)
5(-1.28407299e-09 -6.190260106e-10 -5.442929807e-10 -2.47812656e-10 -1.736366137e-10)
5(-1.237931843e-09 -6.199183131e-10 -5.262941708e-10 -2.421030178e-10 -1.624951702e-10)
5(-1.211588524e-09 -5.942958106e-10 -5.154788222e-10 -2.362631627e-10 -1.574102216e-10)
5(-1.16231448e-09 -5.609294598e-10 -4.899685858e-10 -2.265971612e-10 -1.501146224e-10)
5(-1.073915642e-09 -5.068803636e-10 -4.458104969e-10 -2.054864056e-10 -1.36664487e-10)
5(-9.555747983e-10 -4.43998977e-10 -3.813003062e-10 -1.742241378e-10 -1.153105492e-10)
5(-8.140113056e-10 -3.629817216e-10 -2.995128944e-10 -1.328005917e-10 -8.625716729e-11)
5(-6.222052151e-10 -2.592029349e-10 -2.045152905e-10 -8.515277992e-11 -5.338957896e-11)
5(-4.134072395e-10 -1.569091426e-10 -1.155987691e-10 -4.337830214e-11 -2.567186007e-11)
5(-2.379027422e-10 -8.041452379e-11 -5.41098783e-11 -1.85481557e-11 -1.02163019e-11)
5(-1.240876779e-10 -3.925430956e-11 -2.396222807e-11 -7.803231354e-12 -3.954737219e-12)
5(-6.584309953e-11 -2.013528574e-11 -1.132872654e-11 -3.612066915e-12 -1.758786234e-12)
5(-3.631763513e-11 -1.09731772e-11 -5.818584353e-12 -1.828868241e-12 -8.640862251e-13)
5(-2.143025181e-11 -6.322943078e-12 -3.162120573e-12 -9.808676269e-13 -4.495060207e-13)
5(-1.327940452e-11 -3.772902545e-12 -1.796155814e-12 -5.465389947e-13 -2.442321734e-13)
5(-8.385631872e-12 -2.336838727e-12 -1.054728821e-12 -3.15349884e-13 -1.378172641e-13)
5(-5.560586041e-12 -1.490093593e-12 -6.373616818e-13 -1.865708893e-13 -8.007945413e-14)
5(-3.745277629e-12 -9.691529933e-13 -3.931255396e-13 -1.128594972e-13 -4.745132725e-14)
5(-2.610094627e-12 -6.509674257e-13 -2.464341143e-13 -6.953347593e-14 -2.875103562e-14)
5(-1.8326006e-12 -4.334862384e-13 -1.567411941e-13 -4.328701841e-14 -1.754270576e-14)
5(-1.313723068e-12 -2.982094563e-13 -1.006140753e-13 -2.71202082e-14 -1.083437356e-14)
5(-9.397939885e-13 -2.040981301e-13 -6.480429087e-14 -1.709810624e-14 -6.763443455e-15)
5(-6.853218767e-13 -1.431128191e-13 -4.193282814e-14 -1.079979481e-14 -4.236773717e-15)
5(-5.0814377e-13 -9.925353428e-14 -2.705722179e-14 -6.827707509e-15 -2.67794764e-15)
5(-3.741951735e-13 -6.97422331e-14 -1.749000198e-14 -4.284416252e-15 -1.709876842e-15)
5(-2.851312046e-13 -4.96339344e-14 -1.123161229e-14 -2.648930615e-15 -1.058532089e-15)
5(-2.106908372e-13 -3.432703001e-14 -7.135132466e-15 -1.53013905e-15 -5.751509516e-16)
5(-1.558452395e-13 -2.413026836e-14 -4.352758565e-15 -6.425349134e-16 -1.149326458e-16)
5(-1.164416774e-13 -1.648949708e-14 -2.279463921e-15 2.103731843e-16 3.917660732e-16)
5(-8.574050569e-14 -1.073413662e-14 -5.137420143e-16 1.233428818e-15 1.073316241e-15)
5(-6.1344393e-14 -5.927969826e-15 1.336317037e-15 2.496201329e-15 1.847230088e-15)
5(-4.341184746e-14 -1.589567199e-15 3.497471504e-15 4.026751242e-15 2.488751096e-15)
5(-2.763946205e-14 2.790856684e-15 5.910440303e-15 5.360141708e-15 2.108695435e-15)
5(-1.549295228e-14 7.087027345e-15 8.09820164e-15 5.564615629e-15 -2.976497043e-16)
5(-5.25931574e-15 1.125406894e-14 8.764813407e-15 2.748038308e-15 -7.225037452e-15)
5(3.761883726e-15 1.387159531e-14 5.665319474e-15 -5.661282518e-15 -2.080912847e-14)
5(9.25210449e-15 1.237814194e-14 -4.243966748e-15 -2.221499824e-14 -4.236741861e-14)
5(1.006895633e-14 4.242684642e-15 -2.389394258e-14 -4.827311856e-14 -7.113192472e-14)
5(3.448633104e-15 -1.400846411e-14 -5.449459658e-14 -8.187707913e-14 -1.021329819e-13)
5(-1.280528331e-14 -4.21480427e-14 -9.213493826e-14 -1.162419359e-13 -1.255628312e-13)
5(-3.82471737e-14 -7.7610311e-14 -1.284274834e-13 -1.407062387e-13 -1.307865216e-13)
5(-6.811628064e-14 -1.119782143e-13 -1.516498997e-13 -1.447274891e-13 -1.144839996e-13)
5(-9.536111358e-14 -1.326834871e-13 -1.523552789e-13 -1.24843078e-13 -8.295165888e-14)
5(-1.096963597e-13 -1.313563852e-13 -1.287100086e-13 -8.865216355e-14 -4.878286832e-14)
5(-1.040336952e-13 -1.084462235e-13 -9.018687636e-14 -5.06176928e-14 -2.266755176e-14)
5(-8.177779184e-14 -7.404189656e-14 -5.064201135e-14 -2.26664481e-14 -8.12664175e-15)
5(-5.122542321e-14 -4.035241205e-14 -2.202972581e-14 -7.722309763e-15 -2.167620806e-15)
5(-2.553588979e-14 -1.702147286e-14 -7.098205726e-15 -1.927762712e-15 -4.104975069e-16)
5(-9.495775026e-15 -5.301860486e-15 -1.632489033e-15 -3.373040327e-16 -5.459543727e-17)
5(-2.478247443e-15 -1.111304098e-15 -2.511213705e-16 -3.89369941e-17 -4.6157282e-18)
5(-4.090286738e-16 -1.46497416e-16 -2.366784648e-17 -2.83042261e-18 -2.75742681e-19)
5(-3.943852207e-17 -1.07543635e-17 -1.251386163e-18 -1.230666224e-19 -9.824431743e-21)
5(-1.845619359e-18 -4.109403824e-19 -3.261351409e-20 -9.86288286e-21 -1.695783217e-22)
5(-6.726013061e-20 -1.787567679e-18 1.272517794e-20 -1.202670816e-18 1.120817078e-20)
5(-4.800984214e-18 -3.715843498e-16 2.348631603e-18 -2.301187318e-16 2.207770331e-18)
5(-1.276543999e-15 -1.039828834e-13 3.330210969e-16 -4.884626616e-14 4.911741869e-16)
5(-6.015246048e-13 1.222234061e-12 1.574351639e-13 -1.045373911e-13 1.37842609e-13)
5(4.692078877e-29 4.56886764e-10 3.387328209e-18 1.054268312e-12 -2.745645208e-32)
)


60
(
5(-1.665120557e-09 -5.6795018e-10 -9.071439582e-10 -4.747342009e-10 -3.283469285e-10)
5(-2.711356877e-09 -1.008941179e-09 -1.054091912e-09 -4.649625278e-10 -3.478301234e-10)
5(-3.047947499e-09 -1.20969575e-09 -1.053969324e-09 -4.594742956e-10 -3.20377484e-10)
5(-3.072747079e-09 -1.255713788e-09 -1.05203151e-09 -4.626954325e-10 -3.088464218e-10)
5(-3.056793895e-09 -1.242389979e-09 -1.038656884e-09 -4.643842075e-10 -3.019097523e-10)
5(-2.99719435e-09 -1.205102919e-09 -1.005949542e-09 -4.553634004e-10 -2.935700904e-10)
5(-2.853530596e-09 -1.137455933e-09 -9.349690532e-10 -4.247955972e-10 -2.733361723e-10)
5(-2.58631601e-09 -1.028350986e-09 -8.264663655e-10 -3.735048421e-10 -2.369500085e-10)
5(-2.250086911e-09 -8.944818262e-10 -6.782295894e-10 -2.987333965e-10 -1.834061343e-10)
5(-1.829960981e-09 -6.953845928e-10 -4.864321543e-10 -2.038013773e-10 -1.189379566e-10)
5(-1.268847978e-09 -4.451063561e-10 -2.890772615e-10 -1.112210149e-10 -6.002148398e-11)
5(-7.442706148e-10 -2.417136957e-10 -1.410238261e-10 -4.902246063e-11 -2.481976268e-11)
5(-3.959147044e-10 -1.185627291e-10 -6.215453736e-11 -2.018707676e-11 -9.594598609e-12)
5(-2.110063783e-10 -5.980450917e-11 -2.857703651e-11 -9.067750088e-12 -4.149236972e-12)
5(-1.146828111e-10 -3.209616911e-11 -1.442361579e-11 -4.514389808e-12 -2.046915807e-12)
5(-6.625211087e-11 -1.851518832e-11 -7.794120807e-12 -2.402406976e-12 -1.072744397e-12)
5(-4.080968306e-11 -1.121893517e-11 -4.403853108e-12 -1.336918582e-12 -5.881023035e-13)
5(-2.579856395e-11 -6.96783531e-12 -2.585117073e-12 -7.69442041e-13 -3.347661674e-13)
5(-1.688123102e-11 -4.523716132e-12 -1.561530005e-12 -4.567044442e-13 -1.967634387e-13)
5(-1.140039722e-11 -3.006002056e-12 -9.699195279e-13 -2.771528181e-13 -1.183713274e-13)
5(-7.872088174e-12 -2.052384562e-12 -6.143760511e-13 -1.711820094e-13 -7.221998771e-14)
5(-5.497645921e-12 -1.425614379e-12 -3.948850078e-13 -1.07621934e-13 -4.495512819e-14)
5(-3.948643536e-12 -1.011938601e-12 -2.579475966e-13 -6.816546312e-14 -2.811345287e-14)
5(-2.862985592e-12 -7.217570255e-13 -1.705264495e-13 -4.346004139e-14 -1.774274564e-14)
5(-2.054996146e-12 -5.238031279e-13 -1.136531309e-13 -2.780732003e-14 -1.129727635e-14)
5(-1.520022894e-12 -3.881528997e-13 -7.614549305e-14 -1.778284219e-14 -7.179258113e-15)
5(-1.107239954e-12 -2.877326878e-13 -5.145880805e-14 -1.132353954e-14 -4.510090019e-15)
5(-8.311940944e-13 -2.180265323e-13 -3.476246515e-14 -7.080037546e-15 -2.759054748e-15)
5(-6.120604155e-13 -1.614773214e-13 -2.34515633e-14 -4.201222348e-15 -1.46794505e-15)
5(-4.499915911e-13 -1.198064158e-13 -1.558762721e-14 -2.054074613e-15 -3.599633287e-16)
5(-3.269885494e-13 -8.911648641e-14 -9.8433687e-15 -1.688140219e-16 8.82321586e-16)
5(-2.34823124e-13 -6.482365444e-14 -5.289996282e-15 1.839761422e-15 2.447923175e-15)
5(-1.631631064e-13 -4.506300082e-14 -1.072816422e-15 4.389932804e-15 4.610608727e-15)
5(-1.119186538e-13 -2.957573633e-14 3.431179728e-15 7.715514363e-15 7.461861455e-15)
5(-7.192138444e-14 -1.52020474e-14 8.592450865e-15 1.200733279e-14 1.065245167e-14)
5(-4.189864254e-14 -2.673232572e-15 1.462704023e-14 1.658676917e-14 1.295951175e-14)
5(-1.712640197e-14 9.252057113e-15 2.087004605e-14 2.040835475e-14 1.308447871e-14)
5(3.10805875e-15 2.053378994e-14 2.590831382e-14 2.103331767e-14 7.411653948e-15)
5(1.882596081e-14 2.959786034e-14 2.70707979e-14 1.488909865e-14 -7.332839769e-15)
5(3.050480691e-14 3.478025886e-14 2.082957502e-14 -1.282678831e-15 -3.329280189e-14)
5(3.72091624e-14 3.295762061e-14 3.838280493e-15 -2.974985899e-14 -6.976182738e-14)
5(3.741267536e-14 2.178051186e-14 -2.509740017e-14 -6.791936326e-14 -1.092783415e-13)
5(2.995029686e-14 4.021121323e-16 -6.214330536e-14 -1.086747169e-13 -1.400135347e-13)
5(1.64413877e-14 -2.798593394e-14 -9.884321377e-14 -1.387037966e-13 -1.489200078e-13)
5(3.170773608e-17 -5.636591384e-14 -1.238664073e-13 -1.456971106e-13 -1.324761163e-13)
5(-1.43650582e-14 -7.468944188e-14 -1.276136552e-13 -1.26378869e-13 -9.737042182e-14)
5(-2.086390194e-14 -7.702450011e-14 -1.083573716e-13 -8.916221786e-14 -5.782590125e-14)
5(-1.932969161e-14 -6.44321344e-14 -7.467143785e-14 -5.052222868e-14 -2.720282094e-14)
5(-1.10564942e-14 -4.36769989e-14 -4.074624595e-14 -2.227275526e-14 -9.717626908e-15)
5(-1.931919283e-15 -2.313340416e-14 -1.698795667e-14 -7.349000682e-15 -2.550683144e-15)
5(3.083754556e-15 -9.351555705e-15 -5.137607751e-15 -1.743799518e-15 -4.802162237e-16)
5(3.846939136e-15 -2.670663366e-15 -1.069362615e-15 -2.869325733e-16 -6.138393615e-17)
5(2.403127926e-15 -4.73824953e-16 -1.448126558e-16 -2.918244427e-17 -4.627952207e-18)
5(8.121230522e-16 -4.774257034e-17 -1.129542758e-17 -1.76074016e-18 -2.38596298e-19)
5(1.300768346e-16 -2.33720699e-18 -4.376165866e-19 6.976728746e-21 -7.299780781e-21)
5(1.63461088e-17 9.059209361e-18 -1.410365265e-19 9.302825893e-18 -1.228694999e-19)
5(3.910755321e-17 2.152632974e-15 -2.531322446e-17 1.715534795e-15 -2.000583117e-17)
5(1.058664478e-14 8.988329681e-13 -6.891701676e-15 4.715400943e-13 -4.191800787e-15)
5(6.383819486e-12 1.185754063e-10 -8.609896282e-13 8.611802642e-13 -1.558905106e-12)
5(9.714301536e-10 3.706811739e-10 -2.293027427e-10 1.449354497e-13 -2.100415232e-12)
)


60
(
5(-3.174366992e-09 -1.009931275e-09 -1.531469609e-09 -8.1488643e-10 -5.676770761e-10)
5(-5.696174764e-09 -1.978037984e-09 -1.802457948e-09 -8.189946144e-10 -5.959081014e-10)
5(-6.849579259e-09 -2.448113945e-09 -1.897386599e-09 -8.353855025e-10 -5.724427561e-10)
5(-7.159172532e-09 -2.598687755e-09 -1.945042994e-09 -8.579386776e-10 -5.64067228e-10)
5(-7.339321666e-09 -2.657095071e-09 -1.951517187e-09 -8.740903633e-10 -5.594118148e-10)
5(-7.412745265e-09 -2.664291625e-09 -1.907525746e-09 -8.674268658e-10 -5.490265843e-10)
5(-7.137712497e-09 -2.581242912e-09 -1.809125307e-09 -8.261573642e-10 -5.189912538e-10)
5(-6.706876312e-09 -2.415285157e-09 -1.640302702e-09 -7.452263336e-10 -4.589683521e-10)
5(-5.974308967e-09 -2.150837636e-09 -1.391920494e-09 -6.168080023e-10 -3.649765541e-10)
5(-5.004714594e-09 -1.760362804e-09 -1.05174972e-09 -4.42187826e-10 -2.458471212e-10)
5(-3.646968046e-09 -1.220223835e-09 -6.567960522e-10 -2.560715136e-10 -1.332086451e-10)
5(-2.263207381e-09 -6.892448627e-10 -3.344773133e-10 -1.180768849e-10 -5.679281627e-11)
5(-1.207626168e-09 -3.472178068e-10 -1.484243628e-10 -4.836752103e-11 -2.197734979e-11)
5(-6.413870166e-10 -1.770543453e-10 -6.701349607e-11 -2.102113891e-11 -9.294782944e-12)
5(-3.50894231e-10 -9.495491264e-11 -3.329828909e-11 -1.026644725e-11 -4.499645257e-12)
5(-2.010850867e-10 -5.484282606e-11 -1.79187931e-11 -5.431291936e-12 -2.374101195e-12)
5(-1.225716672e-10 -3.367830467e-11 -1.019785312e-11 -3.007912842e-12 -1.312142296e-12)
5(-7.822601947e-11 -2.146113961e-11 -6.023542833e-12 -1.732284069e-12 -7.501204115e-13)
5(-5.077282699e-11 -1.41857448e-11 -3.678663509e-12 -1.030405357e-12 -4.433643029e-13)
5(-3.390088827e-11 -9.695605404e-12 -2.322916744e-12 -6.277859483e-13 -2.689088283e-13)
5(-2.325931876e-11 -6.803661738e-12 -1.501288485e-12 -3.90399258e-13 -1.663185153e-13)
5(-1.609082364e-11 -4.856556924e-12 -9.913428074e-13 -2.473060657e-13 -1.039726325e-13)
5(-1.134915262e-11 -3.576048549e-12 -6.700339104e-13 -1.590390296e-13 -6.628987144e-14)
5(-8.147299593e-12 -2.695146091e-12 -4.617578942e-13 -1.034278363e-13 -4.266599191e-14)
5(-5.745262125e-12 -2.000523154e-12 -3.225588673e-13 -6.764907484e-14 -2.736721967e-14)
5(-4.126958413e-12 -1.5524563e-12 -2.299403043e-13 -4.452404667e-14 -1.766717671e-14)
5(-2.902604279e-12 -1.170582103e-12 -1.633643185e-13 -2.94500661e-14 -1.139781231e-14)
5(-2.013296752e-12 -9.051430819e-13 -1.186670821e-13 -1.938687706e-14 -7.17791597e-15)
5(-1.369059793e-12 -6.972988025e-13 -8.721183076e-14 -1.24689109e-14 -4.21834709e-15)
5(-9.266376759e-13 -5.544051649e-13 -6.347627856e-14 -7.490611449e-15 -1.901167124e-15)
5(-6.09952811e-13 -4.227992362e-13 -4.53175009e-14 -3.594291114e-15 2.902086579e-16)
5(-3.422767079e-13 -3.121707738e-13 -3.184451036e-14 4.878350827e-17 2.7520492e-15)
5(-1.592217957e-13 -2.312543129e-13 -2.021085673e-14 3.981749113e-15 5.819519255e-15)
5(-4.835267662e-14 -1.660619865e-13 -1.006635131e-14 8.819571253e-15 1.007411041e-14)
5(3.038680531e-14 -1.17132424e-13 1.880888762e-16 1.49216072e-14 1.54375261e-14)
5(6.376511689e-14 -7.392994922e-14 1.095387318e-14 2.239280847e-14 2.153394885e-14)
5(1.005823028e-13 -3.581025749e-14 2.206208674e-14 3.064681442e-14 2.721253947e-14)
5(1.108102742e-13 -5.688509725e-15 3.342249667e-14 3.80751257e-14 2.959311714e-14)
5(1.166503981e-13 2.009693872e-14 4.330324044e-14 4.154976155e-14 2.464089927e-14)
5(1.141722634e-13 4.031698323e-14 4.857712829e-14 3.729905897e-14 8.370384079e-15)
5(1.074423923e-13 5.367190917e-14 4.592683728e-14 2.120339742e-14 -2.159088302e-14)
5(9.947212921e-14 5.963331723e-14 3.199965401e-14 -8.604787387e-15 -6.454712376e-14)
5(9.186724915e-14 5.63728774e-14 6.780115286e-15 -5.008874963e-14 -1.11566724e-13)
5(8.232523438e-14 4.427065216e-14 -2.679172446e-14 -9.422022847e-14 -1.465991728e-13)
5(7.447379124e-14 2.712974561e-14 -6.007790083e-14 -1.26091939e-13 -1.568320974e-13)
5(6.984635829e-14 9.641373203e-15 -8.399948767e-14 -1.338258738e-13 -1.387974058e-13)
5(6.667506754e-14 -4.28066447e-15 -8.971614708e-14 -1.150527313e-13 -1.011742475e-13)
5(6.717771381e-14 -1.055921066e-14 -7.671256991e-14 -7.95145524e-14 -5.94839476e-14)
5(6.543811804e-14 -1.03143683e-14 -5.20343305e-14 -4.356819554e-14 -2.739190416e-14)
5(6.224618467e-14 -6.499386299e-15 -2.732271048e-14 -1.84135433e-14 -9.606123666e-15)
5(5.098577844e-14 -2.843076788e-15 -1.081482557e-14 -5.753762969e-15 -2.405336968e-15)
5(3.647688875e-14 -1.805015447e-16 -3.023155917e-15 -1.250304793e-15 -4.164415432e-16)
5(2.064804021e-14 2.016593947e-16 -5.732685256e-16 -1.809603255e-16 -4.905230571e-17)
5(1.0014712e-14 1.711525242e-16 -6.970909265e-17 -1.507457152e-17 -2.998363308e-18)
5(2.994051464e-15 6.302815407e-17 -4.314959586e-18 -6.24158368e-19 -1.185491212e-19)
5(8.910564982e-16 2.139433e-17 -2.410360822e-19 8.533073534e-18 -1.53975856e-19)
5(1.512661956e-16 3.445533834e-15 -1.458586564e-17 1.249451093e-15 -1.948585517e-17)
5(1.39283265e-14 1.240099052e-12 -2.180263018e-15 2.495371899e-13 -3.134278237e-15)
5(6.779327626e-12 -7.014557743e-12 -1.398991127e-12 -1.636568848e-12 -8.635530318e-13)
5(9.683310326e-19 -7.287450491e-10 -2.173806261e-17 -3.359356216e-12 3.927314823e-12)
)


60
(
5(-5.986845386e-09 -1.948880524e-09 -2.530007983e-09 -1.371085793e-09 -9.380960024e-10)
5(-1.193994994e-08 -4.049897057e-09 -3.035679458e-09 -1.412949169e-09 -9.864245425e-10)
5(-1.516550223e-08 -5.175994743e-09 -3.325832012e-09 -1.47335967e-09 -9.787841686e-10)
5(-1.65742755e-08 -5.667622476e-09 -3.480548536e-09 -1.53524759e-09 -9.809932565e-10)
5(-1.752614686e-08 -5.940876189e-09 -3.539977716e-09 -1.580314438e-09 -9.827839676e-10)
5(-1.840475336e-08 -6.160593639e-09 -3.526769439e-09 -1.583284818e-09 -9.735816761e-10)
5(-1.813180513e-08 -6.124080441e-09 -3.402617538e-09 -1.527160836e-09 -9.283641313e-10)
5(-1.750739087e-08 -5.898375582e-09 -3.149754181e-09 -1.399097554e-09 -8.335048762e-10)
5(-1.600935118e-08 -5.38691313e-09 -2.74733624e-09 -1.190255481e-09 -6.814222334e-10)
5(-1.394458528e-08 -4.548719374e-09 -2.151123007e-09 -8.884847996e-10 -4.793444868e-10)
5(-1.063617615e-08 -3.261735073e-09 -1.416684162e-09 -5.431239945e-10 -2.701041656e-10)
5(-6.935168273e-09 -1.976092723e-09 -7.557930062e-10 -2.623575038e-10 -1.213384419e-10)
5(-3.843829372e-09 -1.02116406e-09 -3.440274446e-10 -1.092654365e-10 -4.82716546e-11)
5(-2.034829929e-09 -5.231325356e-10 -1.549514109e-10 -4.632353988e-11 -1.968025643e-11)
5(-1.117580143e-09 -2.845197615e-10 -7.662779044e-11 -2.216859378e-11 -9.421301837e-12)
5(-6.515055317e-10 -1.680315902e-10 -4.159763729e-11 -1.16476075e-11 -4.919691756e-12)
5(-4.03363272e-10 -1.051866398e-10 -2.393497152e-11 -6.479680274e-12 -2.735318835e-12)
5(-2.607731718e-10 -6.970255721e-11 -1.445632834e-11 -3.760412248e-12 -1.568259699e-12)
5(-1.745034964e-10 -4.68573775e-11 -9.072815216e-12 -2.248019099e-12 -9.364666338e-13)
5(-1.18169697e-10 -3.266673361e-11 -5.890524282e-12 -1.386866757e-12 -5.684458301e-13)
5(-8.281066003e-11 -2.357130292e-11 -3.943257778e-12 -8.772309415e-13 -3.579542946e-13)
5(-5.807486295e-11 -1.721081535e-11 -2.708946585e-12 -5.674768484e-13 -2.285091991e-13)
5(-4.205162224e-11 -1.314012803e-11 -1.913772996e-12 -3.758507335e-13 -1.468603529e-13)
5(-3.10798046e-11 -1.000665393e-11 -1.385697894e-12 -2.52504418e-13 -9.585578901e-14)
5(-2.250735242e-11 -7.689742272e-12 -1.019151184e-12 -1.723306329e-13 -6.330449946e-14)
5(-1.640023037e-11 -6.053666454e-12 -7.6080507e-13 -1.200035401e-13 -4.201542647e-14)
5(-1.223119156e-11 -4.855383725e-12 -5.788801549e-13 -8.436241003e-14 -2.783884138e-14)
5(-9.157598654e-12 -3.834250835e-12 -4.469030298e-13 -5.954966829e-14 -1.845164901e-14)
5(-6.376873223e-12 -2.967345712e-12 -3.437084229e-13 -4.210457959e-14 -1.198703603e-14)
5(-4.458664198e-12 -2.361653941e-12 -2.625666336e-13 -2.9761156e-14 -7.061593984e-15)
5(-2.942012121e-12 -1.839331453e-12 -2.038860889e-13 -2.019921436e-14 -3.067981191e-15)
5(-2.003277259e-12 -1.444954056e-12 -1.582775777e-13 -1.209467321e-14 7.399476995e-16)
5(-1.225389694e-12 -1.099301034e-12 -1.164495766e-13 -4.616393967e-15 5.181921521e-15)
5(-5.29362213e-13 -7.992153095e-13 -8.237687123e-14 3.130491855e-15 1.076985519e-14)
5(-1.460714476e-13 -5.898179336e-13 -5.379379934e-14 1.17462455e-14 1.760070143e-14)
5(1.453160596e-13 -3.975020655e-13 -2.829198443e-14 2.193421794e-14 2.608292812e-14)