/*--------------------------------*- C++ -*----------------------------------*\
| =========                 |                                                 |
| \\      /  F ield         | OpenFOAM: The Open Source CFD Toolbox           |
|  \\    /   O peration     | Version:  2.3.1                                 |
|   \\  /    A nd           | Web:      www.OpenFOAM.org                      |
|    \\/     M anipulation  |                                                 |
\*---------------------------------------------------------------------------*/
FoamFile
{
    version     2.0;
    format      ascii;
    class       dictionary;
    location    "constant";
    object      PM65;
}
// * * * * * * * * * * * * * * * * * * * * * * * * * * * * * * * * * * * * * //

PM65_table
60
(

60
(
5(1.186039256e-09 2.264317683e-10 6.154722778e-10 1.448848622e-10 2.114169936e-10)
5(5.806260273e-10 5.866728385e-11 1.108305372e-10 5.323203427e-11 1.940390297e-10)
5(2.322743127e-11 1.520666933e-10 8.347210342e-11 2.472368265e-11 9.899196562e-12)
5(6.632830688e-11 1.456418589e-10 9.36420517e-11 3.541849301e-11 9.702651012e-11)
5(1.262306031e-10 9.551276968e-11 5.400930087e-11 4.6593373e-11 2.00240456e-11)
5(1.40765488e-10 5.312406592e-11 2.833342099e-11 3.060723699e-11 1.981828437e-11)
5(8.033526426e-11 4.128220273e-11 4.321465389e-11 2.36907989e-11 2.45066344e-11)
5(5.372356618e-11 3.889956818e-11 3.77013204e-11 1.763440268e-11 7.511072151e-12)
5(5.378709752e-11 2.805128465e-11 2.298717006e-11 1.174684313e-11 9.702364761e-12)
5(3.363396237e-11 1.784731309e-11 1.566827321e-11 5.79833753e-12 4.711563267e-12)
5(2.164790028e-11 8.989093168e-12 6.793918232e-12 2.628557092e-12 1.774021759e-12)
5(1.131749027e-11 4.357544681e-12 2.782469149e-12 1.140075168e-12 6.162571038e-13)
5(5.892885154e-12 2.122704696e-12 1.349173542e-12 5.097158496e-13 2.763052477e-13)
5(3.17013563e-12 1.098100852e-12 6.516152515e-13 2.307742405e-13 1.209233168e-13)
5(1.662804532e-12 5.471835116e-13 3.403308196e-13 1.257446329e-13 5.926625054e-14)
5(9.580195996e-13 2.160528655e-13 2.132544976e-13 6.551029243e-14 3.186268961e-14)
5(5.759389535e-13 1.688654929e-13 1.244660171e-13 3.869513574e-14 1.756423432e-14)
5(3.656338397e-13 1.161556637e-13 7.561573406e-14 2.227750304e-14 9.237225243e-15)
5(2.448884011e-13 9.081140862e-14 4.275260558e-14 1.2805213e-14 5.063491037e-15)
5(1.721786557e-13 6.283359888e-14 2.409003777e-14 7.769720585e-15 2.823603909e-15)
5(1.12873132e-13 3.414540796e-14 1.456769168e-14 4.405089232e-15 1.624442132e-15)
5(7.858237922e-14 2.265933732e-14 9.121162408e-15 2.542872443e-15 9.605157078e-16)
5(5.567431322e-14 1.523889964e-14 5.768231217e-15 1.70564065e-15 6.154054694e-16)
5(3.771352726e-14 1.026879481e-14 3.676440557e-15 1.068703132e-15 3.928805535e-16)
5(2.644061875e-14 6.768548873e-15 2.447737801e-15 7.412430581e-16 2.908327102e-16)
5(1.816369581e-14 4.513565344e-15 1.651830824e-15 5.636169523e-16 2.525189374e-16)
5(1.243876247e-14 3.074918032e-15 1.172045741e-15 5.144646689e-16 2.834864697e-16)
5(8.817898e-15 2.29219512e-15 1.015662372e-15 5.864603572e-16 3.861599729e-16)
5(6.446605912e-15 1.92930674e-15 1.052877893e-15 8.063251157e-16 6.028889608e-16)
5(4.904214831e-15 2.016564822e-15 1.396370983e-15 1.258151273e-15 1.001059694e-15)
5(4.239622509e-15 2.591346921e-15 2.173045356e-15 2.130040459e-15 1.647025028e-15)
5(4.352188038e-15 3.82452279e-15 3.481842965e-15 3.42842697e-15 2.672127684e-15)
5(5.518424912e-15 6.221858893e-15 5.985192551e-15 5.966795617e-15 4.939841599e-15)
5(8.130321521e-15 1.03453044e-14 1.006781762e-14 9.536725088e-15 6.945031719e-15)
5(1.281564457e-14 1.694422184e-14 1.655135896e-14 1.534563981e-14 1.131197897e-14)
5(2.071025264e-14 2.773228834e-14 2.654998788e-14 2.283692022e-14 1.649261704e-14)
5(3.274105805e-14 4.11822612e-14 3.672660938e-14 3.248257314e-14 2.085131073e-14)
5(5.09092976e-14 6.262274793e-14 5.464596689e-14 4.234370465e-14 2.19160753e-14)
5(7.58176428e-14 8.677926448e-14 7.453794922e-14 5.327204117e-14 2.471834746e-14)
5(1.069175667e-13 1.133957859e-13 9.143013777e-14 5.037578715e-14 9.703806104e-15)
5(1.36674246e-13 1.316782156e-13 9.477418708e-14 4.436913406e-14 1.326346786e-14)
5(1.633115398e-13 1.422572546e-13 8.853196937e-14 2.473897953e-14 1.228737804e-14)
5(1.779051437e-13 1.364997577e-13 7.340285317e-14 1.494684473e-14 1.163528508e-14)
5(1.77812841e-13 1.249444422e-13 6.473975183e-14 1.380360552e-14 6.503833318e-15)
5(1.51901114e-13 9.136350429e-14 3.587133875e-14 7.922253831e-15 2.714543197e-15)
5(1.131376046e-13 5.778949326e-14 1.382074686e-14 3.708175516e-15 8.959292821e-16)
5(7.03679438e-14 2.384190581e-14 3.5661681e-15 1.521105695e-15 2.197158637e-16)
5(3.454625585e-14 8.914534715e-15 1.646954061e-15 4.134307648e-16 3.884139831e-17)
5(1.549172079e-14 2.498061082e-15 4.701623689e-16 7.695498919e-17 4.974343845e-18)
5(3.847708704e-15 3.516439662e-16 1.068201559e-16 9.772331346e-18 4.894650543e-19)
5(6.973560959e-16 9.463826332e-17 1.301992823e-17 9.253521194e-19 3.78601014e-20)
5(8.214270437e-17 1.300051324e-17 1.077234136e-18 6.430901599e-20 2.287771215e-21)
5(1.187869925e-17 9.912738139e-19 6.269427979e-20 3.36295913e-21 1.05450994e-22)
5(6.546185415e-19 3.877735608e-20 2.189217492e-21 1.263106165e-22 4.070271415e-24)
5(1.724566809e-20 9.92339559e-22 5.089016732e-23 6.877568811e-24 1.351573878e-25)
5(1.661351369e-22 -9.726094495e-22 1.082739918e-24 1.130773139e-21 7.491302682e-27)
5(8.29941848e-25 -1.094736798e-19 -3.991399558e-23 3.372195701e-19 5.138396082e-28)
5(2.919995556e-27 7.105368914e-18 -3.160178217e-22 8.916659394e-17 1.914121588e-29)
5(1.104608306e-29 -3.6161801e-16 -9.235085973e-19 -9.829195275e-17 1.895326477e-31)
5(1.7819868e-34 8.034861897e-34 1.156303979e-33 1.322088767e-32 4.562772403e-32)
)


60
(
5(2.794787294e-09 7.533145981e-10 1.184084101e-09 4.183003757e-10 2.950176072e-10)
5(1.254712517e-09 3.926490838e-10 4.553497678e-10 2.307878783e-10 1.239039953e-10)
5(4.52495439e-10 4.758872351e-10 3.193369038e-10 1.666206712e-10 5.397886247e-11)
5(2.88984793e-10 4.774877067e-10 3.512854319e-10 1.326011489e-10 1.273246775e-10)
5(3.77402881e-10 4.152271885e-10 3.276348478e-10 1.525979731e-10 9.717719717e-11)
5(5.872765317e-10 3.511267098e-10 2.160318457e-10 1.372410295e-10 7.709949541e-11)
5(5.987063737e-10 2.916257291e-10 1.92541443e-10 1.059445062e-10 7.553789909e-11)
5(4.135992554e-10 2.38213775e-10 1.773090822e-10 8.635889194e-11 4.592320038e-11)
5(3.745821792e-10 1.824396337e-10 1.248337183e-10 6.091203162e-11 3.524222342e-11)
5(2.68485644e-10 1.217749632e-10 8.558352546e-11 3.477699141e-11 2.042987132e-11)
5(1.767269345e-10 6.681258804e-11 4.445775523e-11 1.639880243e-11 9.308147689e-12)
5(9.704263929e-11 3.298730551e-11 1.951669929e-11 6.862818459e-12 3.507966956e-12)
5(4.872927016e-11 1.639255547e-11 8.745910373e-12 3.038500207e-12 1.416960458e-12)
5(2.768889122e-11 8.650273407e-12 4.301676841e-12 1.421120759e-12 6.320008209e-13)
5(1.507705285e-11 4.77224526e-12 2.227629945e-12 7.392341691e-13 3.072975217e-13)
5(9.199981826e-12 2.711919659e-12 1.244702444e-12 3.984373328e-13 1.59435651e-13)
5(5.678896769e-12 1.634114676e-12 7.136030796e-13 2.232382039e-13 8.649929268e-14)
5(3.666441425e-12 1.017789801e-12 4.246662358e-13 1.301470912e-13 4.84401039e-14)
5(2.425668497e-12 6.598842737e-13 2.576682179e-13 7.696284592e-14 2.773506104e-14)
5(1.657582656e-12 4.446969142e-13 1.613181919e-13 4.721194265e-14 1.616417887e-14)
5(1.169353122e-12 2.899208512e-13 1.002679908e-13 2.882217239e-14 9.57824556e-15)
5(7.990060766e-13 1.923007051e-13 6.400722149e-14 1.73118957e-14 5.696267156e-15)
5(5.836823464e-13 1.296287168e-13 4.076205884e-14 1.095062287e-14 3.555267518e-15)
5(4.077415201e-13 8.788073887e-14 2.612006482e-14 6.886811052e-15 2.223547564e-15)
5(2.993494067e-13 5.917214677e-14 1.687314584e-14 4.4524311e-15 1.470111697e-15)
5(2.131999852e-13 3.971521849e-14 1.105706581e-14 2.955513302e-15 1.040628721e-15)
5(1.54240245e-13 2.663885024e-14 7.129949329e-15 2.079022942e-15 8.376566346e-16)
5(1.142038545e-13 1.796435608e-14 4.844117713e-15 1.632520337e-15 8.095122436e-16)
5(8.191596543e-14 1.241553084e-14 3.481104576e-15 1.519457355e-15 9.461893919e-16)
5(6.008235076e-14 8.931827938e-15 2.847016223e-15 1.698845434e-15 1.295828164e-15)
5(4.395393402e-14 6.896024667e-15 2.872466667e-15 2.353734692e-15 1.977468253e-15)
5(3.25196453e-14 6.127721162e-15 3.465598425e-15 3.489971071e-15 3.03636145e-15)
5(2.427513322e-14 6.669646088e-15 5.053793787e-15 5.729067396e-15 5.493433826e-15)
5(1.945869448e-14 8.723112338e-15 8.238196188e-15 9.611163415e-15 8.956356707e-15)
5(1.748643107e-14 1.29947882e-14 1.376022389e-14 1.634272096e-14 1.522318418e-14)
5(1.961774438e-14 2.135542827e-14 2.436573436e-14 2.740830483e-14 2.509324735e-14)
5(2.582258011e-14 3.410786974e-14 3.814952736e-14 4.277396512e-14 3.928360712e-14)
5(3.869167235e-14 5.640617271e-14 6.123143409e-14 6.5655125e-14 5.219880226e-14)
5(6.239771669e-14 8.791368481e-14 9.371820669e-14 9.158139081e-14 7.546143739e-14)
5(9.930458873e-14 1.30525929e-13 1.342817262e-13 1.196208969e-13 7.216165016e-14)
5(1.482963886e-13 1.77028146e-13 1.683194315e-13 1.378288459e-13 7.879598256e-14)
5(2.046934775e-13 2.228333255e-13 1.941195745e-13 1.318629003e-13 7.43137333e-14)
5(2.600864879e-13 2.508230674e-13 1.98259302e-13 1.026260571e-13 6.065822294e-14)
5(2.983850212e-13 2.58330346e-13 1.901443304e-13 8.188976532e-14 4.228728523e-14)
5(3.050010219e-13 2.299791161e-13 1.446118395e-13 5.501685906e-14 2.401765952e-14)
5(2.691407046e-13 1.784915541e-13 9.171665434e-14 3.08995269e-14 1.096528967e-14)
5(2.053886055e-13 1.144906357e-13 4.22292637e-14 1.396741835e-14 3.957028129e-15)
5(1.306728405e-13 5.820228084e-14 1.749187815e-14 4.942734608e-15 1.073439812e-15)
5(6.905863797e-14 2.500510658e-14 5.900009234e-15 1.338265683e-15 2.182536406e-16)
5(2.84508075e-14 6.883360679e-15 1.488475641e-15 2.606613838e-16 3.204596732e-17)
5(8.679875231e-15 1.628200686e-15 2.662408361e-16 3.663849989e-17 3.263680412e-18)
5(1.583732189e-15 2.608757392e-16 3.112703239e-17 3.407218531e-18 2.627614477e-19)
5(2.061736379e-16 2.684807765e-17 2.324738669e-18 2.15628771e-19 1.407979637e-20)
5(1.69030944e-17 1.530919023e-18 9.817423287e-20 8.11161704e-21 5.375906005e-22)
5(7.108418963e-19 4.41236054e-20 2.434079082e-21 -4.474707812e-23 1.673205377e-23)
5(1.338270089e-20 -5.286290245e-20 -5.35445503e-24 -5.364644702e-20 1.706159151e-22)
5(1.375800942e-20 -1.909996364e-17 2.085778809e-20 -1.094642269e-17 4.126289394e-20)
5(2.135615375e-19 -6.946690716e-15 1.181331499e-17 -3.260109372e-15 7.722214867e-18)
5(-7.913535278e-17 -3.8471965e-12 -1.736093899e-17 -1.041008968e-12 -6.701276353e-18)
5(-2.951739405e-30 1.187269946e-16 2.460078713e-19 4.568901307e-17 5.755692342e-32)
)


60
(
5(9.844414324e-09 3.219716782e-09 3.496382363e-09 1.314503721e-09 7.280252522e-10)
5(6.923406756e-09 3.318925214e-09 2.100931193e-09 9.948856206e-10 4.345168466e-10)
5(5.848061303e-09 3.247840054e-09 1.731237988e-09 8.860077852e-10 3.670482363e-10)
5(5.493537846e-09 3.104692466e-09 1.687713928e-09 8.515089343e-10 3.642398493e-10)
5(5.481900155e-09 2.941948991e-09 1.723772786e-09 8.292731196e-10 3.785755487e-10)
5(5.428252999e-09 2.734852281e-09 1.672533518e-09 7.718013824e-10 3.671592196e-10)
5(5.035518832e-09 2.414234047e-09 1.471689574e-09 6.714182355e-10 3.168911961e-10)
5(4.380097261e-09 2.020875153e-09 1.200887365e-09 5.350209868e-10 2.466853874e-10)
5(3.63990346e-09 1.547607338e-09 8.857615647e-10 3.739449639e-10 1.696812279e-10)
5(2.733131794e-09 1.017514357e-09 5.689597415e-10 2.191354767e-10 9.641703494e-11)
5(1.743064542e-09 5.692965779e-10 3.036589867e-10 1.030424567e-10 4.345974386e-11)
5(9.948215257e-10 2.793178624e-10 1.378102901e-10 4.235912615e-11 1.650682465e-11)
5(5.271848868e-10 1.369786856e-10 6.147676362e-11 1.809455487e-11 6.456095018e-12)
5(2.876246681e-10 7.184382181e-11 2.988874682e-11 8.64719816e-12 2.959413097e-12)
5(1.630353901e-10 4.020019435e-11 1.570245384e-11 4.483976259e-12 1.470954086e-12)
5(9.98307782e-11 2.358900699e-11 8.719270836e-12 2.449225592e-12 7.811137053e-13)
5(6.399318884e-11 1.432595205e-11 5.044596697e-12 1.386193958e-12 4.291170089e-13)
5(4.158586106e-11 8.982419703e-12 3.013637235e-12 8.113511903e-13 2.462500918e-13)
5(2.851440336e-11 5.755483093e-12 1.844112974e-12 4.863711103e-13 1.44696497e-13)
5(1.983236624e-11 3.780282591e-12 1.152769223e-12 2.982004607e-13 8.675521327e-14)
5(1.417077346e-11 2.528024197e-12 7.292852301e-13 1.852028932e-13 5.321107862e-14)
5(1.025958986e-11 1.699219101e-12 4.685530523e-13 1.167263273e-13 3.305543945e-14)
5(7.583844545e-12 1.161935876e-12 3.034703725e-13 7.386545319e-14 2.101892228e-14)
5(5.593120537e-12 8.020956204e-13 1.978310586e-13 4.720102282e-14 1.359375756e-14)
5(4.188386004e-12 5.581343549e-13 1.289401465e-13 3.060632227e-14 8.97781839e-15)
5(3.21302701e-12 3.883507694e-13 8.456182618e-14 2.020013496e-14 6.296059581e-15)
5(2.450869593e-12 2.73013143e-13 5.583161319e-14 1.37559873e-14 4.83360013e-15)
5(1.919740596e-12 1.930573997e-13 3.754472244e-14 1.000146354e-14 4.151566493e-15)
5(1.458629402e-12 1.372473251e-13 2.609558189e-14 8.101694426e-15 4.214158039e-15)
5(1.1124355e-12 9.941763771e-14 1.930838077e-14 7.557972398e-15 4.85424225e-15)
5(8.575664203e-13 7.338720909e-14 1.590687219e-14 8.254797044e-15 6.410333283e-15)
5(6.5249273e-13 5.636659609e-14 1.51134292e-14 1.031148086e-14 9.102660626e-15)
5(4.874207312e-13 4.57645895e-14 1.653802536e-14 1.422470076e-14 1.372053269e-14)
5(3.713877877e-13 4.03161291e-14 2.061447898e-14 2.087873199e-14 2.132386199e-14)
5(2.723242522e-13 4.01148244e-14 2.840364199e-14 3.203758658e-14 3.416961984e-14)
5(2.058072767e-13 4.537034627e-14 4.183570666e-14 5.013330763e-14 5.321674428e-14)
5(1.614985747e-13 5.84222993e-14 6.417358568e-14 7.788998948e-14 8.20759326e-14)
5(1.357385266e-13 8.274944221e-14 9.885234957e-14 1.183118409e-13 1.211638833e-13)
5(1.35103234e-13 1.223438895e-13 1.496450913e-13 1.720494334e-13 1.669642722e-13)
5(1.57184871e-13 1.812102026e-13 2.170151563e-13 2.347683105e-13 2.124024147e-13)
5(2.063495181e-13 2.596993361e-13 2.952568861e-13 2.959034202e-13 2.43112315e-13)
5(2.84298751e-13 3.50890264e-13 3.712098333e-13 3.37852152e-13 2.495672949e-13)
5(3.822913524e-13 4.373451804e-13 4.235359421e-13 3.435920389e-13 2.255218694e-13)
5(4.804840488e-13 4.946584972e-13 4.314910624e-13 3.063148947e-13 1.781098958e-13)
5(5.527826159e-13 5.005146104e-13 3.848601463e-13 2.362447309e-13 1.200179907e-13)
5(5.68446479e-13 4.448118011e-13 2.94550941e-13 1.550125893e-13 6.705955893e-14)
5(5.131934867e-13 3.408173034e-13 1.888194853e-13 8.501303358e-14 3.07313777e-14)
5(4.00541681e-13 2.190894181e-13 9.985536728e-14 3.768860802e-14 1.107528324e-14)
5(2.624117377e-13 1.148081036e-13 4.192776741e-14 1.314253005e-14 3.10178038e-15)
5(1.410124493e-13 4.743144941e-14 1.332326451e-14 3.433482613e-15 6.44278859e-16)
5(6.012462419e-14 1.470054857e-14 3.150770021e-15 6.621384699e-16 9.522811456e-17)
5(1.898061252e-14 3.162105605e-15 5.167658605e-16 8.44531001e-17 9.191107041e-18)
5(3.929637822e-15 4.528521936e-16 5.319382591e-17 7.069730796e-18 6.492072672e-19)
5(5.099260023e-16 3.791836595e-17 3.027535745e-18 3.570578582e-19 2.813371187e-20)
5(3.587242594e-17 1.571337311e-18 8.357589743e-20 1.93628841e-20 7.837991308e-22)
5(8.810103649e-19 2.35221431e-18 -1.08219795e-20 1.798256721e-18 3.195915652e-21)
5(-8.302552907e-18 3.986835882e-16 -1.996021827e-18 3.713770862e-16 8.526972337e-19)
5(-2.581042706e-15 3.225257641e-14 -1.426690631e-16 8.369557512e-14 2.853204008e-16)
5(-1.475547078e-12 2.540200366e-11 4.625027437e-14 1.330539495e-11 1.277372636e-13)
5(2.593608761e-28 2.404357211e-09 2.73045684e-17 1.820683108e-11 -1.005001321e-32)
)


60
(
5(2.470705895e-08 8.256472928e-09 7.451250567e-09 2.860682789e-09 1.405059416e-09)
5(2.10131576e-08 9.297573816e-09 5.356198187e-09 2.417672812e-09 9.771715399e-10)
5(1.956646753e-08 9.471843177e-09 4.807577844e-09 2.262772387e-09 8.819529585e-10)
5(1.906478889e-08 9.315105136e-09 4.758674772e-09 2.21221023e-09 8.805176649e-10)
5(1.935971315e-08 8.99100208e-09 4.808898818e-09 2.161977999e-09 9.010117971e-10)
5(1.935637515e-08 8.412478622e-09 4.638206764e-09 2.024423534e-09 8.694568286e-10)
5(1.847603533e-08 7.567076521e-09 4.138994792e-09 1.779560987e-09 7.602013193e-10)
5(1.652025936e-08 6.443242218e-09 3.431162972e-09 1.43725361e-09 6.027197439e-10)
5(1.394634788e-08 5.064430661e-09 2.60191387e-09 1.039224305e-09 4.253132544e-10)
5(1.085623542e-08 3.521705257e-09 1.718081718e-09 6.33359747e-10 2.549850332e-10)
5(7.237266944e-09 2.012379972e-09 9.406746878e-10 3.10690897e-10 1.175911995e-10)
5(4.146437413e-09 1.004366206e-09 4.303904757e-10 1.280013264e-10 4.556501578e-11)
5(2.231001794e-09 4.836664216e-10 1.887026785e-10 5.307678767e-11 1.746844209e-11)
5(1.253904501e-09 2.488173274e-10 8.97663356e-11 2.478236297e-11 7.815972642e-12)
5(7.178782292e-10 1.381960267e-10 4.682845401e-11 1.275043495e-11 3.952204354e-12)
5(4.388459907e-10 8.096218461e-11 2.600673679e-11 6.949618202e-12 2.117590188e-12)
5(2.861046863e-10 4.956305575e-11 1.49866156e-11 3.952496761e-12 1.170954436e-12)
5(1.914782573e-10 3.126821211e-11 8.934147194e-12 2.330029409e-12 6.807047543e-13)
5(1.328644381e-10 2.031431341e-11 5.502592271e-12 1.402694761e-12 4.047410095e-13)
5(9.511418725e-11 1.35685063e-11 3.457442593e-12 8.665762852e-13 2.484652958e-13)
5(6.939485759e-11 9.271066038e-12 2.214139776e-12 5.437837202e-13 1.53925909e-13)
5(5.163952675e-11 6.436365034e-12 1.44106617e-12 3.469974492e-13 9.842846854e-14)
5(3.949409851e-11 4.568177417e-12 9.540189686e-13 2.244472306e-13 6.375182558e-14)
5(3.089615878e-11 3.285690628e-12 6.370718474e-13 1.46349249e-13 4.162189173e-14)
5(2.368105732e-11 2.399976537e-12 4.283781552e-13 9.632065361e-14 2.799546453e-14)
5(1.899974187e-11 1.790962769e-12 2.913728639e-13 6.442079635e-14 1.958815081e-14)
5(1.477180188e-11 1.321432852e-12 2.011960328e-13 4.405688329e-14 1.434434833e-14)
5(1.182089594e-11 9.989547388e-13 1.410909448e-13 3.141268791e-14 1.146353731e-14)
5(9.419175908e-12 7.673622612e-13 1.005769255e-13 2.376777088e-14 1.02123009e-14)
5(7.678128098e-12 5.876420914e-13 7.425492955e-14 1.974707616e-14 1.020301755e-14)
5(6.071531319e-12 4.481439188e-13 5.78477616e-14 1.828688342e-14 1.144180427e-14)
5(4.692735862e-12 3.481298672e-13 4.787313662e-14 1.904574998e-14 1.416375728e-14)
5(3.625997587e-12 2.699344829e-13 4.258314285e-14 2.187508873e-14 1.835630254e-14)
5(2.775100504e-12 2.140358353e-13 4.130635129e-14 2.736314182e-14 2.541436693e-14)
5(2.130978457e-12 1.708608679e-13 4.408911964e-14 3.653636921e-14 3.717852124e-14)
5(1.585917998e-12 1.398451545e-13 5.204977844e-14 5.14452987e-14 5.544334871e-14)
5(1.134029468e-12 1.243393598e-13 6.757207531e-14 7.548919082e-14 8.416866623e-14)
5(8.046281483e-13 1.216137892e-13 9.460691213e-14 1.130569378e-13 1.272557419e-13)
5(5.601821193e-13 1.348395026e-13 1.385623718e-13 1.67770943e-13 1.839478972e-13)
5(4.09343421e-13 1.727626812e-13 2.031711135e-13 2.404078457e-13 2.497936769e-13)
5(3.380950882e-13 2.388867231e-13 2.903086139e-13 3.252332771e-13 3.127820325e-13)
5(3.335957677e-13 3.330114559e-13 3.91898315e-13 4.05862295e-13 3.565101334e-13)
5(3.934334601e-13 4.465908693e-13 4.888539845e-13 4.580704872e-13 3.616053603e-13)
5(5.001489471e-13 5.560240904e-13 5.527804363e-13 4.611880725e-13 3.256052141e-13)
5(6.179090374e-13 6.291406887e-13 5.541578455e-13 4.075751181e-13 2.551869925e-13)
5(7.097441526e-13 6.375340807e-13 4.873607012e-13 3.119166364e-13 1.709606653e-13)
5(7.401736685e-13 5.660482769e-13 3.661726497e-13 2.037436648e-13 9.503862771e-14)
5(6.811649929e-13 4.335260676e-13 2.299560817e-13 1.101615911e-13 4.30351332e-14)
5(5.43576732e-13 2.78253653e-13 1.182836967e-13 4.791193609e-14 1.53496303e-14)
5(3.702706707e-13 1.45768141e-13 4.803790032e-14 1.640707869e-14 4.126822575e-15)
5(2.080342929e-13 5.967772399e-14 1.47305824e-14 4.14931141e-15 8.240851797e-16)
5(9.444386592e-14 1.791867659e-14 3.219208005e-15 7.476653994e-16 1.304109224e-16)
5(3.338081011e-14 3.955314681e-15 4.669712875e-16 8.488838045e-17 9.974351081e-18)
5(8.08053274e-15 5.700675359e-16 3.934518903e-17 5.800421323e-18 7.063732028e-19)
5(1.07795418e-15 4.236311098e-17 1.733297654e-18 1.776260758e-19 2.208567319e-20)
5(1.123611134e-16 1.800935774e-17 -1.866086296e-20 -2.172205594e-18 -9.494413578e-20)
5(9.972480863e-17 5.436135549e-15 -2.052487538e-17 -6.923230074e-17 -1.814463716e-17)
5(2.843207897e-14 3.078125615e-12 -1.164090207e-14 2.345505546e-13 -4.763884434e-15)
5(1.731288028e-11 4.630785382e-10 -2.047841291e-12 8.725615439e-12 -2.392508899e-12)
5(2.19041248e-09 1.131953019e-09 -8.000219622e-10 8.140009451e-13 -9.210560255e-12)
)


60
(
5(5.250401036e-08 1.704264879e-08 1.336328642e-08 5.209771054e-09 2.383332493e-09)
5(5.13039311e-08 2.029518915e-08 1.071271942e-08 4.687317985e-09 1.826990286e-09)
5(5.068446844e-08 2.128337086e-08 1.00981569e-08 4.523867701e-09 1.715925973e-09)
5(5.108568637e-08 2.12103013e-08 1.011959198e-08 4.472935931e-09 1.734630222e-09)
5(5.316449381e-08 2.074190573e-08 1.018368718e-08 4.382844195e-09 1.762106954e-09)
5(5.475598559e-08 1.985334853e-08 9.801166712e-09 4.127156711e-09 1.697666764e-09)
5(5.263253413e-08 1.820068901e-08 8.87714158e-09 3.665994275e-09 1.497090786e-09)
5(4.869187407e-08 1.579312574e-08 7.499558051e-09 3.025113736e-09 1.216417248e-09)
5(4.203496469e-08 1.272075046e-08 5.844310681e-09 2.255316169e-09 8.883128099e-10)
5(3.376797993e-08 9.080356574e-09 3.984937143e-09 1.441263645e-09 5.484116161e-10)
5(2.332810822e-08 5.506283893e-09 2.257897698e-09 7.408423346e-10 2.708616258e-10)
5(1.420703481e-08 2.818755749e-09 1.060073895e-09 3.142342485e-10 1.089778242e-10)
5(7.643702812e-09 1.355225913e-09 4.59756942e-10 1.269660521e-10 4.067853177e-11)
5(4.255279103e-09 6.921201241e-10 2.138570536e-10 5.755940839e-11 1.772801101e-11)
5(2.479235779e-09 3.841284053e-10 1.104322419e-10 2.929347934e-11 8.838784245e-12)
5(1.548347242e-09 2.272662055e-10 6.124907338e-11 1.596232581e-11 4.785149052e-12)
5(1.017517478e-09 1.403372253e-10 3.559641218e-11 9.107543779e-12 2.679608736e-12)
5(7.112882253e-10 9.058206705e-11 2.148430567e-11 5.372332097e-12 1.573778233e-12)
5(4.959986846e-10 6.029792975e-11 1.335267645e-11 3.270437581e-12 9.442544596e-13)
5(3.592971249e-10 4.143444371e-11 8.55111694e-12 2.040083872e-12 5.933120334e-13)
5(2.687654765e-10 2.92302523e-11 5.607681914e-12 1.300373637e-12 3.741182859e-13)
5(2.030971964e-10 2.110381886e-11 3.752534881e-12 8.450469441e-13 2.396027497e-13)
5(1.607165761e-10 1.561854509e-11 2.574022029e-12 5.562276862e-13 1.573517072e-13)
5(1.264259653e-10 1.18125359e-11 1.794346363e-12 3.709564461e-13 1.053959112e-13)
5(1.001408209e-10 9.066884408e-12 1.272653645e-12 2.515333896e-13 7.216159923e-14)
5(8.132332859e-11 7.027709566e-12 9.224909135e-13 1.727122432e-13 5.065103142e-14)
5(6.733189637e-11 5.548860188e-12 6.793930764e-13 1.208247696e-13 3.693782275e-14)
5(5.476101213e-11 4.426683445e-12 5.051115882e-13 8.741579898e-14 2.877458686e-14)
5(4.36310133e-11 3.531813267e-12 3.808255282e-13 6.56396836e-14 2.376550028e-14)
5(3.589603013e-11 2.790298577e-12 2.952196848e-13 5.186131442e-14 2.1633609e-14)
5(2.910550599e-11 2.253589697e-12 2.341673749e-13 4.417863213e-14 2.16139809e-14)
5(2.359780745e-11 1.828476924e-12 1.86964653e-13 4.053273093e-14 2.335595974e-14)
5(1.871166023e-11 1.433033498e-12 1.536534406e-13 4.018986937e-14 2.675072732e-14)
5(1.436422713e-11 1.126950592e-12 1.299406459e-13 4.284453016e-14 3.342246221e-14)
5(1.122197345e-11 8.76273465e-13 1.147211545e-13 4.866396358e-14 4.237811208e-14)
5(8.310800256e-12 6.817827396e-13 1.061445889e-13 5.912002429e-14 5.818095088e-14)
5(6.23743725e-12 5.292551999e-13 1.045076957e-13 7.702731263e-14 8.252021531e-14)
5(4.387104777e-12 4.046915416e-13 1.148195086e-13 1.061224098e-13 1.208011527e-13)
5(3.04957872e-12 3.202519667e-13 1.405158317e-13 1.523143515e-13 1.783464165e-13)
5(2.026718583e-12 2.794941242e-13 1.883428485e-13 2.208241894e-13 2.531365743e-13)
5(1.312801935e-12 2.809526725e-13 2.64947798e-13 3.117919082e-13 3.362869612e-13)
5(8.69352321e-13 3.325462327e-13 3.703120872e-13 4.158413932e-13 4.169293849e-13)
5(6.576540331e-13 4.29722825e-13 4.936773363e-13 5.116694705e-13 4.652639323e-13)
5(6.023597274e-13 5.569413535e-13 6.086130344e-13 5.702046934e-13 4.661508458e-13)
5(6.665176374e-13 6.87302897e-13 6.781616532e-13 5.658346794e-13 4.130805233e-13)
5(7.864930857e-13 7.787552633e-13 6.726675036e-13 4.928265555e-13 3.180671317e-13)
5(8.86733019e-13 7.899004255e-13 5.822113363e-13 3.708491088e-13 2.067626934e-13)
5(9.33003096e-13 7.050268831e-13 4.295557299e-13 2.373568205e-13 1.132907274e-13)
5(8.744691605e-13 5.44161073e-13 2.664792553e-13 1.251274578e-13 4.954070533e-14)
5(7.22528763e-13 3.550675879e-13 1.346054938e-13 5.238601376e-14 1.691518014e-14)
5(5.096885595e-13 1.896770328e-13 5.317145817e-14 1.693343834e-14 4.388215695e-15)
5(3.059920096e-13 8.235477479e-14 1.570910587e-14 3.989811614e-15 8.103474757e-16)
5(1.471062683e-13 2.577865958e-14 3.345849679e-15 6.177851861e-16 1.004152673e-16)
5(5.986819896e-14 5.940016761e-15 4.304377718e-16 6.346780491e-17 8.650918691e-18)
5(1.584048872e-14 9.356662244e-16 3.057044277e-17 3.267462338e-18 3.375139663e-19)
5(4.167041759e-15 1.226342682e-16 5.595024664e-19 5.290150101e-18 -1.550374495e-19)
5(5.612503359e-16 1.132710684e-14 -3.130339294e-17 1.374049239e-15 -2.388203615e-17)
5(3.6805078e-14 4.428960486e-12 -4.874548692e-15 4.925360919e-13 -4.778295788e-15)
5(1.712801873e-11 -2.837947951e-11 -3.538011875e-12 -1.339222148e-11 -1.73733008e-12)
5(2.750831826e-18 -2.36002166e-09 -7.201758536e-17 -1.810625117e-11 2.885809232e-11)
)


60
(
5(1.013530109e-07 3.088664132e-08 2.16531268e-08 8.509807592e-09 3.75998006e-09)
5(1.105213332e-07 3.885516348e-08 1.86889241e-08 7.967618789e-09 3.077473881e-09)
5(1.148219496e-07 4.167744915e-08 1.818959384e-08 7.859722171e-09 2.970720208e-09)
5(1.205501588e-07 4.216800553e-08 1.843844902e-08 7.835702377e-09 3.021108317e-09)
5(1.285594177e-07 4.189138627e-08 1.85614275e-08 7.708552309e-09 3.076163059e-09)
5(1.353380004e-07 4.098316422e-08 1.797851397e-08 7.302398933e-09 2.977425738e-09)
5(1.324240715e-07 3.83495067e-08 1.650801245e-08 6.571618583e-09 2.642745633e-09)
5(1.25693171e-07 3.427437129e-08 1.419832787e-08 5.528392386e-09 2.204855482e-09)
5(1.107961754e-07 2.842978325e-08 1.133457213e-08 4.250506149e-09 1.654448425e-09)
5(9.220167785e-08 2.11432384e-08 8.00442818e-09 2.829017114e-09 1.064517932e-09)
5(6.741082039e-08 1.342575744e-08 4.764904281e-09 1.548278347e-09 5.531863916e-10)
5(4.255169042e-08 7.198457546e-09 2.329728849e-09 6.805816519e-10 2.296405477e-10)
5(2.317341391e-08 3.524471881e-09 1.01694097e-09 2.736281376e-10 8.931329913e-11)
5(1.277433678e-08 1.779417353e-09 4.655466412e-10 1.206495008e-10 3.66718555e-11)
5(7.52984232e-09 9.92613016e-10 2.392290061e-10 6.068625088e-11 1.839763975e-11)
5(4.773795964e-09 5.951087806e-10 1.334937776e-10 3.307589632e-11 9.771975258e-12)
5(3.220558556e-09 3.779486967e-10 7.88045108e-11 1.898781202e-11 5.550045206e-12)
5(2.198399519e-09 2.493194448e-10 4.854471823e-11 1.129229448e-11 3.270327175e-12)
5(1.583994319e-09 1.703250349e-10 3.091095999e-11 6.959255995e-12 2.023668533e-12)
5(1.169320042e-09 1.208540601e-10 2.044188023e-11 4.408188752e-12 1.252566298e-12)
5(8.947727514e-10 8.770792233e-11 1.386587041e-11 2.865698281e-12 8.119636369e-13)
5(6.860537229e-10 6.615327437e-11 9.73480983e-12 1.904554513e-12 5.348691637e-13)
5(5.337869342e-10 5.061730352e-11 6.989769254e-12 1.28902285e-12 3.538999074e-13)
5(4.342763904e-10 3.940882893e-11 5.136442392e-12 8.897452087e-13 2.426794051e-13)
5(3.550272275e-10 3.138143262e-11 3.865935487e-12 6.226827154e-13 1.691349035e-13)
5(2.846752579e-10 2.532831859e-11 2.952021939e-12 4.4313963e-13 1.197816031e-13)
5(2.37901025e-10 2.047908253e-11 2.299005066e-12 3.235309376e-13 8.775945214e-14)
5(1.941467108e-10 1.685070223e-11 1.816094736e-12 2.421648016e-13 6.740098021e-14)
5(1.640518845e-10 1.381479635e-11 1.458554704e-12 1.8622685e-13 5.382906984e-14)
5(1.349884999e-10 1.139638904e-11 1.184090701e-12 1.472586432e-13 4.678608039e-14)
5(1.154608934e-10 9.48746151e-12 9.692866774e-13 1.217854941e-13 4.285920768e-14)
5(9.001143938e-11 7.726920454e-12 7.835834687e-13 1.044764383e-13 4.212849718e-14)
5(7.29944729e-11 6.301727601e-12 6.372578228e-13 9.405003655e-14 4.370538822e-14)
5(5.925651832e-11 5.100695775e-12 5.271936009e-13 8.809335732e-14 4.832975926e-14)
5(4.62783561e-11 4.044752543e-12 4.294742733e-13 8.627978766e-14 5.562686798e-14)
5(3.553566345e-11 3.18873756e-12 3.536842832e-13 8.919124573e-14 6.689878436e-14)
5(2.700660418e-11 2.390358065e-12 2.925809202e-13 9.801515545e-14 8.673227145e-14)
5(1.954809859e-11 1.794087496e-12 2.508810237e-13 1.152381081e-13 1.16829575e-13)
5(1.371945635e-11 1.301423045e-12 2.277914558e-13 1.473387283e-13 1.652801703e-13)
5(9.39674102e-12 9.322703625e-13 2.317328004e-13 2.016794906e-13 2.386097653e-13)
5(5.889215377e-12 6.911540733e-13 2.708134501e-13 2.83194845e-13 3.316239597e-13)
5(3.607789668e-12 5.561753312e-13 3.502278342e-13 3.928107708e-13 4.340452126e-13)
5(2.248228328e-12 5.264453367e-13 4.692683083e-13 5.17161264e-13 5.294639061e-13)
5(1.380671718e-12 5.900663309e-13 6.124606382e-13 6.265515625e-13 5.813629327e-13)
5(1.009589784e-12 7.156427499e-13 7.489851569e-13 6.897241482e-13 5.742577881e-13)
5(9.254824917e-13 8.608329111e-13 8.275284965e-13 6.753330208e-13 4.957657086e-13)
5(9.980379168e-13 9.675572406e-13 8.133039296e-13 5.799495019e-13 3.71621421e-13)
5(1.098259437e-12 9.832249798e-13 6.990061198e-13 4.314464677e-13 2.380538297e-13)
5(1.149458395e-12 8.864206381e-13 5.167413843e-13 2.702933031e-13 1.257357026e-13)
5(1.090155668e-12 6.922575817e-13 3.214168004e-13 1.394603381e-13 5.261196087e-14)
5(9.25872163e-13 4.619270152e-13 1.639361844e-13 5.727809991e-14 1.720673947e-14)
5(6.946929137e-13 2.579096904e-13 6.55407432e-14 1.804297887e-14 4.022556003e-15)
5(4.506956214e-13 1.166953662e-13 2.030800336e-14 3.949755476e-15 6.952610431e-16)