/*--------------------------------*- C++ -*----------------------------------*\
| =========                 |                                                 |
| \\      /  F ield         | OpenFOAM: The Open Source CFD Toolbox           |
|  \\    /   O peration     | Version:  2.3.1                                 |
|   \\  /    A nd           | Web:      www.OpenFOAM.org                      |
|    \\/     M anipulation  |                                                 |
\*---------------------------------------------------------------------------*/
FoamFile
{
    version     2.0;
    format      ascii;
    class       dictionary;
    location    "constant";
    object      PM9;
}
// * * * * * * * * * * * * * * * * * * * * * * * * * * * * * * * * * * * * * //

PM9_table
60
(

60
(
5(3.095086678 4.73597403 3.058626023 3.252593142 3.207091268)
5(4.860464154 3.684100079 2.922117884 3.471921434 5.292855042)
5(4.175732986 2.756931844 3.034179946 4.232081478 3.668881283)
5(3.602458114 2.650191007 3.025878767 3.469416034 1.391332366)
5(3.056586246 3.028511822 3.774680574 3.212654514 4.012523147)
5(2.897296202 3.474761334 3.919604707 3.535481284 3.659055634)
5(3.4002866 3.456488383 3.295742782 3.451634123 3.122149666)
5(3.404207391 3.231613317 3.149794649 3.434518184 3.868130852)
5(3.203031678 3.241657308 3.25537931 3.394810632 3.1505612)
5(3.283500124 3.188390562 3.150639119 3.46104127 3.243046724)
5(3.261298513 3.217990096 3.315380255 3.422377711 3.35053851)
5(3.305366884 3.222548522 3.379420202 3.389999519 3.408427512)
5(3.255419696 3.189613856 3.302684037 3.371744618 3.356537289)
5(3.222275748 3.211119514 3.305595263 3.424117713 3.383192362)
5(3.263563507 3.213334366 3.296083635 3.347591081 3.368432674)
5(3.21710377 3.18808008 3.258232765 3.36256893 3.338276145)
5(3.225988635 3.192598204 3.262522351 3.33703162 3.29469244)
5(3.225073287 3.181890618 3.248724307 3.318338092 3.30486096)
5(3.205502993 3.151858713 3.231191208 3.303103934 3.304632738)
5(3.178271611 3.138262152 3.222593351 3.280640357 3.332897732)
5(3.193375685 3.170422314 3.234747863 3.347294181 3.356631242)
5(3.173453617 3.146607935 3.23297653 3.377688782 3.328116355)
5(3.164485728 3.124142276 3.22439013 3.276650863 3.264590819)
5(3.150093162 3.098680099 3.213448181 3.289514629 3.2845848)
5(3.133336153 3.104408372 3.174800514 3.246546086 3.266164996)
5(3.130132185 3.098789372 3.160708253 3.236241029 3.296523486)
5(3.132212291 3.104632266 3.169724987 3.227189863 3.294925458)
5(3.116432664 3.075825209 3.141137062 3.238976672 3.295219764)
5(3.091334423 3.060332452 3.166724388 3.256924295 3.284731314)
5(3.073303596 3.039566372 3.158477149 3.253607525 3.2795303)
5(3.051414235 3.029584737 3.141595681 3.244811696 3.347239174)
5(3.050895964 3.033414558 3.167858112 3.314680606 3.39273448)
5(3.028862737 2.997738219 3.127982773 3.268011671 3.283078685)
5(2.997652313 2.974144121 3.126278051 3.328633298 3.485298423)
5(2.983910184 2.960401344 3.10500975 3.314614795 3.421254753)
5(2.94727351 2.920286995 3.113806733 3.370191453 3.439058216)
5(2.953490188 2.972763469 3.224848347 3.357030758 3.578839565)
5(2.907592462 2.913179357 3.142669572 3.440757157 3.80094594)
5(2.870145803 2.903920329 3.097492782 3.381730101 3.957295297)
5(2.839250087 2.884937839 3.110654987 3.84250883 5.035365238)
5(2.861519485 2.924727841 3.213035159 4.041414734 4.284192772)
5(2.840568339 2.926918275 3.368980008 4.56030546 3.948815939)
5(2.834967131 2.943872715 3.574594644 4.376086056 3.335104162)
5(2.779188457 2.816927915 3.452780392 3.894812872 3.24197481)
5(2.804094712 2.881306231 3.663240225 3.764750457 3.289568416)
5(2.788064553 2.941912249 4.175298099 3.659893521 3.223210817)
5(2.866238218 3.586696234 4.300586629 3.304986396 3.167671596)
5(3.08035941 3.703946563 3.770866717 3.160202638 3.113415758)
5(2.99230765 4.040290994 3.579778239 3.097647335 3.052054118)
5(4.1966894 4.17616321 3.181663142 3.042415259 2.991965063)
5(4.330079727 3.59042019 3.145834637 2.995353415 2.931475633)
5(3.73312087 3.240168819 3.101652213 2.920598965 2.862160149)
5(3.245413421 3.087129968 3.050256984 2.834204249 2.776065729)
5(3.052216987 3.004224651 2.985912394 2.736680181 2.697521399)
5(2.943293086 2.925931217 2.886814603 2.616339155 2.595998765)
5(2.778921384 2.821352684 2.745209831 2.46583988 2.485788635)
5(2.474176126 2.665265568 2.530515342 2.29418396 2.449260962)
5(1.80779908 2.222650319 2.22029976 2.04026432 2.293761767)
5(0.7208423756 1.24540198 1.676809322 2.894247004 1.816869868)
5(1.636075231 0.8628729471 1.044860502 0.1307392926 0.0141698648)
)


60
(
5(2.245508362 2.684487841 2.101594845 2.345312071 2.054428012)
5(2.560908008 3.194334497 2.483100354 2.660349759 2.380528467)
5(3.326347964 2.874843844 2.727630921 2.920146466 3.190277613)
5(3.703842748 2.763087638 2.604358083 3.142443372 2.324411431)
5(3.49096268 2.818463537 2.688570485 2.937135683 2.772472072)
5(2.973727583 2.871080221 3.099973873 2.948684736 3.024178547)
5(2.793390538 2.889906502 3.020582312 3.045651022 2.760433437)
5(2.98771178 2.87093839 2.840897688 2.972217382 3.062670977)
5(2.834969657 2.831503038 2.869996658 2.935621042 2.911604522)
5(2.849518001 2.791229204 2.773411775 2.949348626 2.87493527)
5(2.814697457 2.781066587 2.776476695 2.934658632 2.864054497)
5(2.807533636 2.769989473 2.825418753 2.925642247 2.896857151)
5(2.83919106 2.751971777 2.831979264 2.88777032 2.866584196)
5(2.774690506 2.734129079 2.810459867 2.912830027 2.877498147)
5(2.804422111 2.739977259 2.817887165 2.884404082 2.870180504)
5(2.776983684 2.722058591 2.793440959 2.871073566 2.857603906)
5(2.765742566 2.714267386 2.784123511 2.86158088 2.834238866)
5(2.756463453 2.706583805 2.775032408 2.841271245 2.817788796)
5(2.752261143 2.695375387 2.765434716 2.835477528 2.807141872)
5(2.727571748 2.665380054 2.742522665 2.80243554 2.801851871)
5(2.722253225 2.6692298 2.749503831 2.799538942 2.796075369)
5(2.710116923 2.662580199 2.733370637 2.836745306 2.816317988)
5(2.684703746 2.646747248 2.72735907 2.801718681 2.782085442)
5(2.683565746 2.620384406 2.71794753 2.794878307 2.778722109)
5(2.666216231 2.60860576 2.699744761 2.771202507 2.760592946)
5(2.655599829 2.600817484 2.671503938 2.745067922 2.755270828)
5(2.642463678 2.596267699 2.678991364 2.729549373 2.747856339)
5(2.635553593 2.58453615 2.658840694 2.719357403 2.742381077)
5(2.608337002 2.565394664 2.658195879 2.718523787 2.73172928)
5(2.594040564 2.542380215 2.652966137 2.731044921 2.735865992)
5(2.571203919 2.521403075 2.630877709 2.708259404 2.726082094)
5(2.555555477 2.512725724 2.634154035 2.727899633 2.777484469)
5(2.542990221 2.492242576 2.61660447 2.721954447 2.723629366)
5(2.522563549 2.469018351 2.590744441 2.723574724 2.778472314)
5(2.499885204 2.455844405 2.585729094 2.717809135 2.775316287)
5(2.480122709 2.419952206 2.534243496 2.706602524 2.776072609)
5(2.458893336 2.43002946 2.586611483 2.731483429 2.768827903)
5(2.438788705 2.394333544 2.574264658 2.708173238 2.899882378)
5(2.412499717 2.380022043 2.542589668 2.716445723 2.766383724)
5(2.369011176 2.353323111 2.498780038 2.6902566 3.165748008)
5(2.349400629 2.353476582 2.522830942 2.695298961 3.091465407)
5(2.33468903 2.334720721 2.522908138 2.834399437 3.031723257)
5(2.312296783 2.344070837 2.537396808 3.097931846 2.972853774)
5(2.285895156 2.301610048 2.397549776 3.033551759 2.910066686)
5(2.255554483 2.293089976 2.423983335 2.958759186 2.887242956)
5(2.251241844 2.260183721 2.463359696 2.907134273 2.84757136)
5(2.238175087 2.284136133 2.796274387 2.860766898 2.803260041)
5(2.243724494 2.392647866 2.850829273 2.820186005 2.756036724)
5(2.203726129 2.323328768 2.812837599 2.777069413 2.703054631)
5(2.176188208 2.732407832 2.773109638 2.727488992 2.645571822)
5(2.195425583 2.669514061 2.738053755 2.676356942 2.578651291)
5(2.544697741 2.61301894 2.699179372 2.606598766 2.499959867)
5(2.606625958 2.56271501 2.650597469 2.521422094 2.407947473)
5(2.564396046 2.503695319 2.58504153 2.415356036 2.298050416)
5(2.478456595 2.420942359 2.488489381 2.285370628 2.178600714)
5(2.309910854 2.297998705 2.349830089 2.128095464 2.037690522)
5(1.938742637 2.099195222 2.142259142 1.928236215 1.911365562)
5(1.3887596 1.679340414 1.816246165 1.673945833 1.744347541)
5(0.7570605122 0.9429782628 1.141267237 2.074610037 1.555462794)
5(1.519384902 1.734864167 2.195383549 0.4145061288 -0.5363052432)
)


60
(
5(1.809566144 1.975658834 1.685014537 1.814046026 1.646003548)
5(1.888661482 1.889156908 1.836913724 1.895635371 1.80889409)
5(1.930904581 1.839717714 1.917415017 1.927771574 1.928534419)
5(1.920281048 1.80569205 1.905761269 1.91571971 1.938462504)
5(1.874388461 1.772208414 1.848519054 1.879371175 1.878350443)
5(1.809018942 1.740095044 1.793640078 1.848864473 1.818309225)
5(1.768708592 1.711433211 1.768837168 1.818301535 1.788675118)
5(1.748216222 1.689650095 1.750433735 1.799548265 1.779395794)
5(1.733769297 1.674500776 1.741845516 1.79053008 1.772183629)
5(1.711341377 1.65658694 1.726954342 1.773720641 1.76120979)
5(1.696660353 1.63610414 1.710338725 1.757281822 1.7444195)
5(1.671299586 1.619611664 1.690230718 1.741039561 1.724483882)
5(1.652192864 1.601716078 1.673414352 1.7272835 1.710426026)
5(1.636273889 1.587127671 1.658594796 1.710603471 1.694757683)
5(1.622609786 1.572985134 1.646059999 1.697469533 1.682724792)
5(1.6043883 1.557588832 1.630905557 1.68314249 1.668831778)
5(1.589610957 1.542330603 1.614283589 1.668288641 1.656011095)
5(1.576061007 1.525634869 1.597883555 1.654913465 1.64350812)
5(1.558680127 1.512159072 1.583607442 1.641097769 1.628909975)
5(1.544634601 1.496922768 1.568349511 1.625506349 1.613657945)
5(1.527840944 1.479740853 1.554018903 1.613882977 1.602283599)
5(1.511913912 1.465156162 1.539699393 1.59693299 1.589287323)
5(1.496209132 1.449705129 1.524094375 1.584562349 1.575901402)
5(1.479774675 1.433333966 1.50714035 1.574649699 1.563962642)
5(1.463502615 1.416839416 1.495025341 1.560646154 1.554449302)
5(1.445110561 1.401685905 1.477667043 1.546998188 1.543894565)
5(1.428644808 1.386727362 1.462043577 1.532815651 1.532908084)
5(1.409366063 1.368163917 1.447814915 1.521612419 1.526636083)
5(1.392334578 1.351545676 1.433160232 1.510222018 1.514700988)
5(1.373266439 1.334367329 1.41848044 1.499957547 1.510970964)
5(1.354056385 1.318340503 1.405747252 1.491077396 1.50125106)
5(1.335607577 1.303514384 1.392659754 1.481444329 1.497174806)
5(1.317554673 1.286798863 1.380551298 1.473772318 1.493164578)
5(1.297790264 1.27177047 1.37144512 1.468195006 1.491553041)
5(1.281295531 1.258410713 1.360506009 1.463411479 1.487769221)
5(1.260591709 1.244660682 1.351648919 1.459862653 1.488894097)
5(1.243677073 1.233637041 1.344102045 1.459935764 1.48872383)
5(1.226963295 1.222968521 1.339949226 1.458085408 1.486748065)
5(1.211595589 1.21750599 1.33716721 1.456837908 1.490083512)
5(1.199370873 1.209933225 1.334885394 1.459059566 1.49380938)
5(1.186584332 1.207799494 1.338456346 1.4619746 1.503737405)
5(1.177141926 1.202919723 1.339333256 1.467267851 1.515465642)
5(1.166889169 1.203680122 1.342396164 1.476359408 1.526460572)
5(1.158091649 1.21019234 1.345913233 1.485781976 1.534463347)
5(1.15097698 1.21024182 1.348635655 1.495722818 1.539431535)
5(1.143248349 1.207758873 1.350673069 1.505367311 1.543000792)
5(1.130493169 1.203536663 1.357672983 1.510401238 1.542934718)
5(1.114901547 1.19941109 1.362098179 1.511215886 1.539652941)
5(1.086908557 1.188295681 1.363841174 1.50826732 1.532488536)
5(1.060192586 1.176450692 1.363638596 1.500709668 1.520163119)
5(1.024512077 1.16602592 1.360790969 1.489123126 1.502418911)
5(0.9888997816 1.152333725 1.35405984 1.472768634 1.475115439)
5(0.9561714786 1.134354937 1.342394548 1.44920056 1.44222996)
5(0.9284798638 1.115737297 1.326748071 1.416152517 1.393448796)
5(0.9073703125 1.088077883 1.300016779 1.368489704 1.33437326)
5(0.8817749417 1.051962627 1.262649166 1.307654349 1.26168193)
5(0.8455624013 1.000313449 1.206365168 1.231891469 1.177144721)
5(0.7858485078 0.91975642 1.123811423 1.130959445 1.07411639)
5(0.7932324273 0.8820078795 1.265725651 1.231502707 1.057338307)
5(0.5225995012 1.046800953 1.049069981 0.2049591514 -0.1362573373)
)


60
(
5(1.529378737 1.618311436 1.421199424 1.508313741 1.39633412)
5(1.536793993 1.50879067 1.499196879 1.539153454 1.492435857)
5(1.528159692 1.454069727 1.521296167 1.541617178 1.542286455)
5(1.506521951 1.418367624 1.498900176 1.521045762 1.536261582)
5(1.460595044 1.387500571 1.452219406 1.489411003 1.492312839)
5(1.413793223 1.358494962 1.412618076 1.462814754 1.451063963)
5(1.381053624 1.336357823 1.389306649 1.440445657 1.426739913)
5(1.361664735 1.316983263 1.373917457 1.425507319 1.415886931)
5(1.343068273 1.298748692 1.361096232 1.411092191 1.407929894)
5(1.32437662 1.280687319 1.348390029 1.39788485 1.392742245)
5(1.308709457 1.265599278 1.331456403 1.382699221 1.377998388)
5(1.290934648 1.250327819 1.315565004 1.36873295 1.36263337)
5(1.272315496 1.233861261 1.300410075 1.35340115 1.349239748)
5(1.255180876 1.219756776 1.285799553 1.34100022 1.337302518)
5(1.242321435 1.205725881 1.27152997 1.328228996 1.323960505)
5(1.230740666 1.192225723 1.258011518 1.315537263 1.312513045)
5(1.213518868 1.179222868 1.244976109 1.30219111 1.300473585)
5(1.199988563 1.165977179 1.232747717 1.288125241 1.290315747)
5(1.185855 1.152171061 1.217773636 1.278255269 1.279451)
5(1.171468561 1.139300411 1.205421106 1.26490869 1.267241451)
5(1.160313181 1.124712077 1.191881091 1.253835901 1.257421292)
5(1.144266512 1.110778997 1.180778147 1.244316748 1.248151897)
5(1.129627865 1.097319057 1.167051084 1.231448626 1.239266922)
5(1.115434144 1.084639188 1.154122449 1.221932755 1.229648248)
5(1.103364057 1.071456851 1.141312061 1.212813531 1.221350079)
5(1.087897805 1.056224914 1.130239754 1.203214553 1.215830404)
5(1.073998465 1.047130772 1.120107335 1.194883455 1.208662918)
5(1.061048534 1.032729754 1.108140958 1.185323855 1.203933191)
5(1.044688428 1.021159356 1.099118735 1.179816128 1.198061667)
5(1.031019856 1.009721048 1.088982002 1.171970039 1.19470489)
5(1.016390131 0.996887261 1.079951131 1.167602745 1.191600956)
5(1.002963476 0.9871252156 1.072300118 1.162966281 1.187734292)
5(0.9893638283 0.9785114999 1.063625684 1.159715878 1.188966431)
5(0.9760159931 0.9662679487 1.058223826 1.156955553 1.189975323)
5(0.9627112045 0.9581719668 1.055160436 1.156857154 1.19231901)
5(0.953047975 0.950430761 1.050779437 1.15774584 1.19362136)
5(0.9403456099 0.9446146622 1.048023572 1.15978995 1.198701354)
5(0.9271190883 0.9391540216 1.04713682 1.163596372 1.201281694)
5(0.9159524365 0.9357249835 1.049083139 1.167329984 1.206142376)
5(0.9053446569 0.9351385495 1.053399682 1.173815736 1.214629078)
5(0.8965679705 0.9341169554 1.057305061 1.181316122 1.222127858)
5(0.8837788617 0.9331371301 1.064375068 1.18960922 1.232296696)
5(0.871138598 0.9344981588 1.070827963 1.200527454 1.241756826)
5(0.8571595882 0.9357796267 1.078007537 1.212071632 1.248520036)
5(0.8397341312 0.9382416218 1.085618865 1.222080068 1.250453001)
5(0.8212018657 0.9355806857 1.091004035 1.228840728 1.247922653)
5(0.7969812303 0.9264026205 1.094762212 1.230578681 1.242056598)
5(0.7696029805 0.9137061659 1.095160692 1.226225194 1.231027287)
5(0.7314199071 0.8959767256 1.089255455 1.217252192 1.214547416)
5(0.6870090413 0.8694514449 1.076724984 1.202540119 1.195542405)
5(0.6374535866 0.8390675318 1.057662878 1.182699131 1.172613023)
5(0.5826250705 0.7996111396 1.031666804 1.157848012 1.146131948)
5(0.5248569814 0.7552548978 1.000786588 1.129172867 1.116690613)
5(0.469755662 0.7050606016 0.9671144003 1.097864255 1.084363111)
5(0.4185219734 0.6530527908 0.9261412695 1.05707022 1.042104208)
5(0.3706614474 0.5952082382 0.8772926922 1.006040399 0.9924900582)
5(0.3253540538 0.5274035107 0.8149605815 0.9413305236 0.9306427762)
5(0.2780293617 0.4437270605 0.724339491 0.8542434152 0.852711734)
5(0.3799717915 0.4857025464 0.8024646884 0.8920473514 0.8896139185)
5(1.425650604 1.423963877 0.4091787994 0.1461880073 0.05201749267)
)


60
(
5(1.328988978 1.3782203 1.234506555 1.299219143 1.221475313)
5(1.296678973 1.265020343 1.272625651 1.306677258 1.27993078)
5(1.272994908 1.21100914 1.271292288 1.297917225 1.302624777)
5(1.24479247 1.177745574 1.244804174 1.27609707 1.287368038)
5(1.205913241 1.149563689 1.208311928 1.248882976 1.25465835)
5(1.167134593 1.124119919 1.176945587 1.224188763 1.22307909)
5(1.139980695 1.102422335 1.154633988 1.205981875 1.202446052)
5(1.119499351 1.084807212 1.140374576 1.192284796 1.190752842)
5(1.104259355 1.069151628 1.12682516 1.178640838 1.181018207)
5(1.087884984 1.053140858 1.114215823 1.164924551 1.168880191)
5(1.070634413 1.037883731 1.099535181 1.152170873 1.155882032)
5(1.055923855 1.024174305 1.086002892 1.140078505 1.143079296)
5(1.041764172 1.010306937 1.072434108 1.127264021 1.130392537)
5(1.026847164 0.9974096444 1.060321256 1.114883928 1.121118561)
5(1.011760367 0.9858403473 1.047799674 1.10415794 1.109284004)
5(0.9998803301 0.973276853 1.034984461 1.093581442 1.099760421)
5(0.9885565871 0.9616268928 1.022523984 1.081803395 1.088858875)
5(0.974080633 0.9495343597 1.012235681 1.072148491 1.078999212)
5(0.9636604802 0.9376435599 1.000568283 1.060649918 1.071026229)
5(0.9503795958 0.9265662886 0.9899974963 1.052253185 1.061735587)
5(0.9381576405 0.9155988647 0.9779262116 1.041520965 1.053873319)
5(0.9282459537 0.9033439642 0.9686032925 1.033775407 1.04768771)
5(0.9162798019 0.8929165715 0.9573815561 1.02447038 1.040453044)
5(0.9023730939 0.8819291516 0.9493236665 1.016303843 1.034675469)
5(0.8911064696 0.8728483795 0.9389942593 1.008909037 1.027278592)
5(0.8800525641 0.8615873478 0.9291485691 1.00284034 1.024049208)
5(0.8678064593 0.8509591144 0.9207216049 0.9970525752 1.020279981)
5(0.8569961603 0.8415117972 0.9131781837 0.9911216237 1.016059511)
5(0.8463181794 0.8324210879 0.9063728718 0.9877768928 1.016086903)
5(0.8349295252 0.8242862947 0.8994216687 0.9838948014 1.013346096)
5(0.8239495926 0.8157149195 0.8935190589 0.9816300254 1.014170959)
5(0.813459674 0.8079905081 0.8914473331 0.9806776197 1.013720883)
5(0.8033789042 0.8019479731 0.8854112801 0.9800375629 1.014939067)
5(0.7947277209 0.7963072565 0.8822915348 0.9805744861 1.017563959)
5(0.784758847 0.7909380868 0.8801154071 0.9825826894 1.022886119)
5(0.7749306693 0.7855659966 0.8794200677 0.9847894055 1.026198261)
5(0.7649034139 0.7816417493 0.8819114679 0.9885860411 1.032121124)
5(0.7548304511 0.778531616 0.8822817992 0.9946281927 1.039904298)
5(0.7441294095 0.7763040772 0.8851984432 1.001922475 1.04596164)
5(0.7325523598 0.7745960009 0.8895212601 1.009415411 1.057149523)
5(0.7188567762 0.7726550572 0.895027284 1.018993429 1.067917212)
5(0.7033533552 0.7707687079 0.9025613495 1.03071344 1.079210612)
5(0.6834405881 0.7684314624 0.910512458 1.042620486 1.090856375)
5(0.6610856135 0.7651333455 0.9181720528 1.056097251 1.099845472)
5(0.6351004845 0.759563736 0.9235847688 1.068369169 1.105165276)
5(0.6058479126 0.751045241 0.9295975509 1.077562918 1.10631654)
5(0.5736702253 0.7372345053 0.93083593 1.081438226 1.101405165)
5(0.5361257646 0.7155086181 0.9263462947 1.077094476 1.090652075)
5(0.5000962116 0.6865570864 0.9158835776 1.065008621 1.073128284)
5(0.4493550284 0.6500570498 0.8930807963 1.045696209 1.049987372)
5(0.3992437856 0.6075275821 0.8595099358 1.01748131 1.019485546)
5(0.345114698 0.5552897591 0.8157978604 0.9823755211 0.9880884108)
5(0.2830021527 0.4919262595 0.762210044 0.9405832612 0.951590413)
5(0.2128839317 0.4214811068 0.7017332912 0.8928327241 0.9120453505)
5(0.1448160971 0.3495982194 0.6365914562 0.8413025188 0.8687395307)
5(0.0782179331 0.2739677523 0.5638861112 0.7804619683 0.8177872806)
5(0.02200869709 0.195784266 0.4774283534 0.7014014079 0.7556037307)
5(-0.02072484692 0.1203344809 0.373538057 0.5968218609 0.6687856898)
5(0.182809748 0.2307557883 0.4623883095 0.5798629293 0.6886605197)
5(1.132344691 1.238300016 0.711011552 0.0378299583 0.2393633212)
)


60
(
5(1.178262605 1.205069839 1.093769491 1.143960715 1.088277629)
5(1.123744678 1.091260676 1.107821132 1.139510641 1.123835131)
5(1.092613223 1.039000581 1.095015238 1.124792093 1.132713736)
5(1.063254596 1.008923171 1.068430545 1.104097278 1.116833395)
5(1.028261944 0.9838724369 1.036852705 1.079786802 1.088176058)
5(0.994188185 0.9594501586 1.010983785 1.058925902 1.061735242)
5(0.9712268957 0.9406432652 0.9905405774 1.041933522 1.045316709)
5(0.9523601871 0.924224749 0.9774413363 1.028694277 1.032635366)
5(0.9376906828 0.9088222887 0.9642421063 1.016389282 1.023619143)
5(0.921707558 0.8961423751 0.952858411 1.004287644 1.012286591)
5(0.9067155463 0.8812905112 0.938823779 0.9924028492 1.001270199)
5(0.8924266463 0.8696513234 0.9273461925 0.98074644 0.9895590235)
5(0.8791753315 0.8575588429 0.9139932082 0.9698935923 0.9795471843)
5(0.8687091915 0.8460103346 0.9040448461 0.9595550923 0.969649596)
5(0.8551421502 0.8345358133 0.8923228699 0.9496737279 0.9610340025)
5(0.8429606932 0.8235455818 0.8834491233 0.9403524817 0.9526240408)
5(0.8320421471 0.8131358498 0.871873053 0.9304989183 0.9439891874)
5(0.8216572315 0.8030495222 0.8611803711 0.9239186726 0.9359068508)
5(0.8100839528 0.7925945957 0.8523926935 0.9130875472 0.9286004018)
5(0.8002548253 0.7830833629 0.8427680743 0.9054871284 0.921541876)
5(0.7892419821 0.7742956917 0.8336219319 0.897324179 0.9153347177)
5(0.7787074728 0.7636163482 0.8248483685 0.8900675473 0.9100524571)
5(0.7700651987 0.755384381 0.8173378866 0.8839902724 0.9049484594)
5(0.759506453 0.7469591691 0.8089081873 0.8781523205 0.9008359667)
5(0.7495752022 0.73806722 0.8011239109 0.873201176 0.8962437336)
5(0.7410868399 0.7323260587 0.7954428279 0.8680006932 0.8944025494)
5(0.7304176366 0.7226876049 0.7889793773 0.8642884048 0.8915699413)
5(0.7220651353 0.715147649 0.7831610937 0.8618733638 0.8899862405)
5(0.7141192202 0.7091276581 0.7784225446 0.8589839313 0.8902752905)
5(0.7057032008 0.7036455196 0.7744777117 0.8572114669 0.8906676163)
5(0.6966402402 0.6969602028 0.7708125786 0.8570097336 0.8924772955)
5(0.6891603651 0.6914972635 0.7685892896 0.8582715595 0.8963447445)
5(0.6815141652 0.6864990074 0.7675837848 0.8588994948 0.8977596684)
5(0.6730684389 0.6831766582 0.7657182243 0.8611194777 0.9020339816)
5(0.665519599 0.6794900744 0.765373425 0.8648232784 0.9077894577)
5(0.6573283709 0.6758558307 0.7654631053 0.8689449267 0.9137743369)
5(0.6477668377 0.6734192941 0.768095196 0.8740800099 0.9199426195)
5(0.6372727865 0.6703901587 0.7704187401 0.8807310827 0.9288019527)
5(0.6248162007 0.6668342916 0.7737508379 0.8891441478 0.938904893)
5(0.6097350717 0.6633343558 0.7781605647 0.8973038247 0.9491871719)
5(0.59210498 0.6586334778 0.7828751875 0.9075870867 0.9628964007)
5(0.5706643282 0.6530687223 0.7880168487 0.9198237441 0.9779362803)
5(0.5458571592 0.6459348769 0.7941764874 0.9334704182 0.9912173838)
5(0.5164358383 0.6361474239 0.7992128946 0.9475637873 1.00466228)
5(0.4849566109 0.6234707791 0.8038168831 0.9613227933 1.014143855)
5(0.4482448473 0.606576061 0.8036736776 0.9727354638 1.02089247)
5(0.4129030866 0.5838722986 0.8005897683 0.9780882378 1.021148388)
5(0.3747828117 0.5563105663 0.7922096076 0.9763184931 1.013574673)
5(0.3367551779 0.5243961056 0.7747456298 0.9639527179 0.9978141741)
5(0.2973001587 0.4856588267 0.7437464293 0.9388537287 0.9734223449)
5(0.2559652446 0.4425814802 0.6996188533 0.9011748119 0.9385300546)
5(0.207262818 0.3912044146 0.6420659543 0.851876547 0.8953680799)
5(0.1592967819 0.3263618724 0.5695023547 0.7897836375 0.8477238851)
5(0.1018531258 0.2527806421 0.4859067487 0.7208724557 0.792622669)
5(0.03486911103 0.170515443 0.398260597 0.6411954355 0.7336305399)
5(-0.03606562855 0.08723542878 0.3030774343 0.5528665643 0.6656392211)
5(-0.1107125712 0.004519630077 0.202381149 0.4474908191 0.583360271)
5(-0.1725106928 -0.06609172889 0.09942372996 0.318595108 0.4730415086)
5(-0.01214165077 0.1363208831 0.2519018917 0.2711985702 0.3863144982)
5(1.024688212 1.172290543 0.5581072413 0.02325842188 -0.003653060407)
)


60
(
5(1.058397585 1.070820356 0.9817876841 1.024255756 0.9817348345)
5(0.9904525583 0.9603761995 0.9819094309 1.011925125 1.003968726)
5(0.95492111 0.9120286522 0.9628288071 0.9945783206 1.00395117)
5(0.9278343242 0.8827717675 0.937251847 0.9744036653 0.9882782321)
5(0.8968619514 0.8582710026 0.9091138594 0.9530705932 0.9639972877)
5(0.8665058186 0.8380547188 0.8850028891 0.9337609067 0.9408825393)
5(0.8442557111 0.8205497015 0.8691699005 0.9191850514 0.9260331368)
5(0.8279742663 0.8048217907 0.8545426783 0.9063240723 0.9151247457)
5(0.8131387586 0.7916945743 0.8445797059 0.8958704707 0.9059006896)
5(0.7994950932 0.7779469699 0.8313616918 0.8841573744 0.8962535745)
5(0.7856263112 0.7667574875 0.8214255612 0.8741896998 0.8859428416)
5(0.7727413392 0.7546949016 0.8085000778 0.8631848432 0.8764438666)
5(0.7606177639 0.7443033429 0.7992345582 0.8542114655 0.8669952482)
5(0.7494091703 0.7337576919 0.7880287905 0.8442539499 0.8587950618)
5(0.7386089177 0.7241743836 0.7794055178 0.8362786568 0.8509408426)
5(0.7291029535 0.7144625088 0.7693374077 0.827117454 0.8434781174)
5(0.7179853085 0.7051298784 0.7610051008 0.820027508 0.8363646599)
5(0.7099508192 0.6962178565 0.751920256 0.8114725425 0.8299020965)
5(0.6988606204 0.6880796088 0.7441312731 0.8052716917 0.8235258637)
5(0.6905772285 0.6788867618 0.7355113342 0.797760348 0.8185822942)
5(0.6811007593 0.6719103328 0.728817579 0.7921688726 0.8125969755)
5(0.6714186984 0.6629693734 0.7204705095 0.7860224685 0.8094770898)
5(0.6646282215 0.6556891061 0.7145130388 0.7812367985 0.8044152208)
5(0.6557855094 0.6489357376 0.7088084208 0.7762834004 0.8021610608)
5(0.6475421921 0.6416635304 0.7018431521 0.7729550823 0.7996489699)
5(0.6399544933 0.6360145845 0.698052054 0.7701207613 0.7979012021)
5(0.6328813877 0.6296702952 0.6932712256 0.7666856573 0.7978079863)
5(0.6262262302 0.6246132249 0.6887849317 0.7660551391 0.7974299339)
5(0.6176328834 0.6195934973 0.6859795875 0.7654004423 0.7981948262)
5(0.6113629679 0.6135779839 0.6833152054 0.7645990736 0.8000037809)
5(0.6058782582 0.6108036279 0.6819019152 0.7658468317 0.8026560129)
5(0.5989801584 0.6079694017 0.6805068049 0.76736577 0.8064267593)
5(0.592006787 0.6035333475 0.6795586732 0.7700158956 0.8107609342)
5(0.5844647904 0.6004758173 0.6802572369 0.7734322538 0.8158077428)
5(0.5773514347 0.5977964748 0.6822125257 0.7768200323 0.822389442)
5(0.5690485385 0.5958009702 0.6827012343 0.782261472 0.8297734058)
5(0.5595940032 0.5932657359 0.6840341784 0.789190808 0.8369635266)
5(0.5471651812 0.589311732 0.6869916297 0.7955587747 0.8459939806)
5(0.5326824661 0.5846866674 0.6899188548 0.8028083966 0.8564470804)
5(0.5138664742 0.579067419 0.6929917468 0.8126052722 0.8686886311)
5(0.4916641584 0.5714937241 0.6964020626 0.8229792128 0.8835764665)
5(0.4657214609 0.5614702685 0.698841459 0.8341268319 0.8986545616)
5(0.4364190987 0.547902969 0.7006585871 0.8470475254 0.9147111738)
5(0.403392424 0.5307837095 0.7006663619 0.8606362163 0.9308395783)
5(0.3676777491 0.508590354 0.699024588 0.8734932628 0.9458359922)
5(0.3312931785 0.4851978196 0.6939607125 0.8849505947 0.9551827336)
5(0.296184759 0.4580927034 0.6845902371 0.8897269519 0.9617716259)
5(0.2582875342 0.4300579819 0.6707991883 0.8871694651 0.9596115336)
5(0.2245438648 0.3994218955 0.6465340926 0.8738442885 0.9470113423)
5(0.195289352 0.3669762448 0.6132309334 0.8459893539 0.9227787636)
5(0.1614687609 0.3313163218 0.5686687678 0.801767573 0.885418871)
5(0.1320509575 0.288216584 0.5082861542 0.7395288904 0.8306592085)
5(0.09719355705 0.2368320953 0.4358775121 0.660178001 0.7636720566)
5(0.06243522045 0.1784646667 0.3468193399 0.5626203601 0.6888861039)
5(0.01717783605 0.102621965 0.250178598 0.4564654717 0.5987900827)
5(-0.03988518677 0.02103234611 0.1449153767 0.3383142204 0.499779328)
5(-0.1019670475 -0.05931720306 0.03885553843 0.2095854638 0.3817697093)
5(-0.1626091465 -0.137581508 -0.0649785027 0.06644232542 0.2281620784)
5(-0.06469779863 0.02706325208 0.182598795 0.1044471445 0.1286244731)
5(0.4885653701 1.11331526 1.329619887 0.5031302678 0.3160798773)
)


60
(
5(0.9604045693 0.9639082283 0.8901122055 0.927644708 0.8949968927)
5(0.8839477295 0.8569442058 0.8818455651 0.9101317757 0.9069940914)
5(0.8464735325 0.8110996679 0.8587236919 0.8918958782 0.9033945061)
5(0.8213293802 0.7850727872 0.8337832572 0.872588673 0.8865558145)
5(0.7944193696 0.7612451016 0.8095790595 0.8530977783 0.8667072335)
5(0.7662917546 0.7427227439 0.7877179168 0.8359287159 0.8460841646)
5(0.7456351916 0.7269972064 0.7728248533 0.8224627337 0.8319373147)
5(0.7311633192 0.7125563194 0.7596118888 0.8105828254 0.8225503262)
5(0.7161188635 0.7003265496 0.7499462644 0.8007224702 0.8142232925)
5(0.7045582152 0.6881223048 0.7379617446 0.7901827774 0.8046903932)
5(0.6911417552 0.6775313354 0.728950081 0.7813004321 0.7962223602)
5(0.6806525698 0.6665661582 0.7170897701 0.7711959169 0.7869267935)
5(0.6688518916 0.657382078 0.7093538477 0.7636972988 0.7794887023)
5(0.6592216851 0.647320876 0.6986499821 0.7544080002 0.7717458275)
5(0.6492484917 0.6390589713 0.6917633991 0.7482718498 0.7652263707)
5(0.6401496507 0.6301585724 0.682245535 0.7393915091 0.7588587039)
5(0.6312428646 0.6223973001 0.6754737058 0.7339679905 0.7525485645)
5(0.6221592096 0.6145926308 0.6671696067 0.7258292437 0.747587104)
5(0.6139888776 0.6066429665 0.660613623 0.721189045 0.7418115399)
5(0.6061651464 0.5998404409 0.6534512297 0.7140718363 0.7380031049)
5(0.5981769173 0.5921422305 0.6471643004 0.7104768805 0.7329385897)
5(0.5914169877 0.5863128662 0.6413000233 0.7049668596 0.730710377)
5(0.5823439814 0.5800228556 0.6362197992 0.7018719567 0.7272700171)
5(0.5771874856 0.5732396566 0.6303521017 0.6980185351 0.7256030787)
5(0.5696671247 0.5690012653 0.6267559236 0.6951090585 0.7240734328)
5(0.5628301971 0.562720642 0.6218893931 0.6929517749 0.7229561042)
5(0.5571251556 0.5583857841 0.6190540986 0.691679351 0.7238370007)
5(0.5506854832 0.5542926541 0.6165375344 0.6907520681 0.7248837792)
5(0.5453705044 0.5498291237 0.6137632409 0.6911411128 0.7265585349)
5(0.5394899142 0.547229383 0.613491851 0.693208447 0.7292515332)