/*--------------------------------*- C++ -*----------------------------------*\
| =========                 |                                                 |
| \\      /  F ield         | OpenFOAM: The Open Source CFD Toolbox           |
|  \\    /   O peration     | Version:  2.3.1                                 |
|   \\  /    A nd           | Web:      www.OpenFOAM.org                      |
|    \\/     M anipulation  |                                                 |
\*---------------------------------------------------------------------------*/
FoamFile
{
    version     2.0;
    format      ascii;
    class       dictionary;
    location    "constant";
    object      rC2H6;
}
// * * * * * * * * * * * * * * * * * * * * * * * * * * * * * * * * * * * * * //

rC2H6_table
60
(

60
(
5(1.502320392e-07 3.902092942e-08 1.065117923e-07 4.07357948e-08 5.183524047e-08)
5(5.236506127e-08 3.980357362e-09 3.195597174e-08 1.402100337e-08 1.238467892e-08)
5(1.633969792e-05 1.052236016e-08 1.008279679e-08 3.843732204e-09 0)
5(0.0001182219856 1.356026033e-08 1.142811961e-08 6.436312974e-10 3.550583631e-09)
5(0.0001583487092 1.22317458e-08 1.240572311e-08 3.837809908e-09 1.829522258e-09)
5(0.0001090870384 1.103224417e-08 3.35435254e-09 4.533418488e-09 1.282317287e-09)
5(2.625863732e-08 1.086920283e-08 5.528342297e-09 2.870587147e-09 4.314404758e-09)
5(1.226085466e-08 1.296650399e-08 1.25204772e-08 4.557067303e-09 8.026703788e-10)
5(0.0001224183312 1.732548185e-08 1.43850978e-08 5.856565431e-09 2.169077735e-09)
5(0.0002823751037 3.885629871e-08 2.442210003e-08 6.51520252e-09 3.109347168e-09)
5(0.0003150053464 5.832047166e-08 2.743763083e-08 8.799059967e-09 3.887457831e-09)
5(3.813931941e-05 3.637893268e-08 2.500240794e-08 1.019327662e-08 4.32142136e-09)
5(5.211458494e-08 4.681019252e-08 2.785386638e-08 1.479898898e-08 5.858733244e-09)
5(8.081104233e-08 6.077597293e-08 3.645304025e-08 1.529991443e-08 6.564880915e-09)
5(8.624863826e-08 7.141018555e-08 4.252809837e-08 2.15866414e-08 8.036530984e-09)
5(7.052853953e-07 1.69447194e-07 7.145409609e-08 3.156293318e-08 1.069962203e-08)
5(7.059450664e-07 1.8258926e-07 9.550324907e-08 3.302160784e-08 1.121831843e-08)
5(3.645425025e-07 1.791176281e-07 7.592203025e-08 1.13813675e-08 -6.444929705e-09)
5(2.019771122e-07 8.80448252e-08 5.066834119e-09 -1.426196324e-07 -1.197001083e-07)
5(1.336362598e-07 -4.074667417e-07 -4.543663398e-07 -1.005572534e-06 -6.782501082e-07)
5(-4.247582798e-07 -2.310535384e-06 -2.317169632e-06 -4.28647836e-06 -2.995561238e-06)
5(-2.845313853e-06 -9.386562356e-06 -9.824623708e-06 -1.301899322e-05 -9.931246096e-06)
5(-1.234613638e-05 -3.378443244e-05 -3.461732529e-05 -5.09141964e-05 -3.939492623e-05)
5(-4.112329586e-05 -0.0001139745996 -0.0001128732356 -0.0001575008632 -0.0001203116385)
5(-0.000131117604 -0.0003310877584 -0.000345004249 -0.0004767488736 -0.0003640108837)
5(-0.0003758668484 -0.0008795617256 -0.001015072178 -0.001360901402 -0.0009580782428)
5(-0.001017483776 -0.002165816868 -0.002432298429 -0.003442471747 -0.002379366241)
5(-0.00249328895 -0.00517824475 -0.006063725725 -0.008018985565 -0.005404948729)
5(-0.006200506561 -0.01193845998 -0.01316151001 -0.0167908419 -0.0117276015)
5(-0.01393747798 -0.02635321862 -0.02746008338 -0.03177401916 -0.02265447481)
5(-0.0305564492 -0.05464048687 -0.05765515714 -0.06435668984 -0.04333308483)
5(-0.06191582848 -0.1030196105 -0.1040559266 -0.1049858203 -0.06010010423)
5(-0.1180779676 -0.1909332006 -0.1914164595 -0.1788653258 -0.1226502556)
5(-0.2197494717 -0.3407228854 -0.3418592865 -0.2768488528 -0.1425590549)
5(-0.3899018126 -0.5554142361 -0.5345937212 -0.4111270113 -0.2166349392)
5(-0.6522932658 -0.9206916316 -0.9136324371 -0.5833217348 -0.2821864158)
5(-1.038792018 -1.245847545 -1.039863348 -0.6595611754 -0.2988994615)
5(-1.560250705 -1.829212808 -1.359327 -0.8214575727 -0.136391546)
5(-2.262411635 -2.341750002 -1.750170614 -0.800134251 -0.2718463987)
5(-3.199909646 -2.88288827 -2.140775011 -0.7941126913 -0.0009127173976)
5(-3.972918031 -2.992540914 -1.7919437 -0.6171174694 -0.00144488545)
5(-4.435292408 -2.970284968 -1.475348949 -0.4175453534 -1.978937147e-29)
5(-4.673803328 -2.388972165 -0.9333571432 3.133154943e-41 4.015996403e-40)
5(-4.557945886 -2.021114754 -1.110215262 2.673021859e-40 -0.3784286683)
5(-3.949544394 -1.250529014 -0.5102981809 1.98431262e-39 -0.09621210606)
5(-2.702513386 -0.7417812982 -0.0988731891 1.55881396e-38 1.878338549e-37)
5(-1.584018693 -0.2757734955 -0.03196458492 -0.09634690449 1.27338002e-36)
5(-1.075309696 -0.02203267627 -0.01444071499 7.054807991e-37 8.199130853e-36)
5(-0.2943081353 -0.005731477346 -0.003498961214 4.268120729e-36 4.926020104e-35)
5(-0.07414681308 -0.0001285327306 1.299758508e-36 2.410938202e-35 2.739886097e-34)
5(-0.01698912062 4.383135378e-37 7.257810786e-36 1.305436793e-34 1.440091245e-33)
5(-0.00254376971 2.38710456e-36 3.854750356e-35 6.597081959e-34 7.081321047e-33)
5(-1.322494598e-06 1.238130492e-35 1.925701242e-34 3.151125026e-33 3.289094895e-32)
5(2.598378204e-36 5.92797546e-35 9.192339866e-34 1.417221732e-32 1.46211904e-31)
5(1.269184204e-35 -4.016390809e-30 4.143339544e-33 6.096186852e-32 6.1049205e-31)
5(4.647863788e-34 -1.644322332e-29 1.784335687e-32 2.456372033e-31 2.409635402e-30)
5(5.376295242e-33 -6.537122503e-29 7.38578088e-32 9.414371316e-31 -6.416678447e-28)
5(1.466153518e-32 -2.57803315e-29 -1.025469771e-28 -4.527677061e-28 -1.166075269e-27)
5(2.59658467e-32 -1.945484637e-29 -1.715737255e-28 -6.136746485e-29 -4.319627192e-29)
5(-2.420544277e-33 4.635777536e-34 9.145180739e-30 3.693479619e-32 1.831166841e-28)
)


60
(
5(4.51063929e-07 1.692097971e-07 3.139550877e-07 1.438148423e-07 1.485296285e-07)
5(2.689701541e-07 1.608469069e-07 1.589500459e-07 9.563416916e-08 6.905792217e-08)
5(2.115668843e-07 1.644768619e-07 1.166098987e-07 8.128912136e-08 4.721989893e-08)
5(2.117692989e-07 1.806054441e-07 1.176234684e-07 8.491847275e-08 4.65923664e-08)
5(2.563652568e-07 2.116622962e-07 1.449674796e-07 1.012274437e-07 5.893145442e-08)
5(3.275647878e-07 2.570842202e-07 1.856814149e-07 1.273909798e-07 8.029287268e-08)
5(4.093985005e-07 3.138995041e-07 2.300076728e-07 1.571767124e-07 1.035155064e-07)
5(4.989974045e-07 3.867414756e-07 2.783926274e-07 1.93989466e-07 1.284315124e-07)
5(6.094984907e-07 4.820553979e-07 3.38638821e-07 2.424792603e-07 1.597551993e-07)
5(7.517294537e-07 6.044300692e-07 4.220140292e-07 3.069157404e-07 2.056688959e-07)
5(9.586834424e-07 7.621345779e-07 5.379066281e-07 3.93189637e-07 2.676724357e-07)
5(1.212274164e-06 9.677594138e-07 6.900306149e-07 5.065366036e-07 3.497089326e-07)
5(1.54101993e-06 1.227644706e-06 8.854561112e-07 6.528577117e-07 4.570336153e-07)
5(1.956484702e-06 1.557141253e-06 1.133151769e-06 8.351235536e-07 5.901501263e-07)
5(2.475868173e-06 1.973896605e-06 1.443715936e-06 1.064568221e-06 7.563300309e-07)
5(3.112441769e-06 2.475393124e-06 1.818364732e-06 1.323186872e-06 9.405410432e-07)
5(3.924531975e-06 3.017405347e-06 2.199485411e-06 1.455765557e-06 9.834538646e-07)
5(4.789726855e-06 3.248103196e-06 2.179798358e-06 6.276536431e-07 5.546815003e-09)
5(5.22851314e-06 1.539655341e-06 -1.751574485e-07 -4.813442658e-06 -5.819830579e-06)
5(3.089513335e-06 -8.467632649e-06 -1.255448769e-05 -2.864947481e-05 -3.120695338e-05)
5(-9.633247321e-06 -4.84874447e-05 -6.195336092e-05 -0.0001168391285 -0.0001252992062)
5(-5.94090319e-05 -0.0001858611 -0.0002330741788 -0.0004090238255 -0.0004378243043)
5(-0.0002258484318 -0.0006105253603 -0.0007692308251 -0.001285851034 -0.001380802203)
5(-0.0007302882408 -0.001819743099 -0.002311513406 -0.003701618708 -0.00398315826)
5(-0.00213283686 -0.005009296192 -0.006401159889 -0.009911853038 -0.01063961995)
5(-0.005780365306 -0.01289296086 -0.01658936542 -0.024806157 -0.02647469237)
5(-0.01466111572 -0.03114771034 -0.04019636691 -0.05827054562 -0.0616969277)
5(-0.03503188975 -0.07128662471 -0.09174456502 -0.1288992189 -0.1351918666)
5(-0.07930732365 -0.1547105276 -0.1983505127 -0.2695798756 -0.2803458117)
5(-0.1708440695 -0.3191390331 -0.4066375077 -0.5355715639 -0.5492696785)
5(-0.3507525797 -0.6281878629 -0.793604908 -1.011660671 -1.023221696)
5(-0.6883852283 -1.182314628 -1.474999379 -1.821611557 -1.809925172)
5(-1.293833458 -2.130919399 -2.622527766 -3.126719369 -3.041448961)
5(-2.332686122 -3.680353275 -4.451882161 -5.119847985 -4.858703322)
5(-4.03333059 -6.094129961 -7.22396167 -7.992651956 -7.367825679)
5(-6.703992748 -9.670419872 -11.19254851 -11.89004156 -10.5966433)
5(-10.66988486 -14.6828589 -16.53894812 -16.77853069 -14.44104034)
5(-16.30732178 -21.32361936 -23.24211705 -22.44679873 -18.54046267)
5(-23.82681726 -29.47261632 -30.96381361 -28.36483216 -22.16495833)
5(-33.18298623 -38.76333555 -38.92569353 -33.54762682 -24.34788393)
5(-43.91899693 -48.08521863 -45.84070819 -36.91494299 -24.18539984)
5(-54.97834393 -56.31594989 -50.43715742 -37.24203791 -21.53288246)
5(-64.80855933 -61.40793878 -51.33286432 -33.8863112 -17.06877747)
5(-71.2110099 -61.82801881 -47.87425494 -27.44238201 -11.8260207)
5(-72.47172193 -57.2118923 -40.22300172 -19.34944553 -7.014939039)
5(-67.40515791 -48.02521961 -29.90678287 -11.71938935 -3.438464739)
5(-56.87145646 -35.85669286 -18.93496075 -5.97256562 -1.340885876)
5(-42.49723246 -23.30576803 -9.986237929 -2.468562937 -0.4005230961)
5(-27.97185751 -12.82699913 -4.240662489 -0.7937465011 -0.08826228225)
5(-15.22851503 -5.648438902 -1.432346899 -0.1822043004 -0.01437224116)
5(-6.890758595 -1.92402898 -0.3427935006 -0.03082408523 -0.001491114732)
5(-2.285088844 -0.4783389972 -0.05919255497 -0.003512816012 -9.993568481e-05)
5(-0.5970719174 -0.0833201304 -0.007172554159 -0.0002619146949 -3.896992917e-06)
5(-0.09099245628 -0.008370569512 -0.0004457006713 -1.175412107e-05 -8.215232356e-08)
5(-0.008149818423 -0.0005271512979 -1.505801206e-05 -5.220738321e-07 -8.102811351e-10)
5(-0.0002849231008 -1.055210178e-05 -2.838748646e-07 -2.638323779e-08 -6.088574778e-12)
5(-4.239747648e-06 -7.497426109e-08 -5.282177355e-09 -8.051237048e-10 -1.260918368e-14)
5(-1.807907827e-08 -8.38208924e-10 -1.22961081e-10 -1.182558084e-11 -6.333809767e-18)
5(-6.422811848e-12 1.781376411e-11 6.224046013e-11 1.01617575e-12 -1.324001268e-21)
5(-8.767726559e-19 -4.153623992e-20 2.536516343e-12 -5.588570635e-25 -3.726966344e-29)
)


60
(
5(1.162967277e-06 4.769719092e-07 8.142398099e-07 4.004042924e-07 3.562575481e-07)
5(8.850626673e-07 5.322165541e-07 4.945119873e-07 3.012624214e-07 2.002788841e-07)
5(8.003998781e-07 5.979120294e-07 4.145561088e-07 2.809852105e-07 1.595138326e-07)
5(8.655880086e-07 6.913662725e-07 4.506236192e-07 3.112092207e-07 1.721761379e-07)
5(1.068815663e-06 8.396812791e-07 5.698060899e-07 3.857555084e-07 2.231354911e-07)
5(1.401603845e-06 1.055614677e-06 7.502305465e-07 4.996854074e-07 3.104535693e-07)
5(1.803274648e-06 1.338270495e-06 9.620780972e-07 6.402195163e-07 4.140264492e-07)
5(2.273157553e-06 1.70176545e-06 1.209702455e-06 8.202318201e-07 5.369687059e-07)
5(2.849717621e-06 2.176811952e-06 1.525915949e-06 1.056434808e-06 6.967884978e-07)
5(3.64896276e-06 2.804999531e-06 1.96214892e-06 1.376440875e-06 9.140095543e-07)
5(4.727903579e-06 3.636952256e-06 2.553048753e-06 1.801802738e-06 1.214240405e-06)
5(6.168081953e-06 4.712516772e-06 3.334163283e-06 2.359482366e-06 1.612835947e-06)
5(7.946416391e-06 6.06051583e-06 4.331813443e-06 3.064433997e-06 2.118505471e-06)
5(1.021856296e-05 7.76849697e-06 5.585588508e-06 3.953534119e-06 2.748966354e-06)
5(1.30903262e-05 9.917144502e-06 7.15503638e-06 5.059523411e-06 3.549704456e-06)
5(1.679166177e-05 1.259145847e-05 9.098846937e-06 6.389410799e-06 4.490344594e-06)
5(2.112380014e-05 1.575295244e-05 1.13293505e-05 7.675064254e-06 5.267746659e-06)
5(2.631590667e-05 1.891985016e-05 1.316148379e-05 7.471951239e-06 4.197630438e-06)
5(3.165100475e-05 1.955906621e-05 1.120321812e-05 -5.3712962e-07 -6.174220581e-06)
5(3.364794568e-05 7.966713559e-06 -7.754221698e-06 -4.005706711e-05 -5.36362157e-05)
5(1.988700554e-05 -4.934831707e-05 -8.96254926e-05 -0.0001892317607 -0.000230238909)
5(-5.21775898e-05 -0.0002551124445 -0.0003761811883 -0.0006808226386 -0.0008086092442)
5(-0.0003060161993 -0.0008981936419 -0.001270407273 -0.002150780395 -0.002530246444)
5(-0.001081666119 -0.00272713522 -0.003813901493 -0.00617991354 -0.007232725868)
5(-0.003235418227 -0.007540624864 -0.01051038362 -0.01644328406 -0.0191324177)
5(-0.008800583883 -0.01938460788 -0.02694102934 -0.04089799192 -0.04718359383)
5(-0.02225016467 -0.04674758634 -0.06475123575 -0.09550271194 -0.1093209468)
5(-0.05285325951 -0.1066895572 -0.1469765691 -0.2107854225 -0.2386214556)
5(-0.1191555086 -0.2307310284 -0.315677904 -0.4400367749 -0.4932169731)
5(-0.2550639943 -0.4753215401 -0.6450400963 -0.8746388727 -0.9669151294)
5(-0.5215190699 -0.9363056576 -1.256315139 -1.655617269 -1.806467182)
5(-1.019882488 -1.763288816 -2.335881442 -2.993012215 -3.213918289)
5(-1.912427272 -3.182989743 -4.160429507 -5.176905454 -5.456810758)
5(-3.443618343 -5.525798742 -7.096981224 -8.569321227 -8.838256007)
5(-5.959646336 -9.205908204 -11.59214621 -13.57388966 -13.66772268)
5(-9.90041496 -14.74081091 -18.17304935 -20.56170417 -20.15602659)
5(-15.84902215 -22.65959969 -27.2622327 -29.75027991 -28.30709903)
5(-24.40953884 -33.42469836 -39.09969395 -41.04253747 -37.76875161)
5(-36.03024487 -47.20451646 -53.48476724 -53.80383304 -47.50524477)
5(-50.96032326 -63.6273649 -69.46961275 -66.70277629 -55.73655863)
5(-68.80460996 -81.72968343 -85.45890601 -77.78138515 -60.64558498)
5(-88.4530365 -99.46381306 -98.99496473 -84.6507091 -60.59655853)
5(-107.7622898 -113.9956188 -107.3573616 -85.02627675 -55.46482006)
5(-123.6528804 -122.3099198 -108.0414305 -77.69783219 -45.98060895)
5(-132.8224003 -121.7869992 -99.69912327 -64.16018539 -33.96895835)
5(-132.1969417 -111.6238493 -83.41627797 -47.26916952 -21.85301471)
5(-121.1907233 -93.15887607 -61.75143662 -30.41356845 -12.09711706)
5(-100.7928502 -69.43393631 -39.93166491 -16.80902693 -5.486876979)
5(-75.00613072 -45.32509153 -21.87341399 -7.869087605 -2.01573321)
5(-48.81816174 -25.10359273 -9.985412113 -2.876790918 -0.5676420837)
5(-27.05794768 -11.36206684 -3.630151435 -0.8431026982 -0.1147094252)
5(-11.99839721 -4.002320852 -0.9809570674 -0.1745185259 -0.01784569048)
5(-4.046259861 -1.042548103 -0.1924730376 -0.02566538786 -0.001719135461)
5(-0.9380090432 -0.1880254117 -0.02334187123 -0.002160505331 -9.174380575e-05)
5(-0.1487018971 -0.02125480004 -0.001800795346 -0.000129560884 -3.290727975e-06)
5(-0.0125952895 -0.001360315495 -6.838860753e-05 -4.639129735e-06 -4.125024334e-08)
5(-0.0005545709585 -3.44411897e-05 -1.566866322e-06 -1.09837354e-07 -1.911425726e-10)
5(-5.81142009e-06 -4.717438577e-07 -1.822263034e-08 -2.023358367e-09 -5.50994859e-13)
5(-1.609444764e-08 2.790263198e-07 5.083359398e-07 2.58308041e-09 -8.219409205e-17)
5(-6.564185552e-12 -1.159404357e-16 1.31046571e-11 -6.271586328e-24 -5.707577069e-23)
)


60
(
5(2.63862129e-06 1.187551787e-06 1.877895445e-06 9.801412565e-07 7.60732602e-07)
5(2.381778991e-06 1.487341357e-06 1.321335694e-06 8.067720745e-07 4.886362405e-07)
5(2.394536532e-06 1.77930852e-06 1.219202024e-06 8.032410612e-07 4.299020046e-07)
5(2.69524533e-06 2.124414516e-06 1.394080725e-06 9.271944735e-07 4.887937916e-07)
5(3.39570424e-06 2.637950646e-06 1.800731839e-06 1.178087302e-06 6.543250744e-07)
5(4.5050535e-06 3.383606413e-06 2.398378698e-06 1.556175375e-06 9.316381135e-07)
5(5.873149919e-06 4.364344152e-06 3.1368596e-06 2.055280818e-06 1.281883809e-06)
5(7.516612682e-06 5.65709278e-06 4.046909236e-06 2.70153628e-06 1.710141932e-06)
5(9.649124471e-06 7.369381905e-06 5.220609201e-06 3.553793825e-06 2.278062047e-06)
5(1.25670095e-05 9.644841487e-06 6.826007757e-06 4.705481851e-06 3.056217462e-06)
5(1.645469109e-05 1.264072535e-05 8.989978161e-06 6.246639374e-06 4.122120091e-06)
5(2.15948655e-05 1.652058953e-05 1.186064684e-05 8.253379641e-06 5.507124214e-06)
5(2.823023826e-05 2.148095961e-05 1.554539038e-05 1.078850684e-05 7.286738032e-06)
5(3.644117554e-05 2.775008281e-05 2.013935361e-05 1.396525307e-05 9.540290505e-06)
5(4.684330317e-05 3.557678932e-05 2.584142064e-05 1.793135588e-05 1.229305457e-05)
5(5.986199641e-05 4.512759244e-05 3.285499217e-05 2.278627917e-05 1.571696616e-05)
5(7.617412166e-05 5.680662057e-05 4.135139768e-05 2.833230963e-05 1.944683599e-05)
5(9.519138313e-05 7.030485168e-05 5.067008315e-05 3.300748783e-05 2.129957121e-05)
5(0.0001179696438 8.275944342e-05 5.658698122e-05 2.911892636e-05 1.164466022e-05)
5(0.0001386664905 8.363736793e-05 4.310775861e-05 -1.230057256e-05 -4.647416041e-05)
5(0.0001446618776 3.534825596e-05 -4.650813362e-05 -0.0001875480547 -0.0002736408561)
5(8.888866446e-05 -0.0001800157973 -0.0003862916269 -0.0007821922988 -0.001027103627)
5(-0.0001752942413 -0.0008911200519 -0.001467706644 -0.002577869152 -0.003276786748)
5(-0.001044893918 -0.002953843096 -0.00455747485 -0.007525195904 -0.00941677907)
5(-0.003504733976 -0.008431751173 -0.01271743356 -0.02015200367 -0.02497707866)
5(-0.009898602928 -0.02199861571 -0.03274383063 -0.05027105536 -0.06165008358)
5(-0.02540027268 -0.05348146526 -0.07887460229 -0.1177956959 -0.1428387913)
5(-0.06076393254 -0.1225409195 -0.1790547336 -0.2605432542 -0.3125707154)
5(-0.137219082 -0.2662291628 -0.3851864798 -0.5461244985 -0.6471951752)
5(-0.294318748 -0.550710833 -0.7881978193 -1.090206465 -1.275828739)
5(-0.6021921274 -1.088288741 -1.538644335 -2.07555963 -2.393847056)
5(-1.179150806 -2.059746475 -2.870312763 -3.778677684 -4.293332334)
5(-2.21494773 -3.740911975 -5.13995406 -6.590762829 -7.35861699)
5(-3.997453111 -6.530964937 -8.823210226 -11.02147726 -12.07461384)
5(-6.942798047 -10.96497991 -14.54309966 -17.68007026 -18.93691121)
5(-11.61161791 -17.7237464 -23.02380555 -27.20391051 -28.47120542)
5(-18.70493866 -27.56008854 -34.98137787 -40.11035107 -40.89568717)
5(-29.00987811 -41.22419464 -51.02170812 -56.57888703 -56.02140082)
5(-43.29361354 -59.22902605 -71.20273841 -76.17577991 -72.87006261)
5(-62.08108024 -81.56907357 -94.84520753 -97.5941039 -89.31238194)
5(-85.32489753 -107.382714 -120.2329107 -118.448459 -102.5293655)
5(-112.163794 -134.6442903 -144.408792 -135.177384 -109.5934829)
5(-140.4344061 -160.1299178 -163.457736 -144.0050059 -108.975754)
5(-166.9114486 -179.6538041 -173.4324884 -141.9153236 -99.64856029)
5(-187.0989507 -188.875967 -170.9910216 -128.3256815 -82.69224892)
5(-197.0050961 -184.8375382 -154.4597826 -105.5914527 -61.32580104)
5(-193.1793274 -167.456092 -126.1996375 -78.20131784 -40.16964264)
5(-175.170818 -137.4787103 -92.5726617 -50.76061732 -22.53615525)
5(-144.6612937 -100.8578772 -59.19863787 -28.46853082 -10.7800949)
5(-107.9341028 -64.97357283 -31.83776233 -13.19996466 -4.168531447)
5(-70.94309238 -35.65570677 -14.43185092 -5.111531595 -1.254567557)
5(-39.73369721 -15.70288345 -5.214426868 -1.471425042 -0.2688779717)
5(-17.68751042 -5.502373526 -1.40963879 -0.3186856429 -0.04395870106)
5(-6.062692618 -1.406749099 -0.2588668111 -0.04776326755 -0.004520636034)
5(-1.516037973 -0.2389987178 -0.02919112903 -0.004244556101 -0.0002558966274)
5(-0.2134599171 -0.02331013065 -0.001997455335 -0.0002136247798 -9.393348102e-06)
5(-0.01157611589 -0.001635948081 -6.511152982e-05 -6.72066772e-06 -9.820993562e-08)
5(-0.0006821969049 -4.987419598e-05 -1.506334914e-06 -1.403808004e-07 -5.461328284e-10)
5(-6.019291955e-06 -1.79197722e-06 -3.59111461e-06 2.43832227e-07 -4.856424234e-13)
5(-1.410475773e-07 -0.002888684435 -0.008886372379 -4.079484428e-05 -7.883266295e-22)
)


60
(
5(5.381409641e-06 2.642804881e-06 3.884677743e-06 2.126725025e-06 1.478728344e-06)
5(5.507168374e-06 3.571036669e-06 3.063619719e-06 1.874186646e-06 1.054294399e-06)
5(5.944292495e-06 4.440257216e-06 3.030418801e-06 1.9561039e-06 9.983271556e-07)
5(6.885891224e-06 5.405091038e-06 3.578136538e-06 2.326016828e-06 1.1820982e-06)
5(8.729184385e-06 6.789239111e-06 4.675972036e-06 3.006704039e-06 1.625879978e-06)
5(1.160451376e-05 8.816026943e-06 6.270018563e-06 4.032027401e-06 2.355064123e-06)
5(1.524889117e-05 1.15014966e-05 8.313931318e-06 5.410166367e-06 3.320072854e-06)
5(1.976464789e-05 1.508922637e-05 1.090487007e-05 7.239564584e-06 4.529183651e-06)
5(2.56485596e-05 1.982408011e-05 1.426164499e-05 9.679950541e-06 6.15324426e-06)
5(3.362837097e-05 2.613428394e-05 1.883727011e-05 1.2962567e-05 8.350008193e-06)
5(4.429666771e-05 3.448813278e-05 2.500448617e-05 1.732877331e-05 1.138761104e-05)
5(5.850275872e-05 4.532372123e-05 3.312992776e-05 2.299242201e-05 1.530248049e-05)
5(7.643909476e-05 5.919696089e-05 4.346770949e-05 3.020815841e-05 2.03506115e-05)
5(9.975448268e-05 7.657330344e-05 5.648261021e-05 3.923403193e-05 2.657590007e-05)
5(0.0001279217537 9.823170503e-05 7.259838018e-05 5.047789969e-05 3.451081087e-05)
5(0.0001631187675 0.0001247745126 9.255868052e-05 6.437423481e-05 4.433974694e-05)
5(0.0002074347318 0.0001572688723 0.0001166782421 8.108172541e-05 5.605518124e-05)
5(0.00026023547 0.0001959225356 0.0001447882161 9.929447573e-05 6.736502006e-05)
5(0.0003227796138 0.0002386339055 0.0001733845071 0.0001112604401 6.813856797e-05)
5(0.0003922078042 0.0002761222797 0.000186007546 8.773081221e-05 1.815504816e-05)
5(0.000454630115 0.0002715056189 0.0001242212427 -7.096054558e-05 -0.0002163847391)
5(0.0004610581682 0.0001105460086 -0.0001933477761 -0.0006652642797 -0.001031318609)
5(0.0002688628375 -0.0005315529921 -0.00128113779 -0.002514282924 -0.00350660218)
5(-0.0005182290991 -0.002506752091 -0.004474155346 -0.007681728226 -0.01031090844)
5(-0.002907386922 -0.007882707794 -0.01298260983 -0.02099610997 -0.02762440077)
5(-0.009274249592 -0.02132958454 -0.03398838797 -0.05296626221 -0.06864791761)
5(-0.02488525576 -0.05288753014 -0.08258570312 -0.1250414476 -0.1600028999)
5(-0.0607051003 -0.1225134399 -0.1885864145 -0.2783442636 -0.3517587217)
5(-0.1384479351 -0.2682028849 -0.4076938863 -0.5875681982 -0.7327244443)
5(-0.2987142923 -0.5585730676 -0.8380776004 -1.180167781 -1.452090578)
5(-0.6140282489 -1.111297162 -1.644094297 -2.263374572 -2.745493163)
5(-1.207388694 -2.11714128 -3.086440259 -4.154050325 -4.959208233)
5(-2.277410738 -3.873034817 -5.558234539 -7.312263448 -8.591731423)
5(-4.129262122 -6.809615453 -9.616245325 -12.35594835 -14.25504733)
5(-7.205918562 -11.53266081 -15.99237747 -20.0639754 -22.68606335)
5(-12.11984127 -18.8233754 -25.59470379 -31.3131189 -34.64248942)
5(-19.661093 -29.6011277 -39.39461251 -46.93530137 -50.72139319)
5(-30.7614447 -44.86316237 -58.29447278 -67.51750352 -71.07112476)
5(-46.38810837 -65.47926696 -82.8280445 -93.03668048 -94.97068666)
5(-67.37133817 -91.86351502 -112.7749339 -122.522143 -120.37874)
5(-94.08158784 -123.6562896 -146.7362582 -153.548691 -143.8357118)
5(-126.1048217 -159.2660018 -181.8405474 -182.2174064 -161.7929572)
5(-161.7696866 -195.6037309 -213.7005938 -203.5006442 -170.3621372)
5(-198.2090573 -228.0140101 -237.0542087 -212.2413962 -166.9564838)
5(-230.924066 -251.3050045 -246.1374043 -205.6305581 -151.3037041)
5(-254.8873031 -260.3002271 -237.2647399 -183.4311448 -125.1126605)
5(-265.3741688 -251.6723377 -209.877987 -150.0539223 -92.79847169)
5(-258.6784871 -225.1442178 -168.443603 -109.6242427 -60.73576276)
5(-234.6852101 -183.8169286 -121.0677212 -70.72487686 -34.26298143)
5(-196.273671 -135.156318 -76.47855169 -39.73519024 -16.20358605)
5(-148.8701712 -87.40428679 -41.28650855 -18.60141949 -6.333849713)
5(-100.9859139 -47.47811928 -18.3540492 -7.114151072 -2.01083443)
5(-59.60740629 -21.95708568 -6.496520854 -2.022836235 -0.4175929267)
5(-28.81873626 -8.075695646 -1.677038736 -0.4172619659 -0.07246776534)
5(-10.35299118 -2.073785151 -0.299990392 -0.05464389269 -0.006957398833)
5(-3.196851237 -0.3646173574 -0.03220547404 -0.004466286227 -0.0002707439396)
5(-0.5497120646 -0.03663326892 -0.001670069352 -0.0002257917409 -9.521044341e-06)
5(-0.04543401379 -0.002369854759 -6.886845864e-05 -5.18520988e-06 -6.937883356e-08)
5(-0.002724491064 -6.272603011e-05 -2.182456591e-06 -4.851855056e-08 -1.747575894e-10)
5(-0.00347746788 -8.542586281e-06 3.465277241e-10 -9.037524684e-13 -2.028736261e-16)
)


60
(
5(1.003632464e-05 5.319729691e-06 7.329059444e-06 4.172818841e-06 2.661268157e-06)
5(1.12883066e-05 7.561209905e-06 6.308113883e-06 3.862011188e-06 2.05677933e-06)
5(1.272874118e-05 9.630556063e-06 6.572532807e-06 4.165675413e-06 2.055706179e-06)
5(1.506699877e-05 1.187112093e-05 7.937959421e-06 5.059530795e-06 2.550040395e-06)
5(1.925537152e-05 1.501157436e-05 1.041248104e-05 6.635890184e-06 3.579272652e-06)
5(2.559759078e-05 1.958519049e-05 1.402384118e-05 9.020740607e-06 5.23841889e-06)
5(3.37909247e-05 2.573676642e-05 1.875910538e-05 1.226086808e-05 7.530918997e-06)
5(4.40642267e-05 3.40059622e-05 2.485425637e-05 1.660636962e-05 1.041025269e-05)
5(5.766659797e-05 4.505735307e-05 3.286982459e-05 2.244877487e-05 1.432509107e-05)
5(7.589450638e-05 5.973214372e-05 4.376775539e-05 3.030891792e-05 1.966771116e-05)
5(0.0001006348423 7.911063858e-05 5.840624188e-05 4.076480894e-05 2.694811852e-05)
5(0.0001322957429 0.0001041908787 7.755642239e-05 5.432341404e-05 3.63787173e-05)
5(0.0001738651432 0.0001362209069 0.0001020122517 7.158269248e-05 4.850705806e-05)
5(0.0002254193376 0.0001763225602 0.0001325810239 9.321220315e-05 6.355499958e-05)
5(0.0002912426888 0.0002263860947 0.0001705968113 0.000120117582 8.278141653e-05)
5(0.0003717769119 0.0002879511326 0.0002173832082 0.0001532135347 0.0001063512656)
5(0.0004704873083 0.0003628774387 0.0002744135022 0.000193629807 0.0001359010773)
5(0.0005910591651 0.0004531518065 0.0003426541703 0.0002409897295 0.0001687045449)
5(0.0007324623554 0.0005577540848 0.0004196676899 0.0002894555458 0.0001969977353)
5(0.0008992533086 0.0006695783374 0.000491257081 0.0003115245993 0.0001791115451)
5(0.001076049621 0.0007576485114 0.0005024399108 0.0002126580651 -1.793424474e-05)
5(0.001214470681 0.000717555639 0.000279385885 -0.0002949104196 -0.0007958244564)
5(0.001193283193 0.0002518545951 -0.0006710212709 -0.002007047037 -0.003256345478)
5(0.0006291566773 -0.001428731667 -0.003642935264 -0.006940584185 -0.01014244179)
5(-0.001437271214 -0.006255423711 -0.01175957033 -0.01984378779 -0.02781170597)
5(-0.007255124187 -0.01864060253 -0.03204751545 -0.05114545913 -0.07002223949)
5(-0.02184790149 -0.04802295418 -0.07935001584 -0.1223129346 -0.16453168)
5(-0.05577944976 -0.1135174904 -0.1832353987 -0.2747872049 -0.3640918003)
5(-0.1300122725 -0.25172257 -0.3991816269 -0.5846316592 -0.7637112831)
5(-0.2838242418 -0.5292529908 -0.8258958452 -1.183624055 -1.524495257)
5(-0.5877097461 -1.060688795 -1.630270422 -2.2875223 -2.903294052)
5(-1.162036843 -2.034864479 -3.081714998 -4.233868882 -5.291637753)
5(-2.202994081 -3.750574153 -5.58754677 -7.51958342 -9.246451081)
5(-4.015305857 -6.647468595 -9.74048102 -12.83509599 -15.50212422)
5(-7.044898126 -11.35127216 -16.3381973 -21.074047 -24.97121687)
5(-11.91874531 -18.69233594 -26.40262657 -33.29661699 -38.66612733)
5(-19.46114521 -29.69731982 -41.12291082 -50.634977 -57.55094842)
5(-30.67452155 -45.54379025 -61.67670098 -74.0762846 -82.20997968)
5(-46.67537463 -67.37531474 -89.03458734 -104.110558 -112.3188942)
5(-68.513327 -96.03706557 -123.5161598 -140.2256232 -146.2277725)
5(-96.95254485 -131.7488129 -164.3107863 -180.5705416 -180.9499783)
5(-132.0416492 -173.5592441 -209.1284313 -221.4090646 -211.347802)
5(-172.8200478 -219.0170793 -253.8211072 -257.032706 -233.4420192)
5(-217.1254616 -263.8652106 -292.3867693 -280.7699559 -241.3907952)
5(-261.1652909 -302.6957342 -317.948598 -287.4003781 -233.4237266)
5(-299.7361645 -329.197367 -323.9860805 -273.7981483 -207.7484267)
5(-328.2599266 -337.7658292 -306.9637964 -240.9713568 -168.3856315)
5(-338.7945343 -324.6193946 -267.8376396 -194.3966609 -124.0479638)
5(-330.7030975 -289.9801088 -213.8512545 -140.9094599 -80.36291839)
5(-304.8962566 -238.9345033 -152.8503403 -89.48594475 -44.79638729)
5(-257.9882 -177.4473467 -96.38525823 -49.31725526 -20.9711387)
5(-201.5449277 -119.4059969 -52.12730938 -22.77084025 -8.16698978)
5(-140.6865771 -67.62794854 -23.86325964 -8.272148049 -2.384006261)
5(-89.42878774 -32.81742418 -8.365275329 -2.382986376 -0.5317088979)
5(-46.03059926 -12.82289407 -2.120576842 -0.4591870871 -0.07245941913)
5(-22.05007578 -3.731085493 -0.3248356719 -0.05496411431 -0.006116950316)
5(-7.292898951 -0.8760610159 -0.04343060717 -0.003887414369 -0.0001911739285)
5(-1.993269117 -0.08730834585 -0.002546265764 -0.0001753994228 -5.34699477e-06)
5(-0.406696007 -0.007542428342 2.934852236e-05 -2.558021042e-06 -1.523842557e-08)
5(-0.5821894621 -0.01080968843 3.325349313e-09 -1.427022324e-08 -4.884442257e-05)
)


60
(
5(1.742213398e-05 9.83514968e-06 1.282463274e-05 7.530340197e-06 4.507849681e-06)
5(2.101368114e-05 1.444561503e-05 1.176272033e-05 7.238749044e-06 3.709792391e-06)
5(2.458354744e-05 1.873755723e-05 1.274309336e-05 8.00801288e-06 3.889174637e-06)
5(2.951275695e-05 2.328215528e-05 1.565929078e-05 9.889480968e-06 4.919687042e-06)
5(3.787879546e-05 2.959633876e-05 2.070244518e-05 1.311857402e-05 7.068644155e-06)
5(5.030628052e-05 3.88259619e-05 2.79266671e-05 1.797155221e-05 1.0484819e-05)
5(6.662070137e-05 5.126372614e-05 3.758235347e-05 2.468272737e-05 1.519650072e-05)
5(8.75396997e-05 6.807026772e-05 5.023833559e-05 3.380541393e-05 2.136964474e-05)
5(0.0001147457368 9.068903274e-05 6.698541948e-05 4.610362804e-05 2.968821236e-05)
5(0.0001521782275 0.0001206495166 8.966816886e-05 6.268841308e-05 4.126442851e-05)
5(0.0002010850119 0.0001601529357 0.0001200777124 8.462311213e-05 5.663553121e-05)
5(0.0002657164976 0.0002110363332 0.0001597369929 0.0001131362629 7.679994332e-05)
5(0.0003487162909 0.0002760081928 0.0002103361117 0.0001493919877 0.0001024299544)
5(0.0004537869553 0.0003578229308 0.0002734907775 0.000194815727 0.0001347338355)
5(0.000584639805 0.0004597669829 0.0003519476909 0.0002513103571 0.0001754568521)
5(0.0007456406492 0.0005844309247 0.0004484918349 0.0003209218759 0.0002265381352)
5(0.0009439075996 0.0007363058256 0.000566797016 0.000406307356 0.0002898321645)
5(0.001180135498 0.0009193399743 0.000709002733 0.0005090535573 0.0003659256428)