/*--------------------------------*- C++ -*----------------------------------*\
| =========                 |                                                 |
| \\      /  F ield         | OpenFOAM: The Open Source CFD Toolbox           |
|  \\    /   O peration     | Version:  2.3.1                                 |
|   \\  /    A nd           | Web:      www.OpenFOAM.org                      |
|    \\/     M anipulation  |                                                 |
\*---------------------------------------------------------------------------*/
FoamFile
{
    version     2.0;
    format      ascii;
    class       dictionary;
    location    "constant";
    object      rCH2(S);
}
// * * * * * * * * * * * * * * * * * * * * * * * * * * * * * * * * * * * * * //

rCH2(S)_table
60
(

60
(
5(2.469450248e-06 6.785411771e-07 1.760561682e-06 1.203992979e-06 1.986602396e-06)
5(-7.263891393e-07 -1.493168502e-06 -2.251317499e-06 -2.013561111e-06 -3.532797621e-07)
5(-0.06865533705 2.050492902e-06 8.161205134e-06 2.320329861e-06 0)
5(-0.1767397901 3.970614959e-06 1.522456956e-05 8.292517854e-06 1.375624034e-05)
5(-0.1606032529 1.858097046e-06 8.390600806e-06 2.830898268e-06 5.927165083e-06)
5(-0.1015564494 -3.121444913e-07 -3.376230179e-07 -6.005902779e-07 -6.64980127e-07)
5(-7.337747736e-07 -8.61169884e-07 -4.032509663e-06 -1.694975741e-06 -4.034050853e-07)
5(-6.534202782e-07 -5.516794783e-07 -2.346766601e-06 -1.289117567e-06 -6.824521977e-07)
5(-0.07688661265 -3.955618674e-08 -6.779877927e-06 9.393553661e-08 4.054083309e-07)
5(-0.1086066889 -6.727970706e-05 -5.051756816e-06 -7.768252052e-07 1.115595351e-06)
5(-0.1045673115 -0.0001024019113 -2.439322e-06 -2.380554126e-06 1.205102748e-06)
5(-0.03684323052 -2.274977762e-09 -1.069174032e-06 -2.525379315e-09 -2.100648841e-06)
5(-1.628972139e-07 -1.321906631e-07 -4.364163507e-07 -5.138839335e-07 -7.361560146e-07)
5(-9.201647814e-08 -9.648340941e-08 -1.346307905e-07 -1.210566686e-07 -1.059827437e-06)
5(-2.531834421e-08 -1.839586124e-07 -8.848523284e-08 -1.588153167e-07 -6.403622295e-09)
5(-0.002590857314 -9.697818533e-05 -5.743730663e-05 -1.545287263e-05 -3.420961996e-06)
5(-0.002117730152 -7.213795665e-05 -7.71226268e-05 -6.425643651e-06 -3.294917025e-07)
5(-0.0007953151548 -4.592565793e-05 -4.453817821e-06 -1.910893835e-07 -2.458052727e-07)
5(-8.467792133e-08 -1.779588023e-05 -3.878928882e-07 -2.971719436e-07 -2.771358716e-05)
5(-9.255524147e-07 -1.814787148e-06 -5.389577704e-07 -7.771484028e-07 -2.215416982e-05)
5(-1.267524577e-06 -7.49663389e-06 -1.867353431e-06 -2.570627074e-07 -1.271107135e-06)
5(-2.62685495e-06 -1.310220187e-06 -3.890380888e-05 -2.049927172e-06 -5.300896494e-07)
5(-5.628091618e-07 -2.800478772e-06 -2.399832188e-05 -4.911688424e-06 -4.01082529e-06)
5(-1.735914938e-06 -2.559890524e-06 -6.628999355e-06 -2.364793385e-06 -1.009996638e-06)
5(-6.504269592e-05 -0.0003701048912 -1.939481602e-06 -5.186325521e-06 -7.112761703e-07)
5(-5.319046378e-05 -0.0009837531456 -1.519541638e-05 -6.636407354e-06 -3.285351161e-06)
5(-4.226895215e-06 -0.000709811391 -2.607290957e-05 -1.478809561e-05 -1.120114257e-05)
5(-9.638247103e-06 -1.462992895e-05 -1.50249037e-05 -1.652073046e-05 -9.601839396e-06)
5(-6.68069772e-05 -4.264268208e-05 -3.077531208e-05 -3.2371832e-05 -4.983233319e-05)
5(-4.141756199e-05 -5.48819831e-05 -9.139662405e-05 -7.268303345e-05 -2.406160177e-05)
5(-7.612626305e-05 -0.0001217828907 -0.0001180156676 4.562149527e-05 -8.242000353e-05)
5(-8.28775181e-05 -0.0001115178757 -9.706371681e-05 0.0001251562605 -0.0002374773042)
5(-0.0002209751191 -0.000514108305 -0.0002836816509 -2.505550365e-05 -0.0005381113739)
5(-0.0005187613671 -0.0008246642959 -0.0005633544883 -0.0001302460452 -5.038709297e-05)
5(-0.0008745300064 -0.00025016121 -0.001151820494 -0.0002167648171 -0.001452403504)
5(-0.001282172234 -0.0002168281514 -0.0006804363579 -0.0005878767097 -0.003396613485)
5(-0.001750670097 -0.0003211598461 -0.0006604667291 -0.0002012353877 -0.001667738763)
5(-0.001073005553 -0.0009034079171 -0.001216469228 -0.001800490668 -0.004672933459)
5(-0.0005713853453 -0.0006184485427 -0.005035745241 -0.002393500597 -0.00853215077)
5(-0.001708933868 -0.0007361367543 0.001066467254 -0.00190538832 -0.0007754726712)
5(-0.00160100214 -0.002110295392 0.007710846297 -0.008976991287 -0.00124565051)
5(5.998302134e-05 -0.00399939572 0.005193192338 -0.07260149476 -1.224248675e-19)
5(0.000776043949 0.0002102395649 -0.001895547653 -2.296714298e-21 -6.348677843e-21)
5(0.0001353168007 0.004996188076 -0.01017172223 2.47337577e-21 -0.001129651026)
5(-0.001063498831 0.007048496529 -0.02071492373 -9.454128412e-21 -1.641590511e-05)
5(-0.000686973791 -0.0004010694332 -0.002505453222 -2.428828288e-19 -2.66082852e-19)
5(0.0003737161232 -0.01232904307 -0.0139479589 -0.0001299366486 -2.873304081e-19)
5(-0.004152143683 -0.0009458579269 -0.003591481653 -2.450861873e-18 -2.362016184e-18)
5(-0.0008827518216 -0.0003641170461 -0.0003113193966 -2.679024179e-18 -1.404193603e-17)
5(-0.0008354548193 -0.0001952118631 -5.398920203e-19 -5.0144194e-18 -1.712755219e-17)
5(-0.001787598772 -4.811717159e-19 -3.451112093e-19 -5.555694427e-18 -1.715428287e-17)
5(-0.003024485646 -1.004945373e-19 -1.046517611e-18 -4.939200504e-19 6.712071221e-18)
5(-3.141551305e-05 2.972088762e-19 -6.691153854e-19 -2.847690307e-18 -3.832342679e-17)
5(-1.437251041e-19 8.762021197e-20 -3.272875128e-18 4.463895105e-17 3.888838271e-17)
5(-5.02159102e-19 -7.920785747e-18 6.391445456e-19 -1.646080974e-17 9.775518937e-17)
5(-3.744046268e-15 -6.067255912e-18 -2.061113663e-18 -4.969581509e-17 -3.698069397e-17)
5(-1.453462109e-14 -9.761435657e-18 6.794186168e-18 -2.554035272e-17 -1.168489953e-16)
5(-1.975205623e-14 -2.562559906e-14 -1.101751788e-16 -7.233586138e-16 -5.220272301e-15)
5(-1.5969317e-14 -4.270370814e-14 -8.214932569e-14 -1.070023661e-15 -4.323295271e-16)
5(-5.162349071e-18 -2.235947356e-17 -8.848273135e-17 -3.478863956e-16 -8.597926575e-16)
)


60
(
5(7.475895655e-07 -2.624103511e-07 -2.09958917e-07 -1.490489228e-07 1.204918936e-07)
5(-1.742042106e-07 -2.910306172e-08 -5.277999206e-08 -4.368715578e-08 -5.120299572e-07)
5(-7.121293489e-08 -2.635592021e-08 -4.02281422e-08 -4.121178144e-08 -2.179172099e-07)
5(-1.509511398e-07 -2.555989732e-08 -3.410618783e-08 -4.791101962e-08 -4.353702295e-07)
5(-2.330976734e-06 -2.959816674e-08 -6.115753561e-08 -6.195995597e-08 -1.578276321e-07)
5(-1.409843807e-06 -5.138375068e-08 -8.271202402e-08 -9.286129509e-08 -4.551870434e-07)
5(-1.254945755e-06 -8.668752502e-08 -1.02273135e-07 -1.204585176e-07 -4.403582954e-07)
5(-2.462349875e-06 -1.170141302e-07 -1.371026695e-07 -1.603029397e-07 -1.05541231e-06)
5(-4.401564986e-06 -1.418616188e-07 -1.774157131e-07 -2.118725587e-07 -2.743279163e-06)
5(-1.10483505e-06 -1.805883364e-07 -2.364810374e-07 -2.829925832e-07 -9.252270401e-06)
5(-7.135156943e-06 -2.590535983e-07 -3.282311435e-07 -3.81966555e-07 -7.512363782e-06)
5(-3.139693522e-06 -3.82779567e-07 -4.530910653e-07 -5.16771072e-07 -2.18259362e-06)
5(-2.405201278e-06 -5.145476259e-07 -6.059128075e-07 -6.92938862e-07 -8.270176739e-06)
5(-5.232664205e-06 -6.984420935e-07 -8.236859969e-07 -9.476426344e-07 -7.758422049e-06)
5(-7.724903451e-06 -9.024234298e-07 -1.099548291e-06 -1.290057453e-06 -7.507327253e-06)
5(-1.026134078e-06 -1.230982232e-06 -1.495643399e-06 -1.809339249e-06 -1.199847634e-05)
5(-1.80629783e-05 -1.804068133e-06 -2.159441101e-06 -2.612365744e-06 -2.246299631e-05)
5(-2.193819182e-05 -2.590284628e-06 -3.116378923e-06 -3.794904582e-06 -2.040654748e-05)
5(-2.458767822e-05 -3.677015207e-06 -4.489793363e-06 -5.614898705e-06 -2.753661565e-05)
5(-2.939763775e-05 -5.334786537e-06 -6.689015974e-06 -8.573717756e-06 -1.335478982e-05)
5(-5.038784277e-05 -8.052136891e-06 -1.034879981e-05 -1.357131774e-05 -5.406016057e-05)
5(-9.047122034e-05 -1.25083672e-05 -1.63656556e-05 -2.183703829e-05 -5.27446932e-05)
5(-9.1659627e-05 -1.998218703e-05 -2.672861353e-05 -3.605080308e-05 -5.778631611e-05)
5(-5.609252547e-05 -3.293689024e-05 -4.480283641e-05 -6.100423397e-05 -7.973113619e-05)
5(-0.0001684196625 -5.525297958e-05 -7.584028175e-05 -0.0001037352124 -0.0001526561262)
5(-0.0001267678029 -9.497644679e-05 -0.0001305457198 -0.0001776818565 -0.0003374371121)
5(-0.0001911586688 -0.0001636679773 -0.0002243272971 -0.0003014175243 -0.0006291873277)
5(-0.0002205746516 -0.0002766732435 -0.0003794224308 -0.000501925346 -0.0008523054596)
5(-0.000508204633 -0.0004587441549 -0.0006295138012 -0.0008128728629 -0.0009989655591)
5(-0.0004074832991 -0.0007447678134 -0.001011669847 -0.001265809666 -0.002032864642)
5(-0.001109458747 -0.001173458873 -0.001569812009 -0.00189215963 -0.002053346841)
5(-0.001937378304 -0.00177912337 -0.002320258684 -0.002680647566 -0.002509981909)
5(-0.002729616427 -0.002553500553 -0.003231863581 -0.003563257301 -0.005572955332)
5(-0.002833999821 -0.003487222054 -0.004239613362 -0.00439071459 -0.005019455467)
5(-0.004539405798 -0.004445015431 -0.005113267122 -0.004847993749 -0.005911370816)
5(-0.004151139199 -0.005188713944 -0.005573601028 -0.004574770825 -0.006694666777)
5(-0.009920332923 -0.005355966783 -0.005112623884 -0.003194887837 -0.007162735229)
5(-0.006429717644 -0.004360565532 -0.003029158267 -0.0004298470915 -0.005922320689)
5(-0.005744774525 -0.001856991062 0.0008272486828 0.00385768449 -0.002955257628)
5(-0.004342408862 0.00228106017 0.006024256935 0.008644685551 0.006534450492)
5(-0.00269206438 0.007787009725 0.01180707553 0.01276328454 0.00274660404)
5(-0.0009838855371 0.01398875032 0.01653391608 0.01457163153 0.005716258817)
5(0.0124096725 0.01875946005 0.01869702139 0.01285221231 0.0002460575943)
5(0.0152371887 0.01981561897 0.01623790568 0.007667327153 -0.002836234734)
5(0.01623785049 0.01619377891 0.009754800795 0.001224902283 -0.004839043787)
5(0.007442071691 0.009187995317 0.001982971274 -0.003422260549 -0.00284339823)
5(-0.02031642683 -0.0001810590653 -0.005191148367 -0.005159915751 -0.002442301946)
5(-0.01821652446 -0.007328688211 -0.008481607539 -0.004518406015 -0.002008745091)
5(-0.01990730933 -0.01017849439 -0.007516459362 -0.002788390073 -0.0007883548114)
5(-0.01391090035 -0.008912373306 -0.004546033595 -0.001280059496 -0.0003136417069)
5(-0.01051134479 -0.0053663866 -0.002059002353 -0.000446729011 -0.0001209468748)
5(-0.00732173174 -0.002320571996 -0.0006804249917 -0.0001247421443 -2.374430678e-05)
5(-0.003101155767 -0.0007171883359 -0.0001718874259 -2.902643661e-05 -7.826666036e-06)
5(-0.000833553929 -0.0001511022865 -3.198311031e-05 -5.760859311e-06 -8.396090121e-07)
5(-0.0001174990446 -2.345828919e-05 -4.677514535e-06 -9.589240553e-07 -9.055320342e-08)
5(-6.350451497e-06 -2.121692992e-06 -5.31461589e-07 -1.206740817e-07 -1.975167597e-08)
5(-4.12246352e-07 -1.53985756e-07 -3.295877922e-08 -1.020685001e-08 -1.96438132e-09)
5(-1.301664472e-08 -4.793770528e-09 -1.197661991e-09 8.875938334e-10 -5.812275757e-11)
5(-4.426634857e-11 -4.85445867e-09 -1.58888651e-08 -2.344889903e-09 -7.741719176e-13)
5(-1.219658939e-16 -2.859990391e-16 -0.000412771944 -1.591517147e-15 -7.934820402e-15)
)


60
(
5(6.225641537e-07 -8.841461246e-07 -8.625342348e-08 -4.868452199e-07 -4.29660367e-07)
5(-1.095374073e-06 -1.009112627e-07 -1.707496486e-07 -1.830470352e-07 -9.349015185e-07)
5(-9.572781579e-08 -1.105485992e-07 -1.437869781e-07 -1.743870693e-07 -5.598712561e-07)
5(-1.997788507e-06 -1.360599375e-07 -1.556152629e-07 -2.030572854e-07 -6.040249688e-06)
5(-1.558034264e-06 -1.821250086e-07 -2.192372924e-07 -2.784694882e-07 -1.164575273e-06)
5(-9.472850488e-07 -2.545529605e-07 -3.266518902e-07 -3.896620652e-07 -2.450149759e-06)
5(-1.778329278e-06 -3.444879126e-07 -4.431772644e-07 -5.14979322e-07 -6.424259867e-07)
5(-5.316919843e-06 -4.57689645e-07 -5.748467618e-07 -6.654776886e-07 -3.887959471e-06)
5(-1.726644929e-06 -6.060057309e-07 -7.3779354e-07 -8.450445777e-07 -1.359575172e-05)
5(-3.005572405e-06 -7.999128412e-07 -9.444603569e-07 -1.07736092e-06 -5.160653973e-06)
5(-6.220534702e-06 -1.056866303e-06 -1.231636968e-06 -1.385271754e-06 -4.292845196e-06)
5(-1.870377716e-05 -1.356724649e-06 -1.589835232e-06 -1.778009928e-06 -7.273598687e-06)
5(-7.001247565e-06 -1.7482295e-06 -2.05984922e-06 -2.29114373e-06 -9.101576936e-06)
5(-4.30181366e-06 -2.277680064e-06 -2.65485631e-06 -2.995829096e-06 -5.318299711e-06)
5(-1.16073552e-05 -2.951484679e-06 -3.503237042e-06 -3.967250854e-06 -1.976024496e-05)
5(-6.496333099e-05 -3.87938106e-06 -4.566954671e-06 -5.339425085e-06 -2.620541568e-05)
5(-3.607076942e-05 -5.036192004e-06 -6.13795768e-06 -7.353386579e-06 -2.735159506e-05)
5(-2.658285779e-05 -6.685452386e-06 -8.222478184e-06 -1.024992839e-05 -4.953079217e-05)
5(-3.728180606e-05 -8.971967707e-06 -1.149052755e-05 -1.459137423e-05 -6.873732863e-05)
5(-4.315280461e-05 -1.220478176e-05 -1.619898084e-05 -2.125430126e-05 -6.727424193e-05)
5(-0.0001189145532 -1.710190147e-05 -2.362035187e-05 -3.181133198e-05 -3.930667572e-05)
5(-0.0001006739492 -2.501391931e-05 -3.511413351e-05 -4.881990764e-05 -0.0001989233139)
5(-4.960746741e-05 -3.806648341e-05 -5.451812104e-05 -7.798716322e-05 -0.0002016902503)
5(-0.0001622864337 -6.014068888e-05 -8.814067064e-05 -0.0001278950929 -0.0002654464958)
5(-0.0002202020338 -9.84524772e-05 -0.0001472565585 -0.0002143749625 -0.0003561694034)
5(-0.0002065361464 -0.0001662328146 -0.0002501217099 -0.0003640904436 -0.0007221797652)
5(-0.0003349058551 -0.0002817014887 -0.0004250559081 -0.0006116263463 -0.001128510377)
5(-0.0009607942506 -0.0004792717589 -0.0007170446552 -0.001019087419 -0.001419571372)
5(-0.0007919950083 -0.0008030910876 -0.001191927102 -0.001651272849 -0.00239429385)
5(-0.001866944837 -0.001313099069 -0.001929710888 -0.00259971109 -0.00545666184)
5(-0.001919657146 -0.002090385776 -0.003009317238 -0.003933599628 -0.004651839662)
5(-0.0025096753 -0.003205369613 -0.004496681249 -0.0056814475 -0.007759950695)
5(-0.003993205475 -0.004683491066 -0.006414453458 -0.007769545219 -0.008060420212)
5(-0.006002588626 -0.006507677623 -0.008647975847 -0.00986289496 -0.01430352096)
5(-0.006861899973 -0.0085169724 -0.01082847104 -0.01153019918 -0.01150049997)
5(-0.01512043616 -0.0103224974 -0.01233257221 -0.01202722357 -0.01768344105)
5(-0.03174995195 -0.01123340112 -0.01232231796 -0.01036229751 -0.01828699825)
5(-0.01279928207 -0.01045918194 -0.009585770511 -0.005579909819 -0.006809098325)
5(-0.02792120109 -0.007151960768 -0.003031886775 0.002749001624 0.006579950595)
5(-0.0162396568 -0.0002922388119 0.0069593773 0.01396983061 0.0033129216)
5(-0.01202832015 0.01048795953 0.01974371033 0.02612237112 0.02169964533)
5(-0.007919337134 0.02303053281 0.03327760035 0.03601902388 0.02152055022)
5(0.01798173135 0.0350244302 0.04313441764 0.03974363913 0.02096756495)
5(0.02563186133 0.04243093103 0.04445858642 0.03326211372 0.002950706528)
5(0.03424073075 0.04182286354 0.0357025098 0.01984856501 0.002458693145)
5(0.03464840554 0.03101370427 0.01986455232 0.004041137797 -0.006127346211)
5(0.02811238842 0.01338627707 -0.0002052193463 -0.009647120646 -0.0148740698)
5(0.01137264154 -0.005388635366 -0.01482014711 -0.01586124324 -0.01230269581)
5(-0.01739523371 -0.01816089265 -0.02121136641 -0.01443562619 -0.008292160599)
5(-0.01820882558 -0.02246280454 -0.01831160738 -0.01008321709 -0.004627993893)
5(-0.01731400217 -0.0183882906 -0.01161989495 -0.00509695138 -0.0014836029)
5(-0.009773914504 -0.01091853083 -0.005469983497 -0.001951093146 -0.0005676874395)
5(-0.005139632652 -0.004692896163 -0.001843434227 -0.0005625406983 -0.0001328882774)
5(-0.003340919542 -0.001374887713 -0.0004305165859 -0.0001178005804 -2.763035176e-05)
5(-0.0006565895679 -0.000267382108 -7.081487513e-05 -1.961211169e-05 -4.448068647e-06)
5(-0.000185255208 -3.252795864e-05 -7.382284343e-06 -2.384838248e-06 -5.860842701e-07)
5(-1.219630535e-05 -1.839713386e-06 -5.147782415e-07 -1.754698149e-07 -4.533687689e-08)
5(-2.977473288e-07 -2.976232973e-07 -1.600897819e-08 -1.757621099e-07 -1.584823777e-09)
5(-1.666992866e-09 -0.0001156900033 -4.083726708e-08 -7.223286902e-05 -1.378917207e-11)
5(-1.752860686e-13 -9.591726337e-16 -0.0007428203877 -3.365503942e-15 -4.128921897e-14)
)


60
(
5(4.818509226e-06 -9.720749224e-07 -9.431935612e-07 -1.462978516e-06 -2.113401153e-06)
5(-4.622784098e-07 -2.696012112e-07 -4.626971896e-07 -5.389014908e-07 -1.466757944e-06)
5(-1.112261163e-06 -3.126610644e-07 -4.214542103e-07 -5.361561277e-07 -2.610408849e-06)
5(-1.153875514e-06 -3.936978357e-07 -4.93194321e-07 -6.414499413e-07 -4.550987773e-06)
5(-1.013015476e-06 -5.333861547e-07 -6.846630278e-07 -8.625404117e-07 -2.775327993e-06)
5(-3.338299726e-06 -7.379570922e-07 -9.734456381e-07 -1.175856354e-06 -4.904675349e-06)
5(-4.573468243e-06 -9.973647132e-07 -1.310649128e-06 -1.538922217e-06 -5.601004866e-06)
5(-3.499662703e-06 -1.331314378e-06 -1.701764019e-06 -1.939990359e-06 -3.61449144e-06)
5(-4.964519563e-06 -1.738972739e-06 -2.146644974e-06 -2.402542851e-06 -1.556655835e-05)
5(-1.408067851e-05 -2.260210104e-06 -2.699664229e-06 -2.980850026e-06 -1.14508062e-05)
5(-1.736113956e-05 -2.896627305e-06 -3.409389164e-06 -3.708131426e-06 -2.177833589e-05)
5(-2.918009307e-05 -3.689270444e-06 -4.286140743e-06 -4.569995743e-06 -1.324891918e-05)
5(-5.111748576e-05 -4.656844405e-06 -5.376549477e-06 -5.720402348e-06 -2.190922239e-05)
5(-2.945458224e-05 -5.883775986e-06 -6.747401683e-06 -7.352398937e-06 -5.648771888e-05)
5(-3.091852133e-05 -7.329439376e-06 -8.526630019e-06 -9.480260042e-06 -3.237993999e-05)
5(-4.489266613e-05 -9.190225781e-06 -1.096040226e-05 -1.245064811e-05 -4.963635715e-05)
5(-0.0001284403445 -1.178965339e-05 -1.441218661e-05 -1.691699654e-05 -5.198442485e-05)
5(-5.656299226e-05 -1.500812104e-05 -1.881786965e-05 -2.290291655e-05 -5.19587317e-05)
5(-0.0002448714929 -1.92892462e-05 -2.498251038e-05 -3.14484588e-05 -0.0001345134751)
5(-7.20966071e-05 -2.515975058e-05 -3.325563421e-05 -4.293267138e-05 -0.0001265037009)
5(-0.0001021867467 -3.283912502e-05 -4.528910724e-05 -6.052261812e-05 -0.0001312544322)
5(-0.0006732329076 -4.417021842e-05 -6.314539019e-05 -8.713437076e-05 -0.0005120723367)
5(-0.000967611793 -6.178579305e-05 -9.218212427e-05 -0.0001303520258 -0.0004091965203)
5(-0.0001384842003 -9.038731525e-05 -0.0001376553813 -0.0002029891414 -0.0006307564888)
5(-0.0005152506368 -0.0001382920482 -0.0002166497867 -0.0003269740436 -0.0004819474079)
5(-0.0005481488091 -0.0002231968014 -0.00035655791 -0.0005393433078 -0.0009154256307)
5(-0.0007564648566 -0.000369935228 -0.0005997186206 -0.0009024677223 -0.001769101836)
5(-0.0005805095249 -0.0006261823617 -0.0010076464 -0.001498420033 -0.002377601614)
5(-0.001231104599 -0.001057505051 -0.001680951985 -0.002444931423 -0.003656150232)
5(-0.001811196325 -0.001751359302 -0.002747353049 -0.003886587399 -0.004829600949)
5(-0.002245540772 -0.002821817799 -0.004348039671 -0.005965537368 -0.009129135193)
5(-0.003848847186 -0.00439608792 -0.006596259982 -0.0087693942 -0.01271573628)
5(-0.006374015759 -0.006563669327 -0.009579738724 -0.01229645605 -0.01961236098)
5(-0.007978677114 -0.009378419162 -0.0132122866 -0.01614578414 -0.01959959253)
5(-0.01295966718 -0.01265944885 -0.01711474365 -0.01981004965 -0.04073384847)
5(-0.01393801735 -0.01600638193 -0.02042200005 -0.02217301799 -0.02566283427)
5(-0.01541435104 -0.01845707656 -0.02202720907 -0.02155198814 -0.03120296023)
5(-0.02956575364 -0.01900928314 -0.01993897676 -0.016392291 -0.03876068843)
5(-0.03216231125 -0.01594533018 -0.01276884513 -0.005301675108 -0.004795939986)
5(-0.02383978047 -0.007760723365 0.0004641752729 0.01216371641 -0.003066469672)
5(-0.01837439648 0.005499940929 0.02020613764 0.03398260479 0.03276793252)
5(-0.004981444158 0.02378904078 0.04313135116 0.055143835 0.05511678219)
5(0.009306400523 0.04420760275 0.06345766461 0.06937546109 0.05805539556)
5(0.03212068891 0.06164643137 0.07541764416 0.07059159681 0.04432638204)
5(0.04406521565 0.06882640306 0.07410071805 0.05578122911 0.01353200649)
5(0.05305297458 0.06238261165 0.05476905095 0.03026496185 0.01436459293)
5(0.05397898949 0.04654741648 0.02273277149 0.00230237366 -0.02108304018)
5(0.03004546348 0.01519910335 -0.005626499022 -0.02201882536 -0.02607521302)
5(0.0007480302509 -0.01528564012 -0.02802283151 -0.0316614105 -0.02720010087)
5(-0.00809036473 -0.03226712434 -0.0375569408 -0.02946677439 -0.02099353637)
5(-0.02355254976 -0.03421934987 -0.03019853646 -0.01902152821 -0.0124479427)
5(-0.03580991309 -0.02709761555 -0.01804611381 -0.009539591958 -0.003602944671)
5(-0.02242734273 -0.0148419381 -0.007879183235 -0.003509423188 -0.001194608944)
5(-0.01591767544 -0.005797273195 -0.002378521894 -0.000930957906 -0.0002202500071)
5(-0.004216292288 -0.001495005291 -0.0004676397359 -0.0001700408982 -4.122805569e-05)
5(-0.001235441403 -0.000226338921 -5.916334914e-05 -2.062299993e-05 -5.319231525e-06)
5(-8.000679476e-05 -2.056546176e-05 -3.727604986e-06 -1.58939106e-06 -4.205268647e-07)
5(-6.637076393e-06 4.97525277e-07 -1.502544385e-07 1.464769231e-06 -1.946680937e-08)
5(-9.198054201e-08 0.0007188408803 -6.928407658e-06 0.000701716922 -1.953878461e-10)
5(-1.373664907e-09 1.234269168e-05 7.326687224e-13 2.977911673e-07 2.633844959e-13)
)


60
(
5(1.371891692e-05 -1.053918588e-06 -2.054511879e-06 -9.796751551e-07 5.106163268e-06)
5(-1.325159165e-06 -6.188479884e-07 -1.053709856e-06 -1.295277557e-06 -3.119216422e-06)
5(-3.781331916e-06 -7.360786356e-07 -1.013989869e-06 -1.336546877e-06 -6.810286475e-06)
5(-4.956728508e-06 -9.289668451e-07 -1.229418228e-06 -1.61418893e-06 -6.09436335e-06)
5(-2.322380551e-06 -1.260617389e-06 -1.69606987e-06 -2.127980189e-06 -3.559914784e-06)
5(-1.359574155e-06 -1.751828518e-06 -2.3584009e-06 -2.850303616e-06 -4.812541863e-06)
5(-4.987938083e-06 -2.352048085e-06 -3.138877706e-06 -3.6531361e-06 -1.648461004e-05)
5(-8.588447225e-06 -3.096145412e-06 -3.99793248e-06 -4.536432082e-06 -5.935537478e-06)
5(-7.658699767e-06 -3.994660868e-06 -4.97477213e-06 -5.492703762e-06 -2.561081586e-05)
5(-1.287445067e-05 -5.077561046e-06 -6.157578593e-06 -6.648705469e-06 -9.688627342e-06)
5(-1.65037789e-05 -6.464676966e-06 -7.585746988e-06 -7.982854185e-06 -3.812280461e-05)
5(-5.629806275e-05 -8.05202085e-06 -9.323292659e-06 -9.720069972e-06 -2.355313668e-05)
5(-4.473490388e-05 -9.950524325e-06 -1.146805494e-05 -1.19393649e-05 -5.419655392e-05)
5(-0.0001529986494 -1.227861479e-05 -1.414090479e-05 -1.506682079e-05 -2.254263639e-05)
5(-8.49380336e-05 -1.509309784e-05 -1.765729218e-05 -1.926112842e-05 -6.441862397e-05)
5(-3.144930795e-05 -1.874794033e-05 -2.207366672e-05 -2.529122321e-05 -8.814036059e-05)
5(-0.0001661338004 -2.333679859e-05 -2.831890734e-05 -3.352261189e-05 -0.0001203817597)
5(-0.0001383673219 -2.9320488e-05 -3.661231935e-05 -4.390290185e-05 -8.083345387e-05)
5(-0.0001588750422 -3.699794378e-05 -4.725436832e-05 -5.869629804e-05 -0.0001164907016)
5(-0.000220198492 -4.631026074e-05 -6.130250088e-05 -7.811738193e-05 -0.0001792135653)
5(-0.0002939965977 -5.750313011e-05 -8.003583588e-05 -0.0001045770539 -0.0002445421507)
5(-0.0002702686076 -7.313127467e-05 -0.0001048295952 -0.000141664003 -0.0005900637338)
5(-0.0001738603941 -9.437124246e-05 -0.0001391961804 -0.0001969467612 -0.0003395670953)
5(-0.0004365424639 -0.0001272825064 -0.0001935791729 -0.0002841567131 -0.001232662677)
5(-0.0009354748438 -0.000180772463 -0.0002860795204 -0.0004321654208 -0.0007879340791)
5(-0.0002558312737 -0.0002645078409 -0.0004465359457 -0.0006865287533 -0.001535147756)
5(-0.0003760488773 -0.0004145414928 -0.0007204406463 -0.001121055107 -0.002486215854)
5(-0.0012095205 -0.0006898441902 -0.00118832012 -0.001845583343 -0.002896177384)
5(-0.002839366474 -0.00115858799 -0.001983133117 -0.003033550217 -0.005221055859)
5(-0.002288774436 -0.001943941164 -0.003268389752 -0.004865489614 -0.007600885556)
5(-0.003966197039 -0.003198838206 -0.005234949778 -0.007575882852 -0.01132795654)
5(-0.006244955651 -0.00506851601 -0.00807837853 -0.01139387887 -0.02455612047)
5(-0.006713721887 -0.007779771494 -0.0120136831 -0.01634170105 -0.02426850328)
5(-0.007305678918 -0.01138563372 -0.01702796858 -0.02214555501 -0.03353516795)
5(-0.01076541972 -0.01582012798 -0.02264492898 -0.02815121236 -0.03961133086)
5(-0.01936230431 -0.02072652874 -0.02818836228 -0.03304253387 -0.03622938308)
5(-0.02765843728 -0.02512708255 -0.03232898192 -0.03480338378 -0.03645794047)
5(-0.02406695855 -0.02780873055 -0.03273141336 -0.0312617172 -0.05503625857)
5(-0.02963202966 -0.02709129345 -0.0270255843 -0.01959217907 -0.02079477705)
5(-0.02693227937 -0.02041470403 -0.01245460635 0.001826190437 0.006953344654)
5(-0.02993412288 -0.006489727847 0.01107937277 0.03133470762 -0.004934960338)
5(-0.01248252254 0.01551846421 0.04198383571 0.06542981435 0.03313369413)
5(0.0005928533437 0.04283646058 0.0751146707 0.09565921685 0.08258673474)
5(0.02765085572 0.06935915773 0.1017046254 0.1109069803 0.0953666714)
5(0.03411357551 0.08970632726 0.1122836991 0.105920625 0.09585932892)
5(0.06366882661 0.09407312934 0.09789997092 0.07701478393 0.04846466755)
5(0.06807773694 0.0789771202 0.06168359895 0.03928301968 0.00320334746)
5(0.05769681565 0.0464895389 0.01459883017 -0.008744995664 -0.03177878412)
5(0.04600595438 0.005387282256 -0.02783481314 -0.04225054003 -0.05363978799)
5(0.02299764555 -0.02761875137 -0.05246997019 -0.05102815581 -0.03618945747)
5(-0.01875349315 -0.04551570157 -0.05504087055 -0.04372553844 -0.02543037553)
5(-0.05870485614 -0.05057719607 -0.04117357836 -0.02720513418 -0.01105280918)
5(-0.03802579354 -0.03561483169 -0.02234583403 -0.01293428338 -0.006984722096)
5(-0.03731200365 -0.01861188403 -0.008893482359 -0.004378868662 -0.001578560187)
5(-0.01890046186 -0.006992708027 -0.00238683554 -0.0009837481728 -0.0003027671142)
5(-0.008240740851 -0.001676809053 -0.0003876015091 -0.0001428615322 -4.234787849e-05)
5(-0.001967647672 -0.0002233318844 -3.065705471e-05 -1.257017002e-05 -3.101003311e-06)
5(-0.0002085588317 -1.408042944e-05 -1.420822205e-06 5.684749778e-07 -1.444614035e-07)
5(-1.444864513e-05 0.0005039445312 2.007022526e-07 0.0003166264728 -1.70096342e-09)
5(-1.313349515e-05 -6.85165026e-08 -0.0020470653 -1.154911351e-13 -4.605785101e-14)
)


60
(
5(3.308495083e-05 -6.023507638e-08 2.635144177e-06 6.756308072e-06 4.45931758e-05)
5(-5.241993305e-06 -1.243913578e-06 -2.107040119e-06 -2.70017453e-06 -4.832709744e-06)
5(-3.282001589e-06 -1.503035541e-06 -2.137981007e-06 -2.852088393e-06 -5.548420344e-06)
5(-6.183149221e-06 -1.920389234e-06 -2.628788527e-06 -3.461629074e-06 -2.834286614e-05)
5(-1.045609705e-05 -2.577819379e-06 -3.563097227e-06 -4.525912907e-06 -3.306667505e-05)
5(-5.396492848e-06 -3.550557667e-06 -4.888737968e-06 -5.945915431e-06 -1.779625282e-05)
5(-1.226714706e-05 -4.728101645e-06 -6.406038342e-06 -7.487495277e-06 -5.863969184e-05)
5(-1.413308108e-05 -6.216012224e-06 -8.099568165e-06 -9.149084548e-06 -2.034675565e-05)
5(-2.485930521e-05 -7.953188904e-06 -9.925031347e-06 -1.089263087e-05 -3.90341945e-05)
5(-2.091157786e-05 -1.002437677e-05 -1.213081219e-05 -1.285200757e-05 -2.18205385e-05)
5(-7.572514081e-05 -1.23784967e-05 -1.459282274e-05 -1.521813862e-05 -6.185817919e-05)
5(-2.906409892e-05 -1.526738276e-05 -1.759644683e-05 -1.813776626e-05 -4.164470291e-05)
5(-0.0001006806127 -1.847667494e-05 -2.122895357e-05 -2.204670887e-05 -8.385070216e-05)
5(-6.310696508e-05 -2.245569216e-05 -2.597261807e-05 -2.752085118e-05 -4.034930105e-05)
5(-0.0001846575965 -2.755991156e-05 -3.216579061e-05 -3.498567654e-05 -0.0001255040628)
5(-0.0001828462648 -3.372184286e-05 -4.02998329e-05 -4.54799482e-05 -7.956365346e-05)
5(-0.0001620705419 -4.186953011e-05 -5.114768631e-05 -5.956189618e-05 -0.0002158079165)
5(-0.0003045927919 -5.184586355e-05 -6.511881126e-05 -7.871023295e-05 -0.0001394367298)
5(-0.0001671398406 -6.429791427e-05 -8.37037186e-05 -0.0001032455792 -0.0003898464437)
5(-0.0004307860037 -7.955158003e-05 -0.0001061894777 -0.0001338430205 -0.0003407276351)
5(-0.0007655186575 -9.756417181e-05 -0.0001334389672 -0.0001724283112 -0.0004085950136)
5(-0.0001865087952 -0.000118041658 -0.0001677697895 -0.0002216908324 -0.0008225945837)
5(-0.0007110905614 -0.000143439279 -0.0002118055695 -0.0002894328967 -0.0008545698311)
5(-0.001148078668 -0.0001748163155 -0.0002712674622 -0.000390104697 -0.001163428102)
5(-0.0008840725519 -0.0002192498426 -0.0003643470068 -0.0005477254309 -0.002426998966)
5(-0.0007971441137 -0.0002975176333 -0.0005191523452 -0.0008130048344 -0.002148116953)
5(-0.001529332254 -0.000433993216 -0.0007854798991 -0.001274973427 -0.00292773703)
5(-0.001873414301 -0.0006837560506 -0.001269222796 -0.002053561525 -0.004508806061)
5(-0.001943196786 -0.001130506155 -0.002100214329 -0.003350703229 -0.007095317152)
5(-0.00219272499 -0.001920966439 -0.003484201172 -0.005440484198 -0.008274783943)
5(-0.006165272945 -0.003221773258 -0.00567082984 -0.008600368884 -0.01554008694)
5(-0.008274794576 -0.005251144261 -0.008976233223 -0.0131119729 -0.02283231047)
5(-0.009944849295 -0.008288145303 -0.01361452843 -0.01922325079 -0.02968526742)
5(-0.01004309434 -0.01244484204 -0.01969429626 -0.02680828986 -0.05145725796)
5(-0.01386673991 -0.01781871034 -0.02702593126 -0.03527357025 -0.05974449708)
5(-0.02431132645 -0.02416474433 -0.03488779147 -0.04330135395 -0.06568275863)
5(-0.02315690304 -0.03074933895 -0.04193713041 -0.04895185589 -0.06477919627)
5(-0.03359202318 -0.03631058241 -0.04565435189 -0.04867768441 -0.06119323856)
5(-0.03226020448 -0.03843602115 -0.04299492168 -0.03919983089 -0.05806167163)
5(-0.04269938847 -0.03454542451 -0.03109727102 -0.01782645495 -0.05278379969)
5(-0.04012471575 -0.02290545154 -0.007019388986 0.01639160106 0.002474157019)
5(-0.03635521349 -0.001291383774 0.02834907559 0.06193281667 0.03101776891)
5(-0.05181410643 0.02962417709 0.07230761479 0.1089529484 0.110184568)
5(-0.01698324365 0.06423990523 0.1134392957 0.1430649747 0.1348753833)
5(0.0343925562 0.09684971071 0.142759695 0.1547159059 0.1506630425)
5(0.06022534751 0.1166196112 0.1444730703 0.1354287395 0.1162953575)
5(0.1039465028 0.1157858352 0.1163712381 0.08796621342 0.03720876364)
5(0.09176907538 0.09083914614 0.06264154198 0.03068183076 -0.01933690677)