/*--------------------------------*- C++ -*----------------------------------*\
| =========                 |                                                 |
| \\      /  F ield         | OpenFOAM: The Open Source CFD Toolbox           |
|  \\    /   O peration     | Version:  2.3.1                                 |
|   \\  /    A nd           | Web:      www.OpenFOAM.org                      |
|    \\/     M anipulation  |                                                 |
\*---------------------------------------------------------------------------*/
FoamFile
{
    version     2.0;
    format      ascii;
    class       dictionary;
    location    "constant";
    object      rCH3OCH3;
}
// * * * * * * * * * * * * * * * * * * * * * * * * * * * * * * * * * * * * * //

rCH3OCH3_table
60
(

60
(
5(3.424704821e-08 5.963527104e-09 3.996237277e-08 1.557647438e-08 2.919480931e-08)
5(7.17756072e-09 2.067358101e-10 7.178698559e-09 3.49552875e-09 5.152877205e-09)
5(0 7.259445035e-10 1.009852809e-09 4.677835232e-10 0)
5(0 8.771527442e-10 9.516172267e-10 0 5.53388768e-10)
5(0 6.187710364e-10 1.029706986e-09 3.441681351e-10 2.397308477e-10)
5(7.226825598e-08 4.001633691e-10 1.470054582e-10 3.55809182e-10 1.419338033e-10)
5(8.070694399e-10 2.570986414e-10 2.112986069e-10 1.263407278e-10 4.836568129e-10)
5(1.544898882e-10 1.858941755e-10 4.051695038e-10 1.357929065e-10 2.878450436e-11)
5(8.426901891e-08 1.077585168e-10 1.168667344e-10 7.550295738e-11 5.060904302e-11)
5(9.545362312e-08 4.299076609e-11 -4.47859396e-11 -8.229145538e-12 2.316369941e-12)
5(1.034829337e-07 -1.182321133e-10 -2.735457399e-10 -1.075394219e-10 -7.64649462e-11)
5(3.223767661e-08 -4.237961896e-10 -3.800631105e-10 -2.206528511e-10 -1.239337968e-10)
5(-4.755130125e-10 -6.311019409e-10 -5.214349097e-10 -3.84834511e-10 -2.262173254e-10)
5(-9.009727498e-10 -8.139225039e-10 -7.021079213e-10 -3.413781259e-10 -2.286714764e-10)
5(-8.101077521e-10 -8.131516206e-10 -7.084928646e-10 -4.365907609e-10 -2.327369593e-10)
5(-8.517255006e-10 -1.033976865e-09 -9.342985707e-10 -5.000980925e-10 -2.566188838e-10)
5(-1.095954469e-09 -1.076590345e-09 -1.026321867e-09 -4.815979246e-10 -2.761807696e-10)
5(-1.120273373e-09 -1.040428825e-09 -8.334716752e-10 -4.84047244e-10 -2.714014519e-10)
5(-9.902036836e-10 -9.222963539e-10 -7.87370744e-10 -4.331930985e-10 -2.928353517e-10)
5(-1.04775619e-09 -8.787789102e-10 -7.86911023e-10 -4.607588411e-10 -2.519987245e-10)
5(-9.347650679e-10 -7.325011203e-10 -6.23136983e-10 -3.730055517e-10 -1.710209702e-10)
5(-8.460184301e-10 -6.094110312e-10 -5.860987495e-10 -2.137054363e-10 -1.043010089e-10)
5(-8.205964586e-10 -5.383303112e-10 -4.714990033e-10 -2.108818535e-10 -9.956027966e-11)
5(-6.614058589e-10 -4.951213812e-10 -3.629385411e-10 -1.606454437e-10 -6.85033602e-11)
5(-6.034331418e-10 -4.452278766e-10 -2.996802995e-10 -1.342245162e-10 -5.450513651e-11)
5(-5.022830497e-10 -4.235081207e-10 -2.671070584e-10 -1.179891743e-10 -3.76044705e-11)
5(-4.110582691e-10 -3.326717929e-10 -1.94415989e-10 -1.019140355e-10 -3.031093567e-11)
5(-3.431264067e-10 -2.34344912e-10 -1.858106599e-10 -9.698150911e-11 -2.707798856e-11)
5(-3.564364062e-10 -2.524592093e-10 -1.775048321e-10 -9.800190757e-11 -2.847848865e-11)
5(-3.827566744e-10 -3.057840851e-10 -1.921439736e-10 -9.793556946e-11 -2.940902336e-11)
5(-4.716933836e-10 -3.809219041e-10 -2.417100795e-10 -1.128177624e-10 -3.154246638e-11)
5(-5.785009204e-10 -4.264581632e-10 -2.4439851e-10 -8.204031651e-11 -1.584479383e-11)
5(-6.749880015e-10 -4.254219969e-10 -2.273326259e-10 -3.741962667e-11 -7.117892324e-12)
5(-7.019700302e-10 -2.91113865e-10 -1.077689988e-10 5.760118721e-11 2.115425638e-11)
5(-5.085698297e-10 5.569686549e-11 1.881657327e-10 1.86331104e-10 -6.682570608e-11)
5(1.079007311e-10 8.173859066e-10 7.751469352e-10 3.356322229e-10 -7.105569063e-11)
5(1.289526248e-09 1.675387828e-09 1.024769991e-09 3.275432412e-10 1.814866179e-11)
5(2.833403447e-09 2.835882498e-09 1.243763447e-09 2.298636723e-10 -4.767168123e-11)
5(4.653381583e-09 3.264925009e-09 1.088074542e-09 1.509279416e-11 -1.18684963e-10)
5(6.514001833e-09 2.898966452e-09 7.755577984e-10 -1.647854783e-10 -4.590334093e-13)
5(6.256505042e-09 1.146721495e-09 -5.087764122e-11 -2.706165647e-10 -6.143777112e-13)
5(3.609499435e-09 -9.235078088e-10 -6.597380182e-10 -4.944694523e-10 -1.045587721e-40)
5(-3.49740348e-10 -1.885885614e-09 -6.728601884e-10 -1.936288596e-43 -3.792924162e-43)
5(-4.011504289e-09 -2.183510415e-09 -1.127012559e-09 1.886480162e-42 -1.098078977e-10)
5(-5.56549876e-09 -1.449316083e-09 -6.07253666e-10 3.724839856e-43 -1.369600758e-11)
5(-4.558586924e-09 -8.146454526e-10 -5.239820568e-11 -3.081886884e-40 -6.061265471e-40)
5(-2.467548883e-09 -2.963169268e-10 -2.675895296e-11 -6.320360872e-11 2.852330292e-40)
5(-1.934063117e-09 -9.71512083e-12 -1.905051513e-11 -9.159775132e-39 -1.3032229e-38)
5(-2.774948808e-10 -1.707562893e-12 -5.890767051e-12 -9.875642179e-39 -1.555453233e-37)
5(-4.049629336e-11 -7.546572086e-14 4.432920849e-40 -2.547609827e-38 -1.395306701e-37)
5(-6.337866193e-12 -1.738771451e-40 2.277153619e-39 4.473863162e-39 9.016976979e-37)
5(-1.25566858e-12 1.382018753e-39 1.121694933e-38 1.798524671e-37 2.211228246e-36)
5(-5.063080552e-16 2.626179052e-38 4.712038303e-38 5.289763065e-37 8.03771823e-36)
5(1.116266326e-39 4.045068163e-38 3.409749602e-37 6.471111795e-36 3.44426886e-35)
5(7.61219155e-39 3.364675622e-38 6.38050343e-37 6.77091758e-36 7.367146408e-35)
5(-1.325944657e-35 1.455292024e-37 1.637444566e-36 2.726990059e-35 1.302066831e-34)
5(1.215057053e-35 7.401633902e-37 6.967602828e-36 6.260274613e-35 3.668753651e-34)
5(7.595913941e-35 -2.884836567e-34 1.545484751e-35 9.796153362e-35 2.490989377e-34)
5(8.990118245e-35 -1.092709064e-34 -2.516814381e-33 1.168969355e-34 2.195220719e-33)
5(2.829136075e-36 3.262617048e-35 -1.40064383e-30 3.436140633e-33 1.687699995e-32)
)


60
(
5(1.441707875e-07 5.446819768e-08 1.514964529e-07 7.538946198e-08 8.014906617e-08)
5(7.475923078e-08 4.993764068e-08 6.75031601e-08 4.669979689e-08 3.847948413e-08)
5(5.042913153e-08 4.551175249e-08 4.333437134e-08 3.546172176e-08 2.451212875e-08)
5(4.175210899e-08 4.106089226e-08 3.739222816e-08 3.109513155e-08 2.067450744e-08)
5(3.723344971e-08 3.566771434e-08 3.6753919e-08 2.866636855e-08 2.016811682e-08)
5(2.941750431e-08 2.752440143e-08 3.333291258e-08 2.492982903e-08 1.895516786e-08)
5(1.357047048e-08 1.546437495e-08 2.430643699e-08 1.859163669e-08 1.521920738e-08)
5(-9.765577306e-09 -1.296192292e-09 1.181242769e-08 1.006530792e-08 9.784395317e-09)
5(-3.971938902e-08 -2.40167016e-08 -3.84449931e-09 -6.456563818e-10 3.311302844e-09)
5(-7.404823698e-08 -5.195525902e-08 -2.308095713e-08 -1.345441023e-08 -4.203366982e-09)
5(-1.262943378e-07 -8.467909191e-08 -4.669765249e-08 -2.81955664e-08 -1.276804572e-08)
5(-1.806090357e-07 -1.228368448e-07 -7.321664552e-08 -4.384041337e-08 -2.170512507e-08)
5(-2.464330696e-07 -1.62110664e-07 -1.007434502e-07 -5.867025814e-08 -2.987211072e-08)
5(-3.165058042e-07 -2.016017481e-07 -1.264989504e-07 -7.087451328e-08 -3.621863819e-08)
5(-3.886871343e-07 -2.39400084e-07 -1.489652524e-07 -8.013289694e-08 -4.03883886e-08)
5(-4.562368761e-07 -2.721512327e-07 -1.667260144e-07 -8.616506408e-08 -4.240486822e-08)
5(-5.322590825e-07 -3.004764784e-07 -1.794883979e-07 -8.893079194e-08 -4.254776479e-08)
5(-6.044534811e-07 -3.238745949e-07 -1.882697502e-07 -8.927520394e-08 -4.132735137e-08)
5(-6.696519834e-07 -3.442396493e-07 -1.927639183e-07 -8.728485101e-08 -3.884294857e-08)
5(-7.328805152e-07 -3.580200146e-07 -1.931760716e-07 -8.323086089e-08 -3.547031163e-08)
5(-7.861445689e-07 -3.636126549e-07 -1.884180343e-07 -7.733821897e-08 -3.157191959e-08)
5(-8.339087984e-07 -3.605800248e-07 -1.791979172e-07 -6.961840611e-08 -2.742247661e-08)
5(-8.714666262e-07 -3.514397972e-07 -1.666019679e-07 -6.105955287e-08 -2.304395806e-08)
5(-8.683704359e-07 -3.318652974e-07 -1.500321543e-07 -5.232242059e-08 -1.903407923e-08)
5(-8.625048978e-07 -3.07764989e-07 -1.322656769e-07 -4.375657156e-08 -1.536651885e-08)
5(-8.302033637e-07 -2.762857153e-07 -1.125781645e-07 -3.582454189e-08 -1.241002038e-08)
5(-7.799218436e-07 -2.414956249e-07 -9.353704853e-08 -2.895775858e-08 -1.026519813e-08)
5(-7.237529365e-07 -2.041689654e-07 -7.632210686e-08 -2.376878067e-08 -9.121845018e-09)
5(-6.509298387e-07 -1.677240877e-07 -6.13418882e-08 -2.023962736e-08 -8.760096044e-09)
5(-5.685573765e-07 -1.357419196e-07 -4.960734826e-08 -1.837558779e-08 -9.166325701e-09)
5(-4.843321919e-07 -1.082739691e-07 -4.091410863e-08 -1.776266837e-08 -9.9057986e-09)
5(-4.051206582e-07 -8.608338438e-08 -3.538219832e-08 -1.762808923e-08 -1.017446518e-08)
5(-3.33123322e-07 -6.934514805e-08 -3.127177977e-08 -1.649718568e-08 -8.805374393e-09)
5(-2.656794921e-07 -5.54527553e-08 -2.621063244e-08 -1.241519726e-08 -4.838685781e-09)
5(-2.086773619e-07 -4.086080584e-08 -1.716189875e-08 -3.477251953e-09 3.068534589e-09)
5(-1.51980747e-07 -2.271102085e-08 -1.562481088e-09 1.13201875e-08 1.393804998e-08)
5(-1.015839375e-07 3.020835896e-09 2.228831781e-08 3.000183974e-08 2.602476866e-08)
5(-4.636985685e-08 3.621529576e-08 5.11113968e-08 4.903310557e-08 3.514040886e-08)
5(1.325336356e-08 7.257876141e-08 7.788532681e-08 6.090054844e-08 3.610520169e-08)
5(6.948050214e-08 1.023582394e-07 9.084490906e-08 5.764310142e-08 2.556749461e-08)
5(1.141756372e-07 1.113387873e-07 8.036980449e-08 3.771496526e-08 8.465394673e-09)
5(1.27906274e-07 9.362656813e-08 4.872679142e-08 7.135784166e-09 -7.343725821e-09)
5(1.041911001e-07 4.664333167e-08 2.883975245e-09 -2.000563014e-08 -1.584907957e-08)
5(5.059395645e-08 -1.115225246e-08 -3.675003654e-08 -3.271466395e-08 -1.372709814e-08)
5(-1.795144665e-08 -5.574663829e-08 -5.554287554e-08 -2.842741871e-08 -8.239829233e-09)
5(-7.141156145e-08 -7.316120735e-08 -5.048376063e-08 -1.693351996e-08 -3.330971684e-09)
5(-8.727767202e-08 -6.166584532e-08 -3.100303823e-08 -7.23858162e-09 -9.409743413e-10)
5(-7.135356635e-08 -3.764722247e-08 -1.340534028e-08 -2.148011561e-09 -1.792817602e-10)
5(-4.535206643e-08 -1.683781542e-08 -4.021815121e-09 -4.304222758e-10 -2.294604268e-11)
5(-1.799381556e-08 -5.037808808e-09 -8.534621079e-10 -5.203672286e-11 -2.286948421e-12)
5(-5.623125333e-09 -1.020472309e-09 -1.05726234e-10 -4.237358925e-12 -1.396206667e-13)
5(-9.171444812e-10 -1.26045968e-10 -8.261499229e-12 -2.342892551e-13 -6.943816851e-15)
5(-1.267198507e-10 -9.488948649e-12 -4.539816802e-13 -1.070717989e-14 -2.472031842e-16)
5(-6.524893482e-12 -3.480250339e-13 -1.315130088e-14 -6.124327307e-16 -6.786258501e-18)
5(-1.753959235e-13 7.300015749e-14 -2.72383502e-16 -4.033285972e-14 -1.419409628e-19)
5(-1.334639897e-15 1.079004314e-11 -3.882640155e-15 -1.274243528e-11 -2.293668107e-21)
5(-4.16049562e-18 1.098455807e-09 4.412321517e-13 -3.730275617e-09 -1.010238296e-23)
5(-5.326576347e-21 -5.746008161e-08 3.123881758e-12 -9.17872014e-07 -1.256959615e-26)
5(-2.329961302e-25 2.116381214e-06 7.290390991e-09 1.433154896e-06 -2.186438557e-29)
5(-3.297792153e-34 -9.665413358e-34 1.290320121e-16 8.062370723e-33 4.819754672e-32)
)


60
(
5(4.503043506e-07 1.974445115e-07 4.322620778e-07 2.162034012e-07 1.666636982e-07)
5(3.105066968e-07 2.122881754e-07 2.433856186e-07 1.540867242e-07 9.738880052e-08)
5(2.394660151e-07 2.061430215e-07 1.804705828e-07 1.260829853e-07 7.151357129e-08)
5(1.977646535e-07 1.850062207e-07 1.601531768e-07 1.115794681e-07 6.21909877e-08)
5(1.562587162e-07 1.516751452e-07 1.484561005e-07 9.948218978e-08 5.756253015e-08)
5(7.969724343e-08 9.879655994e-08 1.226871692e-07 8.156228022e-08 5.122499671e-08)
5(-5.207770032e-08 1.825571888e-08 7.408043305e-08 5.424329214e-08 3.960508826e-08)
5(-2.384898786e-07 -9.275208861e-08 5.99668223e-09 1.827617327e-08 2.394200051e-08)
5(-4.707778767e-07 -2.393408912e-07 -7.900502981e-08 -2.642704371e-08 4.822066119e-09)
5(-7.87515918e-07 -4.272951168e-07 -1.864976545e-07 -8.083105398e-08 -1.800493852e-08)
5(-1.209496434e-06 -6.574978913e-07 -3.155699981e-07 -1.443275972e-07 -4.499264574e-08)
5(-1.727755561e-06 -9.277822141e-07 -4.656825917e-07 -2.13688425e-07 -7.453385443e-08)
5(-2.300147806e-06 -1.213733015e-06 -6.243195634e-07 -2.826652242e-07 -1.036445764e-07)
5(-2.965609596e-06 -1.506324392e-06 -7.786587518e-07 -3.446594174e-07 -1.290365194e-07)
5(-3.658145408e-06 -1.797075478e-06 -9.154788892e-07 -3.95679068e-07 -1.480876286e-07)
5(-4.455479861e-06 -2.068700684e-06 -1.034460918e-06 -4.326733934e-07 -1.607311495e-07)
5(-5.173435952e-06 -2.322232889e-06 -1.126544416e-06 -4.547527538e-07 -1.663001716e-07)
5(-5.964655344e-06 -2.534550041e-06 -1.196732771e-06 -4.647110468e-07 -1.670661603e-07)
5(-6.766875054e-06 -2.706221417e-06 -1.234013614e-06 -4.635605606e-07 -1.625332598e-07)
5(-7.520769654e-06 -2.832881743e-06 -1.245824593e-06 -4.519014062e-07 -1.539777911e-07)
5(-8.411535004e-06 -2.910101442e-06 -1.229655495e-06 -4.30808316e-07 -1.419541464e-07)
5(-8.915822113e-06 -2.921498733e-06 -1.187384218e-06 -3.993872688e-07 -1.28172392e-07)
5(-9.568590897e-06 -2.876270589e-06 -1.117382773e-06 -3.603941175e-07 -1.130346262e-07)
5(-9.934432153e-06 -2.768264117e-06 -1.025572494e-06 -3.180780685e-07 -9.703933481e-08)
5(-1.03561027e-05 -2.608293221e-06 -9.167581616e-07 -2.742507586e-07 -8.172236238e-08)
5(-1.037677556e-05 -2.399761341e-06 -7.998086529e-07 -2.291182498e-07 -6.780652335e-08)
5(-1.032649809e-05 -2.160085432e-06 -6.759344519e-07 -1.880691619e-07 -5.561965556e-08)
5(-1.035957254e-05 -1.882906215e-06 -5.572274098e-07 -1.507815713e-07 -4.675319591e-08)
5(-9.758884347e-06 -1.615046564e-06 -4.475013028e-07 -1.207133775e-07 -4.013948009e-08)
5(-9.313882028e-06 -1.354907516e-06 -3.488563945e-07 -9.725304592e-08 -3.686005304e-08)
5(-8.603944292e-06 -1.098358361e-06 -2.686834828e-07 -8.088900415e-08 -3.605668536e-08)
5(-7.86062348e-06 -8.857863381e-07 -2.075629223e-07 -7.002817191e-08 -3.567790307e-08)
5(-6.937502762e-06 -7.157555771e-07 -1.614949872e-07 -6.13984633e-08 -3.3550183e-08)
5(-6.006828471e-06 -5.58628378e-07 -1.241100767e-07 -5.070898249e-08 -2.542773655e-08)
5(-5.028101672e-06 -4.317440995e-07 -9.061927171e-08 -3.230640193e-08 -9.15634248e-09)
5(-4.411586564e-06 -3.179723941e-07 -5.131717712e-08 -1.823443161e-09 2.016306625e-08)
5(-3.298082932e-06 -2.110941137e-07 1.930775104e-10 4.193923789e-08 5.534265823e-08)
5(-2.435265141e-06 -9.994128507e-08 6.45844023e-08 9.387881859e-08 9.132238328e-08)
5(-1.640150104e-06 1.417964316e-08 1.333689285e-07 1.399853802e-07 1.124329586e-07)
5(-9.940251654e-07 1.144326617e-07 1.866834042e-07 1.617660171e-07 1.102170403e-07)
5(-5.422305623e-07 1.856440064e-07 2.042487802e-07 1.435863847e-07 7.243107306e-08)
5(-1.410809289e-07 2.050139445e-07 1.675040349e-07 8.485830411e-08 2.168120052e-08)
5(3.861928505e-08 1.581618679e-07 8.33728428e-08 4.296597432e-09 -2.850464741e-08)
5(7.703188223e-08 5.967865677e-08 -2.096116862e-08 -6.142710348e-08 -5.464277882e-08)
5(1.748431666e-08 -5.114453359e-08 -1.01708986e-07 -9.022641483e-08 -5.237660545e-08)
5(-7.052388044e-08 -1.291430051e-07 -1.321995852e-07 -8.119515145e-08 -3.388755559e-08)
5(-1.480510021e-07 -1.493031019e-07 -1.10786064e-07 -5.119887907e-08 -1.686140562e-08)
5(-1.564508352e-07 -1.200330524e-07 -6.810515693e-08 -2.388018724e-08 -5.521403493e-09)
5(-1.194013853e-07 -7.060360157e-08 -2.986547169e-08 -8.355776763e-09 -1.368274128e-09)
5(-6.987111172e-08 -3.034881578e-08 -9.677231136e-09 -1.901001338e-09 -2.261383766e-10)
5(-2.964750937e-08 -9.186026488e-09 -2.113600447e-09 -3.158724325e-10 -2.352129304e-11)
5(-8.051835822e-09 -1.790605656e-09 -2.879675488e-10 -3.272382313e-11 -2.035828434e-12)
5(-1.331749527e-09 -2.214132753e-10 -2.499009452e-11 -2.203193921e-12 -9.963147685e-14)
5(-1.037613889e-10 -1.535352639e-11 -1.16934624e-12 -7.676247849e-14 -2.988713637e-15)
5(-6.170282159e-12 3.483678809e-12 -4.013594721e-14 2.631333951e-12 -7.156631327e-17)
5(-1.192036733e-13 8.745922862e-10 -2.789193047e-12 6.18327486e-10 -7.511597545e-19)
5(-9.678560177e-16 2.240341123e-07 -7.541396238e-10 1.60864576e-07 -3.575943173e-21)
5(-8.370122972e-19 7.199451793e-05 -1.924142831e-07 4.87331027e-05 -9.490383581e-24)
5(-1.365343353e-22 0.03216210831 2.973630229e-07 0.01770507495 -1.447652385e-27)
5(-3.473476659e-28 -2.918861927e-32 6.963228531e-16 -1.790232229e-32 3.42006697e-31)
)


60
(
5(1.165435595e-06 5.692348149e-07 1.028032104e-06 5.043668886e-07 3.035548512e-07)
5(9.692281155e-07 6.824979128e-07 6.790945562e-07 3.88430589e-07 1.951698679e-07)
5(8.134376494e-07 6.942741564e-07 5.475417477e-07 3.301527438e-07 1.515293065e-07)
5(6.674061933e-07 6.301979181e-07 4.953018341e-07 2.938765014e-07 1.328257541e-07)
5(4.70772429e-07 5.130114371e-07 4.494398274e-07 2.583568191e-07 1.21422514e-07)
5(1.147743778e-07 3.215468151e-07 3.577302977e-07 2.078087387e-07 1.073060666e-07)
5(-4.67635815e-07 3.438800184e-08 2.014823776e-07 1.346823857e-07 8.419990969e-08)
5(-1.270770587e-06 -3.691474098e-07 -1.377547551e-08 3.79226277e-08 5.225695915e-08)
5(-2.368345382e-06 -9.103594523e-07 -2.868633236e-07 -8.304913115e-08 1.23702869e-08)
5(-3.818383222e-06 -1.59116447e-06 -6.298697032e-07 -2.317332985e-07 -3.77308624e-08)
5(-5.653682569e-06 -2.439603388e-06 -1.049541455e-06 -4.091277908e-07 -1.002907873e-07)
5(-8.031130991e-06 -3.424567702e-06 -1.535063216e-06 -6.090618248e-07 -1.72981834e-07)
5(-1.088247041e-05 -4.519910659e-06 -2.056354813e-06 -8.149170967e-07 -2.493885516e-07)
5(-1.400205336e-05 -5.664287674e-06 -2.572683499e-06 -1.009742462e-06 -3.243052146e-07)
5(-1.735097808e-05 -6.815563306e-06 -3.045743854e-06 -1.181640047e-06 -3.856469739e-07)
5(-2.117320823e-05 -7.902869817e-06 -3.456645997e-06 -1.316731692e-06 -4.337287778e-07)
5(-2.548669849e-05 -8.891374397e-06 -3.788843264e-06 -1.407344278e-06 -4.639407925e-07)
5(-2.95554261e-05 -9.77423744e-06 -4.038456422e-06 -1.46159737e-06 -4.791237014e-07)
5(-3.44895078e-05 -1.051256938e-05 -4.197545088e-06 -1.478160087e-06 -4.805330857e-07)
5(-3.909657979e-05 -1.114733327e-05 -4.2730329e-06 -1.463107408e-06 -4.679164683e-07)
5(-4.407398886e-05 -1.16140008e-05 -4.245274322e-06 -1.414855655e-06 -4.45916211e-07)
5(-4.950255691e-05 -1.184459223e-05 -4.14732819e-06 -1.338784218e-06 -4.160311151e-07)
5(-5.478925011e-05 -1.193895241e-05 -3.965399806e-06 -1.23438808e-06 -3.800675955e-07)
5(-5.861636672e-05 -1.18677452e-05 -3.710348256e-06 -1.114600349e-06 -3.387844592e-07)
5(-6.292133711e-05 -1.161717357e-05 -3.389758971e-06 -9.849014503e-07 -2.926985927e-07)
5(-6.73178446e-05 -1.115620672e-05 -3.024990454e-06 -8.490193972e-07 -2.49544864e-07)
5(-7.066674706e-05 -1.060640719e-05 -2.637251189e-06 -7.116239138e-07 -2.094702416e-07)
5(-7.421629424e-05 -9.91616565e-06 -2.254299146e-06 -5.840068522e-07 -1.719251174e-07)
5(-7.521007422e-05 -9.144819397e-06 -1.88005586e-06 -4.709537866e-07 -1.447632683e-07)
5(-7.524202641e-05 -8.363838143e-06 -1.532331479e-06 -3.726277596e-07 -1.207513311e-07)
5(-7.465973986e-05 -7.540809086e-06 -1.233982148e-06 -2.951657333e-07 -1.061512218e-07)
5(-7.218132389e-05 -6.753677234e-06 -9.920599196e-07 -2.368363434e-07 -9.515456506e-08)
5(-6.75904605e-05 -5.964130777e-06 -7.832747531e-07 -1.913349105e-07 -8.631401011e-08)
5(-6.302248187e-05 -5.155967928e-06 -6.128675061e-07 -1.543487292e-07 -7.215131836e-08)
5(-5.540822274e-05 -4.428470315e-06 -4.721606371e-07 -1.142054746e-07 -4.372144769e-08)
5(-4.800221182e-05 -3.625298984e-06 -3.478825884e-07 -6.120333998e-08 -1.104872147e-09)
5(-4.024232865e-05 -2.921033814e-06 -2.237639154e-07 1.121537171e-08 6.458507838e-08)
5(-3.139012467e-05 -2.23940105e-06 -8.262778685e-08 1.016543308e-07 1.40208352e-07)
5(-2.412049332e-05 -1.561138543e-06 6.517534915e-08 1.97316243e-07 2.038475197e-07)
5(-1.703831812e-05 -9.60194997e-07 2.026383993e-07 2.698362199e-07 2.311694045e-07)
5(-1.053953154e-05 -4.480054878e-07 2.923282792e-07 2.862205029e-07 2.002838449e-07)
5(-6.500054488e-06 -8.653804825e-08 3.022032116e-07 2.314921071e-07 1.194942336e-07)
5(-3.297343389e-06 8.544529357e-08 2.204730483e-07 1.100280156e-07 1.667087027e-09)
5(-1.455391687e-06 9.227619618e-08 7.059849165e-08 -3.147792022e-08 -9.154789155e-08)
5(-5.12702907e-07 -8.946437355e-09 -9.063905473e-08 -1.372230635e-07 -1.257413737e-07)
5(-2.255123702e-07 -1.38939836e-07 -1.983474831e-07 -1.731480089e-07 -1.100860776e-07)
5(-2.142316396e-07 -2.279240348e-07 -2.162133636e-07 -1.472010612e-07 -7.175179214e-08)
5(-2.464397949e-07 -2.312664676e-07 -1.718560821e-07 -9.000860981e-08 -3.349265256e-08)
5(-2.222756136e-07 -1.691442564e-07 -9.876103425e-08 -4.156232235e-08 -1.215088493e-08)
5(-1.695933118e-07 -9.417975954e-08 -4.027721089e-08 -1.34662861e-08 -3.123994893e-09)
5(-9.630687789e-08 -3.868975637e-08 -1.208147802e-08 -3.241123301e-09 -5.311054457e-10)
5(-3.845014289e-08 -1.060688943e-08 -2.501272394e-09 -4.952753229e-10 -5.238555811e-11)
5(-9.188013225e-09 -1.985447422e-09 -3.192483375e-10 -4.974866762e-11 -4.304851903e-12)
5(-1.531461229e-09 -2.222731367e-10 -2.349472425e-11 -3.450264506e-12 -1.989881362e-13)
5(-1.460939758e-10 -4.29182332e-11 -4.723250449e-13 -3.407138366e-11 -4.274783337e-15)
5(-4.895933049e-12 -5.097390552e-09 7.347842088e-11 -5.786248151e-09 -8.313810261e-17)
5(-3.209027348e-14 -1.117487407e-06 1.503065567e-08 -1.221972662e-06 -3.67586029e-19)
5(-4.356555022e-16 -0.0003417861821 4.097921405e-06 -0.0003431052762 -9.605090572e-22)
5(-1.727001705e-19 -0.174993585 0.001602462917 -0.151878017 -2.274285491e-25)
5(-2.049317255e-22 -652.597689 -7.719416717e-09 -501.1671683 -4.937448456e-29)
)


60
(
5(2.591566895e-06 1.388743019e-06 2.117838593e-06 1.01430053e-06 5.057927942e-07)
5(2.433882344e-06 1.777558067e-06 1.565152406e-06 8.203835856e-07 3.438344213e-07)
5(2.124514842e-06 1.857732761e-06 1.33530437e-06 7.138386654e-07 2.747033507e-07)
5(1.675970769e-06 1.699975379e-06 1.223209752e-06 6.38923004e-07 2.418595349e-07)
5(9.709543841e-07 1.384350626e-06 1.100824488e-06 5.604104019e-07 2.21330863e-07)
5(-2.85794368e-07 8.776543783e-07 8.711274354e-07 4.532746375e-07 1.980441982e-07)
5(-2.293193236e-06 1.034893569e-07 5.017429658e-07 3.021026116e-07 1.626137194e-07)
5(-5.023846561e-06 -9.742802721e-07 -3.964169732e-09 1.057577727e-07 1.117994545e-07)
5(-8.644996685e-06 -2.40981869e-06 -6.502274386e-07 -1.450020032e-07 4.421944657e-08)
5(-1.356798132e-05 -4.280909079e-06 -1.460281283e-06 -4.584493738e-07 -4.827439992e-08)
5(-1.980963199e-05 -6.536804431e-06 -2.449002359e-06 -8.41446898e-07 -1.667127076e-07)
5(-2.793645063e-05 -9.253429386e-06 -3.604836626e-06 -1.28244305e-06 -3.158889823e-07)
5(-3.75587707e-05 -1.230119614e-05 -4.867107794e-06 -1.760517202e-06 -4.852739736e-07)
5(-4.993502869e-05 -1.551535843e-05 -6.159148242e-06 -2.237312835e-06 -6.594351991e-07)
5(-6.200732582e-05 -1.883380196e-05 -7.390659993e-06 -2.677579895e-06 -8.228707121e-07)
5(-7.609047292e-05 -2.208937539e-05 -8.517255766e-06 -3.043815455e-06 -9.610037111e-07)
5(-9.285728176e-05 -2.529515818e-05 -9.423705795e-06 -3.325946476e-06 -1.06089206e-06)
5(-0.0001109168052 -2.824009258e-05 -1.013750324e-05 -3.525650736e-06 -1.13057598e-06)
5(-0.0001307456216 -3.09752858e-05 -1.067671165e-05 -3.621299996e-06 -1.162234718e-06)
5(-0.0001529609393 -3.357995927e-05 -1.099185531e-05 -3.643084628e-06 -1.167055648e-06)
5(-0.0001770790534 -3.596772271e-05 -1.110715234e-05 -3.581397275e-06 -1.138033043e-06)
5(-0.0002015812994 -3.798824062e-05 -1.104272025e-05 -3.457823451e-06 -1.094401627e-06)
5(-0.0002302683934 -3.991773888e-05 -1.082783719e-05 -3.2723874e-06 -1.026420961e-06)
5(-0.0002613894544 -4.149704704e-05 -1.042631987e-05 -3.029524128e-06 -9.35514685e-07)
5(-0.0002889147301 -4.284394834e-05 -9.85591061e-06 -2.742166207e-06 -8.381033618e-07)
5(-0.0003212530503 -4.426417363e-05 -9.196682939e-06 -2.430743904e-06 -7.37345501e-07)
5(-0.0003453655881 -4.448265944e-05 -8.49174295e-06 -2.10800054e-06 -6.280329773e-07)
5(-0.0003738628603 -4.494456735e-05 -7.742408123e-06 -1.79390732e-06 -5.289203384e-07)
5(-0.0003959825652 -4.539263672e-05 -6.944506447e-06 -1.490997829e-06 -4.380284042e-07)
5(-0.0004209246885 -4.498450593e-05 -6.181887562e-06 -1.220876142e-06 -3.626719634e-07)
5(-0.0004304745882 -4.36434122e-05 -5.510159929e-06 -9.84374352e-07 -3.006829474e-07)
5(-0.0004264687173 -4.234594922e-05 -4.882445399e-06 -7.9318314e-07 -2.540889326e-07)
5(-0.0004156979725 -4.008987416e-05 -4.257216284e-06 -6.346375059e-07 -2.147529987e-07)
5(-0.0003962353922 -3.769926663e-05 -3.643664207e-06 -5.094303254e-07 -1.78472388e-07)
5(-0.0003736888812 -3.423985152e-05 -3.110208466e-06 -3.982697983e-07 -1.337435882e-07)
5(-0.0003377881305 -2.993321734e-05 -2.587107853e-06 -2.868785531e-07 -6.992780561e-08)
5(-0.0002886261536 -2.603937703e-05 -2.065501478e-06 -1.632784862e-07 2.342718234e-08)
5(-0.000237846615 -2.150862692e-05 -1.542812856e-06 -1.460803066e-08 1.487864695e-07)
5(-0.0001837237876 -1.614422564e-05 -1.028452375e-06 1.51805612e-07 2.650694864e-07)
5(-0.0001348934823 -1.173655367e-05 -5.452414582e-07 3.043706685e-07 3.565563273e-07)
5(-9.324818867e-05 -7.837338887e-06 -1.343456926e-07 3.994158375e-07 3.799596638e-07)
5(-5.829738477e-05 -4.771296141e-06 1.361890538e-07 3.964131038e-07 3.00390212e-07)
5(-3.33557868e-05 -2.630989248e-06 2.312177688e-07 2.833991893e-07 1.40025283e-07)
5(-1.764352444e-05 -1.216751035e-06 1.527200169e-07 8.541045409e-08 -4.213609325e-08)
5(-7.717136015e-06 -5.297456514e-07 -1.804662952e-08 -1.159123437e-07 -1.887581707e-07)
5(-3.059853351e-06 -3.182025598e-07 -2.047482286e-07 -2.470187646e-07 -2.392859475e-07)
5(-1.155327637e-06 -3.198319733e-07 -3.097657789e-07 -2.780926667e-07 -1.98294281e-07)
5(-5.124299374e-07 -3.473207479e-07 -3.019050612e-07 -2.141578216e-07 -1.216849672e-07)
5(-3.788406179e-07 -3.117594293e-07 -2.183488718e-07 -1.243795105e-07 -5.513646348e-08)
5(-3.245646523e-07 -2.212599849e-07 -1.170214566e-07 -5.583017212e-08 -1.818888125e-08)
5(-2.27188535e-07 -1.215963112e-07 -4.654114834e-08 -1.771081764e-08 -4.55916819e-09)
5(-1.301157008e-07 -4.613588845e-08 -1.312559871e-08 -4.081258476e-09 -9.096902508e-10)
5(-6.404084105e-08 -1.353391173e-08 -2.527820178e-09 -5.895441886e-10 -6.848617611e-11)
5(-1.8346153e-08 -2.719466619e-09 -2.943573309e-10 -5.218029345e-11 -5.836701442e-12)
5(-2.3884525e-09 -3.509987426e-10 -2.007222458e-11 -4.803910011e-11 -2.049206686e-13)
5(-4.233313061e-10 -5.58154335e-09 3.206747952e-11 -6.159639404e-09 -1.796627285e-15)
5(-1.76980216e-11 -1.102878826e-06 5.520419326e-09 -1.013858205e-06 -2.83273535e-17)
5(-2.294416539e-13 -0.0002909382256 1.014944542e-06 -0.0002142415601 -3.283336067e-20)
5(-2.472998279e-15 -0.1136155043 -8.039639086e-07 -0.06271618509 -1.33567119e-23)
5(-2.339917263e-15 -3.836560478e-19 2.043598596e-14 -1.015660958e-28 -3.438372041e-30)
)


60
(
5(5.083813906e-06 2.950958369e-06 3.897782505e-06 1.824116649e-06 7.893047178e-07)
5(5.102849793e-06 3.909910132e-06 3.114970325e-06 1.517968661e-06 5.522196761e-07)
5(4.412155739e-06 4.120586856e-06 2.757482324e-06 1.337163598e-06 4.45843082e-07)
5(3.109279759e-06 3.756809022e-06 2.543032352e-06 1.200460399e-06 3.961302359e-07)
5(8.477924489e-07 3.014494789e-06 2.268792287e-06 1.056620116e-06 3.648656213e-07)
5(-3.111789401e-06 1.807312983e-06 1.793499716e-06 8.693691346e-07 3.327747914e-07)
5(-8.939560149e-06 1.410139933e-08 1.054243327e-06 6.104332706e-07 2.913501251e-07)
5(-1.700860135e-05 -2.454794427e-06 5.857846004e-08 2.716494869e-07 2.206360505e-07)
5(-2.764795571e-05 -5.77263536e-06 -1.221880487e-06 -1.664721443e-07 1.219686873e-07)
5(-4.200564299e-05 -1.00039402e-05 -2.815879886e-06 -7.28521814e-07 -2.059163625e-08)
5(-6.078776609e-05 -1.536340217e-05 -4.797059911e-06 -1.428328275e-06 -2.234620835e-07)
5(-8.436226734e-05 -2.170590873e-05 -7.133465052e-06 -2.267780448e-06 -4.91242045e-07)
5(-0.0001142611932 -2.906079657e-05 -9.76016834e-06 -3.21026579e-06 -8.178289751e-07)
5(-0.0001482681607 -3.718338826e-05 -1.25101986e-05 -4.194862083e-06 -1.173168787e-06)
5(-0.0001902649255 -4.582537905e-05 -1.524052169e-05 -5.152481683e-06 -1.531436287e-06)
5(-0.0002376185891 -5.483497555e-05 -1.782245665e-05 -6.010669784e-06 -1.852516354e-06)
5(-0.000292059435 -6.382334709e-05 -2.01221201e-05 -6.72007532e-06 -2.122947788e-06)
5(-0.0003577424355 -7.327906395e-05 -2.211444898e-05 -7.245564545e-06 -2.325932727e-06)
5(-0.0004258668082 -8.273539867e-05 -2.370072187e-05 -7.601869739e-06 -2.453493288e-06)
5(-0.0005094108952 -9.26145332e-05 -2.500277919e-05 -7.797540298e-06 -2.53195869e-06)
5(-0.000601928664 -0.0001027546013 -2.596168041e-05 -7.83767811e-06 -2.53261556e-06)
5(-0.0006984615912 -0.0001130823101 -2.661405086e-05 -7.746780509e-06 -2.480158437e-06)
5(-0.0008220783558 -0.0001242144215 -2.710535832e-05 -7.50046017e-06 -2.379459198e-06)
5(-0.0009470601956 -0.0001361003446 -2.731226387e-05 -7.13627244e-06 -2.238330457e-06)
5(-0.001071107365 -0.0001479048497 -2.729936243e-05 -6.697289785e-06 -2.061462631e-06)
5(-0.001215669134 -0.0001594201769 -2.724748056e-05 -6.168188797e-06 -1.859305142e-06)
5(-0.001376049145 -0.0001715543791 -2.701525845e-05 -5.583814757e-06 -1.641027253e-06)
5(-0.001516748346 -0.0001836824149 -2.651975869e-05 -5.010793938e-06 -1.429726986e-06)
5(-0.001616303865 -0.0001937529352 -2.585770737e-05 -4.428604628e-06 -1.207832415e-06)
5(-0.001740643069 -0.0002002925396 -2.531863212e-05 -3.846902215e-06 -1.010461366e-06)
5(-0.001830903954 -0.0002078258988 -2.474462616e-05 -3.344331573e-06 -8.416591886e-07)
5(-0.001893456086 -0.0002133178106 -2.369926598e-05 -2.882491346e-06 -6.92887075e-07)
5(-0.001896365291 -0.0002095279454 -2.249524557e-05 -2.476973314e-06 -5.695071864e-07)
5(-0.001826435787 -0.0002032851487 -2.107975811e-05 -2.114717865e-06 -4.708239469e-07)
5(-0.001755697831 -0.0001924060643 -1.952946284e-05 -1.780649884e-06 -3.697969985e-07)
5(-0.001597280864 -0.0001781755041 -1.757210703e-05 -1.475848373e-06 -2.598237363e-07)
5(-0.00144447296 -0.0001597963505 -1.506550387e-05 -1.165584097e-06 -1.204239979e-07)
5(-0.001216183713 -0.0001352719004 -1.253037391e-05 -8.185646357e-07 5.352552259e-08)
5(-0.0009933488359 -0.0001090554992 -9.90105623e-06 -4.426380877e-07 2.47961402e-07)