/*--------------------------------*- C++ -*----------------------------------*\
| =========                 |                                                 |
| \\      /  F ield         | OpenFOAM: The Open Source CFD Toolbox           |
|  \\    /   O peration     | Version:  2.3.1                                 |
|   \\  /    A nd           | Web:      www.OpenFOAM.org                      |
|    \\/     M anipulation  |                                                 |
\*---------------------------------------------------------------------------*/
FoamFile
{
    version     2.0;
    format      ascii;
    class       dictionary;
    location    "constant";
    object      rCH3;
}
// * * * * * * * * * * * * * * * * * * * * * * * * * * * * * * * * * * * * * //

rCH3_table
60
(

60
(
5(-0.0004306644519 -0.0001649249896 -0.0005464808421 -0.0002926795992 -0.0005303151164)
5(-0.0001650782719 -2.253946598e-05 -0.0001740107462 -0.0001043887297 -0.0001265882881)
5(0.03243529821 -5.089376374e-05 -6.770327377e-05 -3.532957111e-05 0)
5(0.05261472083 -6.103995892e-05 -7.571377246e-05 -1.30953301e-05 -4.914447847e-05)
5(0.01990464637 -5.182868814e-05 -7.34132018e-05 -3.290931101e-05 -2.55044408e-05)
5(0.002689697829 -4.359576143e-05 -2.111479663e-05 -3.395356592e-05 -1.483480926e-05)
5(-6.949280017e-05 -3.993239982e-05 -2.856647644e-05 -2.105413821e-05 -4.199024919e-05)
5(-3.253772792e-05 -4.354264443e-05 -5.740369239e-05 -3.018123578e-05 -8.918619756e-06)
5(-0.02692093479 -5.271574778e-05 -6.483820065e-05 -3.62181808e-05 -2.103996781e-05)
5(-0.07930778236 -9.515156895e-05 -0.0001031032606 -3.855784144e-05 -2.841336968e-05)
5(-0.09909932367 -0.0001452640251 -0.0001077016765 -4.894280089e-05 -3.229440613e-05)
5(-0.01070121343 -8.668575818e-05 -8.953567511e-05 -5.12252045e-05 -3.423404169e-05)
5(-8.571177052e-05 -0.0001052811557 -9.137994164e-05 -6.963558774e-05 -4.1891381e-05)
5(-0.0001252312227 -0.0001312275126 -0.0001145882818 -7.09753162e-05 -4.586740718e-05)
5(-0.0001282310018 -0.0001509321475 -0.0001311437115 -9.828958015e-05 -5.610299875e-05)
5(-0.0002064862608 -0.000457212479 -0.0002306330213 -0.000158592224 -7.951669883e-05)
5(-0.0004716076725 -0.0004897960358 -0.0003355320329 -0.0001889176785 -0.0001070352901)
5(-0.0003849705578 -0.0005203467192 -0.0003150681842 -0.0002498875392 -0.0001519938603)
5(-0.0003601597897 -0.0005501273274 -0.0004268596113 -0.0003463900854 -0.0002599351842)
5(-0.0005268359543 -0.0007062968589 -0.000646555593 -0.0005679533378 -0.0003651100804)
5(-0.0007274262414 -0.0009762965901 -0.0008910668701 -0.0008274195844 -0.0004813322191)
5(-0.001064842435 -0.001417061086 -0.001466616387 -0.001023691687 -0.0006431721729)
5(-0.001678130104 -0.002218219703 -0.002182081024 -0.001862016399 -0.0011873199)
5(-0.002474402443 -0.003674054448 -0.003348511777 -0.002946574651 -0.001861496887)
5(-0.004107286568 -0.006766797362 -0.005447843675 -0.005005648724 -0.003173865763)
5(-0.006343427279 -0.01260135548 -0.009303613786 -0.008564591465 -0.004971617873)
5(-0.009699887144 -0.01697746196 -0.01354501619 -0.01359664588 -0.007718798612)
5(-0.01465398642 -0.02026906494 -0.02145069475 -0.02051973452 -0.01129647231)
5(-0.02370017834 -0.03091073327 -0.03038722288 -0.02820634899 -0.01621910067)
5(-0.03512040707 -0.04600260112 -0.04229937476 -0.03494951836 -0.0200452196)
5(-0.05215503539 -0.06472188464 -0.05938263477 -0.04671477481 -0.02409686125)
5(-0.07153514296 -0.0810710347 -0.06877299199 -0.04648962495 -0.01822923484)
5(-0.09167192091 -0.09883701524 -0.07864824233 -0.0445630966 -0.01943203902)
5(-0.1124677729 -0.1076248046 -0.07896393802 -0.02906546344 -0.001296460897)
5(-0.1233074795 -0.08684820206 -0.0501173046 -8.321740217e-05 0.06554728495)
5(-0.1100891582 -0.04399501362 0.0003320224229 0.04204977423 0.1001040485)
5(-0.05975985729 0.04890356835 0.08202890088 0.08369557495 0.04428983719)
5(0.04238656183 0.1753459483 0.1749246544 0.129696331 0.0251398408)
5(0.20198225 0.3206953807 0.2785628609 0.1278550915 0.04666106681)
5(0.4013720406 0.4525987113 0.3592377308 0.1106762194 0.0008661396327)
5(0.5855355019 0.4770673146 0.2504283427 0.1002084738 0.001205261621)
5(0.6889015167 0.4216048653 0.1474546824 0.2671467948 -7.234197807e-19)
5(0.6570477112 0.2032366067 -0.008615434614 -2.713773964e-22 -3.322902726e-22)
5(0.5018513341 0.004483474364 -0.1187283746 -1.831478747e-21 0.7464323805)
5(0.1667305372 -0.1828707634 -0.1422159781 2.146268498e-21 0.1915623562)
5(-0.1702617876 -0.271742081 -0.09374343371 7.084184565e-20 7.649828376e-20)
5(-0.3920602542 -0.2008893924 0.01206414634 0.1899509315 6.176487969e-20)
5(-0.1957179995 -0.04854280838 0.0183847948 7.717673716e-19 7.804680395e-19)
5(-0.2861175835 -0.02481580594 0.005657959661 9.542715277e-19 5.177535502e-18)
5(-0.1494604718 -0.0001890309124 -1.552330258e-19 1.614107714e-18 5.335709096e-18)
5(-0.05903243984 1.421936553e-19 5.661467544e-20 1.025775597e-18 9.642431721e-19)
5(-0.006860787943 1.692820406e-20 -2.642744714e-19 -1.344611962e-18 -1.167741274e-17)
5(-7.934987907e-05 -1.273124217e-18 4.080721013e-21 -8.678992505e-20 1.00250062e-17)
5(1.867694735e-20 -1.20978986e-18 -3.349257871e-18 -1.544090622e-17 -7.940162582e-17)
5(1.236491622e-19 -3.82084801e-18 -3.810060635e-18 -9.389792665e-18 -6.393660114e-17)
5(-1.280557409e-15 -3.145876978e-18 -4.248416417e-18 -6.638663404e-17 -6.956529353e-17)
5(-6.226978374e-15 -4.776703962e-18 -1.05067194e-17 -6.614844182e-17 -1.361218299e-16)
5(-9.916305512e-15 -1.285466871e-14 -6.897584041e-17 -4.997266979e-16 -3.887312162e-15)
5(-8.927360601e-15 -2.482886282e-14 -4.945015969e-14 -8.043459949e-16 -3.42415812e-15)
5(-3.351394186e-18 -1.675852724e-17 -7.610020533e-17 -3.449289781e-16 -9.047562758e-16)
)


60
(
5(-0.001041347638 -0.0006234166519 -0.001390013892 -0.0009859521617 -0.00146731018)
5(-0.0006858561047 -0.0005951980991 -0.0007884732886 -0.000686942776 -0.0007181578158)
5(-0.0005556978343 -0.0005981341928 -0.0005991471443 -0.0005867909522 -0.0004925614811)
5(-0.0005421063341 -0.000630619847 -0.0005938250542 -0.00059625348 -0.0004730585292)
5(-0.0006084035658 -0.0006933219463 -0.0006895185083 -0.0006688617717 -0.0005629277475)
5(-0.0007110755863 -0.0007765724662 -0.0008124555797 -0.0007698121145 -0.000696737844)
5(-0.000807066677 -0.0008674956101 -0.000914178554 -0.0008659327337 -0.0008023844768)
5(-0.000887767552 -0.0009668571858 -0.001007517975 -0.0009661531034 -0.0008829558222)
5(-0.0009708821975 -0.001076940924 -0.00110754273 -0.001079516513 -0.0009685297219)
5(-0.001074448973 -0.00120327207 -0.001233634408 -0.001215664303 -0.001093031663)
5(-0.001193901186 -0.001352416474 -0.001395836586 -0.001383892725 -0.001250888714)
5(-0.001334903419 -0.001527506538 -0.001595042586 -0.001593955777 -0.001457584973)
5(-0.001484564893 -0.001739297976 -0.001837339304 -0.001870709149 -0.001732754453)
5(-0.001662317741 -0.002000767825 -0.002146691217 -0.002237965459 -0.002091817327)
5(-0.001873726411 -0.002349084596 -0.002551640138 -0.002742646003 -0.002584136193)
5(-0.002158533397 -0.002830125976 -0.003119541737 -0.003459549913 -0.003316541496)
5(-0.002577099091 -0.0035497085 -0.003978733228 -0.004549929571 -0.004435005167)
5(-0.003177760688 -0.004657141607 -0.005285931585 -0.006199639627 -0.006025373614)
5(-0.004151102813 -0.006359226821 -0.007321267911 -0.008751949735 -0.008555005444)
5(-0.00567357523 -0.009036475335 -0.01050864898 -0.01277452085 -0.01253973205)
5(-0.008218284884 -0.01339857535 -0.01570522959 -0.0192433553 -0.01893774013)
5(-0.01233420639 -0.02043644362 -0.02414379966 -0.02972653495 -0.02907863462)
5(-0.01890077148 -0.03182817242 -0.03775207018 -0.046602722 -0.0458086875)
5(-0.03005275924 -0.05031373162 -0.05996501604 -0.07372661854 -0.07222481793)
5(-0.04820830681 -0.07949460864 -0.09501790168 -0.1160877925 -0.1142738338)
5(-0.07695248163 -0.125224037 -0.149828717 -0.1814261743 -0.1788187036)
5(-0.1222084184 -0.1946631924 -0.2332108754 -0.2784555995 -0.2734485883)
5(-0.1903210414 -0.2974939227 -0.3550505825 -0.4160381144 -0.4024357106)
5(-0.2920012385 -0.4437547496 -0.5259231512 -0.6016398787 -0.5763531515)
5(-0.4343615578 -0.6411885918 -0.7526772432 -0.8357782695 -0.7877097564)
5(-0.6311294128 -0.893478137 -1.035709115 -1.109887196 -1.016216766)
5(-0.8807855519 -1.195233176 -1.351116349 -1.387053059 -1.22696279)
5(-1.173407869 -1.506073839 -1.65379392 -1.612645743 -1.371874647)
5(-1.481087963 -1.779901272 -1.870128188 -1.703018545 -1.326371859)
5(-1.754272177 -1.938503592 -1.903408812 -1.533141145 -1.04631388)
5(-1.897820701 -1.833251795 -1.606980645 -0.9882854498 -0.4187228763)
5(-1.821232221 -1.363314375 -0.858406064 -0.03845985613 0.5559928261)
5(-1.322491173 -0.3996193424 0.4021450298 1.299563396 1.73446194)
5(-0.3427726623 1.096518609 2.13380997 2.925590576 2.881485824)
5(1.143077243 2.95106308 4.054063447 4.374811257 3.684328485)
5(3.000916162 4.867269656 5.721024197 5.28802306 3.71489732)
5(5.151356344 6.511217043 6.527973268 5.144997208 2.876407621)
5(6.731292441 7.125770938 6.145627324 3.817480552 1.562400803)
5(7.07191722 6.381896624 4.459505537 1.846044465 0.03096000212)
5(6.322687622 4.258659185 1.90920623 -0.289872316 -0.9797747899)
5(4.009218341 1.523940761 -0.5377011258 -1.673804444 -1.297537074)
5(1.325500333 -1.359079119 -2.45219858 -2.054810528 -1.045309692)
5(-1.59336876 -3.165837971 -3.029469547 -1.674772143 -0.6054361776)
5(-2.910098366 -3.497124993 -2.46279107 -0.9990434234 -0.2659831798)
5(-3.586085672 -2.786581913 -1.440313039 -0.4499946822 -0.09220253752)
5(-2.652220248 -1.601431829 -0.6412894841 -0.15502838 -0.02624486681)
5(-1.518327229 -0.6830685442 -0.2109255472 -0.04240008375 -0.006432714008)
5(-0.5925078863 -0.2111679538 -0.05302313393 -0.009532002758 -0.001392284879)
5(-0.1617028992 -0.04475380038 -0.009753833692 -0.001790178371 -0.0002749546468)
5(-0.02774723613 -0.006996887603 -0.001393253846 -0.0002784125461 -4.433230971e-05)
5(-0.002617213667 -0.0006297449528 -0.00015273288 -3.259846493e-05 -5.773167209e-06)
5(-0.0001470734757 -4.523037412e-05 -8.997025951e-06 -2.544544065e-06 -4.3549291e-07)
5(-3.982000932e-06 -1.313694376e-06 -3.037258079e-07 5.940972982e-07 -1.541640244e-08)
5(-1.655603203e-08 -1.772572565e-06 -4.837769654e-07 -1.090415086e-06 -1.090841864e-10)
5(-4.494391527e-15 -1.438749778e-14 -0.001364256058 -4.992627433e-14 -9.191593006e-14)
)


60
(
5(-0.002117997144 -0.001444026609 -0.002970675366 -0.002379308741 -0.003259015366)
5(-0.001711756538 -0.001563736456 -0.002013945211 -0.001879467849 -0.001944712648)
5(-0.001561836033 -0.001679654575 -0.001727649432 -0.001735506213 -0.00154501018)
5(-0.001610057119 -0.001822816396 -0.001795385802 -0.001815649085 -0.001568509372)
5(-0.00181972606 -0.002025154238 -0.002065791742 -0.002039791955 -0.001827796981)
5(-0.002118653963 -0.002273826704 -0.002403606011 -0.00232147319 -0.002184369722)
5(-0.00239769829 -0.002530649833 -0.002696455142 -0.002576609539 -0.002458628667)
5(-0.002634757557 -0.00278315783 -0.002935946758 -0.00281568343 -0.002663595289)
5(-0.002853641726 -0.003032446022 -0.003164729802 -0.003054034664 -0.002851644387)
5(-0.0030843528 -0.003273439938 -0.003406091654 -0.003315953173 -0.003124300621)
5(-0.003287847615 -0.003510734436 -0.003672712817 -0.003605734957 -0.003439332668)
5(-0.003492261752 -0.003712956406 -0.00393805261 -0.003951325847 -0.00385575149)
5(-0.003615159333 -0.003883577532 -0.004207380236 -0.004359040134 -0.004401969791)
5(-0.003629829515 -0.004057554827 -0.004521124031 -0.004904732887 -0.005100103938)
5(-0.003648474505 -0.004239133372 -0.004962659467 -0.005635467714 -0.006213852342)
5(-0.003602749673 -0.004540581464 -0.005576868788 -0.006722191337 -0.007612272973)
5(-0.003564156876 -0.004980553136 -0.006531509436 -0.008374488416 -0.009761063109)
5(-0.003539985069 -0.005903043007 -0.008013985588 -0.0108568497 -0.01264528202)
5(-0.003854053648 -0.007542434862 -0.01060245289 -0.01474437371 -0.01722462788)
5(-0.004858048842 -0.01047269511 -0.0149435106 -0.0209024906 -0.02430139153)
5(-0.006563627801 -0.01550099665 -0.02222714153 -0.03103169064 -0.0358592164)
5(-0.01137065389 -0.02451787972 -0.03453912413 -0.04800019377 -0.05508903627)
5(-0.01867876536 -0.04005293221 -0.05509656386 -0.0758874076 -0.08542652096)
5(-0.03357479854 -0.0660767577 -0.08943985473 -0.1212527137 -0.1349582487)
5(-0.05737615676 -0.1087200641 -0.1455105822 -0.1935203138 -0.2135662915)
5(-0.09879668245 -0.1773639047 -0.2348215136 -0.3076516537 -0.3338604576)
5(-0.1650827792 -0.2841014528 -0.3723141388 -0.4758551975 -0.5148624054)
5(-0.2666009046 -0.4442933967 -0.5732642845 -0.7193177817 -0.7649072759)
5(-0.4220562411 -0.6758680929 -0.8611002742 -1.051773962 -1.109785201)
5(-0.645800798 -0.9936071874 -1.252270884 -1.483958414 -1.549576775)
5(-0.949805014 -1.40968914 -1.743546792 -2.00545326 -2.028015282)
5(-1.345305426 -1.924076544 -2.318890025 -2.578152938 -2.540641183)
5(-1.832514708 -2.49632709 -2.927526119 -3.123237579 -2.930819174)
5(-2.380550434 -3.053081396 -3.46537144 -3.459566169 -3.118654241)
5(-2.896185106 -3.491128964 -3.777177753 -3.435965071 -2.811083294)
5(-3.305615125 -3.625075483 -3.600549767 -2.851990726 -1.95650895)
5(-3.531246051 -3.231310366 -2.756868852 -1.50967013 -0.3726679038)
5(-2.981945324 -2.122895389 -1.002156261 0.6859983963 1.941342589)
5(-2.014256814 -0.2196757891 1.761113798 3.609823051 4.756090325)
5(-0.03988013246 2.523887127 5.052339764 6.779758472 7.142827971)
5(2.788711307 5.977365565 8.482176217 9.528116972 8.793263643)
5(5.780489129 9.225662107 11.27849234 11.06937245 8.488618373)
5(8.877421299 11.53658216 12.47131327 10.63491431 6.692791697)
5(11.07017103 12.0622636 11.16399086 7.631428244 3.716493078)
5(11.30226066 10.24889003 7.539500335 3.437132719 0.2556444889)
5(8.796394638 6.329340925 2.941880822 -0.697839997 -2.439898829)
5(5.394907184 1.447326491 -1.889653424 -3.738947431 -3.369068848)
5(0.7271573225 -2.875252487 -4.829164778 -4.720519252 -3.124039084)
5(-2.991348036 -5.288080502 -5.663171659 -3.911635036 -2.053817508)
5(-4.907389766 -5.638564262 -4.50050629 -2.572171273 -1.042590706)
5(-4.803082542 -4.304388604 -2.719499585 -1.253972464 -0.4073351076)
5(-3.606049678 -2.452187562 -1.239226272 -0.4661845159 -0.1256215437)
5(-1.924150139 -1.027881342 -0.409387158 -0.1309124225 -0.0309663609)
5(-0.6985226411 -0.2967239405 -0.09398091214 -0.02660690597 -0.006053248077)
5(-0.1620360926 -0.05723088443 -0.01520715793 -0.004273230375 -0.001024454935)
5(-0.02041120414 -0.006897327989 -0.001546322337 -0.000497932634 -0.0001231998789)
5(-0.001503663377 -0.0003776435187 -0.0001045731783 -3.475020537e-05 -9.332309627e-06)
5(-3.151133087e-05 -5.630532415e-05 -3.088768787e-06 -3.43856232e-05 -3.964598679e-07)
5(-2.003363815e-07 -0.02656292184 -2.808073188e-06 -0.01470819318 -2.125685974e-09)
5(-3.973562216e-11 -6.52880325e-14 -0.004535950838 -1.556938908e-13 -3.369758203e-13)
)


60
(
5(-0.003857106061 -0.002896015952 -0.005658640099 -0.004947172361 -0.006427903151)
5(-0.003553147914 -0.003403426533 -0.00432565596 -0.004208837261 -0.004310634886)
5(-0.003503117581 -0.003808496333 -0.003985047688 -0.004060939872 -0.003695728776)
5(-0.003715937095 -0.004200878014 -0.004258360442 -0.004319471315 -0.003841211352)
5(-0.004227238653 -0.004694785631 -0.004890472854 -0.004840529652 -0.004413853413)
5(-0.004914989106 -0.00527586203 -0.005628227948 -0.005459664999 -0.005165783779)
5(-0.005553872001 -0.005858141847 -0.00627503919 -0.006032544928 -0.005740803723)
5(-0.006092099442 -0.006396548351 -0.006795355063 -0.006502458642 -0.006119505516)
5(-0.006549960006 -0.006866628377 -0.007219772751 -0.006910400604 -0.006456134097)
5(-0.006996568385 -0.007276933494 -0.007591214538 -0.007294966125 -0.006888535248)
5(-0.007368451906 -0.00755862479 -0.00786614496 -0.007660963053 -0.007365022748)
5(-0.007520573144 -0.007692013507 -0.00807433627 -0.008028981758 -0.007980634762)
5(-0.007429603379 -0.00763856392 -0.008231744315 -0.008485688032 -0.008997651832)
5(-0.00698794793 -0.007379262436 -0.008304158902 -0.009060233903 -0.01002117355)
5(-0.006419873837 -0.006877678473 -0.008396993567 -0.009766380598 -0.01176815957)
5(-0.005359579992 -0.006144145581 -0.008513753989 -0.01083454057 -0.01382058319)
5(-0.003957395938 -0.005557240327 -0.008918445695 -0.01255314325 -0.01679904844)
5(-0.002376465012 -0.005265971848 -0.009886006855 -0.0152553776 -0.02067661597)
5(-0.0008714269628 -0.005269230009 -0.01150505286 -0.0193922798 -0.02646815789)
5(0.001126987278 -0.006223842875 -0.01490449576 -0.02589921119 -0.0354457105)
5(0.001816795948 -0.009650143422 -0.02138073144 -0.03670010109 -0.04962377989)
5(-0.001060216408 -0.01667860626 -0.03312101615 -0.05589803363 -0.07455530497)
5(-0.006524288512 -0.03094388357 -0.0552258793 -0.08882622267 -0.1126314598)
5(-0.01642964023 -0.05764975048 -0.09449679168 -0.1442224713 -0.1783526001)
5(-0.04209974543 -0.1049528766 -0.1601384668 -0.2355021898 -0.2863287534)
5(-0.08440989498 -0.1834669388 -0.2694372042 -0.380650124 -0.4529571024)
5(-0.159072611 -0.3087456773 -0.443299906 -0.604867127 -0.706238311)
5(-0.2751709252 -0.5038647617 -0.704088237 -0.9324139877 -1.074912602)
5(-0.4646145648 -0.7944582974 -1.083025456 -1.392238236 -1.563304902)
5(-0.7402017107 -1.202722944 -1.607722613 -2.001180937 -2.213900715)
5(-1.123086716 -1.747328162 -2.288791601 -2.760077392 -2.988227814)
5(-1.643022157 -2.436688902 -3.114369842 -3.629121032 -3.838423538)
5(-2.295400185 -3.236225596 -4.022450505 -4.52626105 -4.624839566)
5(-3.039821122 -4.09698259 -4.907522901 -5.238363691 -5.112432568)
5(-3.844142279 -4.885450652 -5.571216199 -5.573882412 -5.180880461)
5(-4.513233955 -5.384707423 -5.706833039 -5.225512953 -4.225301966)
5(-4.907584313 -5.278667021 -5.067525486 -3.832591478 -2.322667713)
5(-4.897744365 -4.361870514 -3.18896623 -1.230282947 0.7777492944)
5(-3.987518537 -2.283654926 -0.06171479205 2.585127456 4.932034047)
5(-1.98343774 1.031630654 4.190141544 7.321020216 9.524472847)
5(0.872616787 5.195534061 9.250254326 12.15603314 13.3995806)
5(5.02313265 9.784160676 13.99444301 15.76732751 14.75487084)
5(9.004476679 13.89854137 17.028088 17.00170643 14.64090128)
5(12.71964295 16.34002983 17.47958673 15.04361135 11.2008286)
5(13.95687116 15.87542939 14.97250801 10.04059011 5.311544116)
5(13.39543868 12.48768214 9.180491214 3.699825757 -0.8003756432)
5(10.30367986 7.799503541 1.951307298 -2.112755427 -4.827206644)
5(5.424211059 0.8947855718 -3.512297893 -6.405961425 -6.469567767)
5(-0.6885608686 -4.829571291 -7.08586097 -7.453652762 -5.514032997)
5(-4.325801944 -7.36196841 -7.981166608 -6.28380745 -3.62967402)
5(-6.16195029 -6.995974057 -5.957068257 -3.846017226 -1.858735621)
5(-5.796280363 -5.170646959 -3.393941776 -1.848243657 -0.7336919083)
5(-4.377401316 -2.714886043 -1.433474867 -0.6590293667 -0.2179537769)
5(-2.078293154 -1.029092072 -0.4218769008 -0.1698655386 -0.04928034396)
5(-0.7518854702 -0.2593897587 -0.08108076585 -0.03007480395 -0.008246783475)
5(-0.1475185702 -0.03821336427 -0.01002079315 -0.003515064017 -0.001074713452)
5(-0.01297571747 -0.003340542208 -0.0006029999671 -0.0002590807127 -7.570671796e-05)
5(-0.0008769794226 6.855425062e-05 -2.264158616e-05 0.000199607991 -2.900663535e-06)
5(-1.163151587e-05 0.1344484139 -0.001237594644 0.1207888366 -2.738099083e-08)
5(-2.753045323e-07 189.8222941 0.01777287539 178.0025549 2.55396448e-12)
)


60
(
5(-0.006463291897 -0.005252335329 -0.009860809274 -0.009252491279 -0.01164492751)
5(-0.006539710363 -0.006524366363 -0.008230530741 -0.008293837793 -0.008483682098)
5(-0.006790161579 -0.007486905457 -0.007954883109 -0.008238423537 -0.007617244151)
5(-0.007336739275 -0.008333286849 -0.008633677178 -0.008855940915 -0.007975010321)
5(-0.008346615369 -0.009334376221 -0.009904221468 -0.00989922237 -0.00910527771)
5(-0.009672361685 -0.01051641621 -0.01132369032 -0.01108360253 -0.01046308572)
5(-0.01090731417 -0.01165581595 -0.01257691713 -0.01213319593 -0.01152328091)
5(-0.01196475869 -0.01269505347 -0.0135667235 -0.01299265032 -0.01218805305)
5(-0.01287004999 -0.01351501721 -0.01426320222 -0.01364989311 -0.01278376398)
5(-0.01360569544 -0.01406828926 -0.01477030364 -0.0141263736 -0.01325454387)
5(-0.01415997511 -0.01440416332 -0.01508000953 -0.01450466829 -0.01419706888)
5(-0.0143326402 -0.01430880366 -0.01517229024 -0.01486883876 -0.01514469526)
5(-0.01384218838 -0.01382542796 -0.01496534806 -0.01531397781 -0.01658924793)
5(-0.01257498342 -0.01285295962 -0.01457450599 -0.01577456072 -0.01824120091)
5(-0.0108176985 -0.01136230796 -0.01381922585 -0.01642163623 -0.02052327799)
5(-0.008101106331 -0.009150309566 -0.01283259618 -0.01747373293 -0.02320163633)
5(-0.004804422234 -0.006481502879 -0.01187687887 -0.01867620182 -0.02743123121)
5(-0.0001722512786 -0.003740246491 -0.01090263541 -0.02018528201 -0.0307928669)
5(0.004863903803 -0.0006931301245 -0.01000130606 -0.02265581255 -0.03675696274)
5(0.01071567443 0.00197703918 -0.01032976385 -0.02727712311 -0.04454562896)
5(0.0164604736 0.003966820275 -0.01309766872 -0.03610826923 -0.05913816656)
5(0.02098996795 0.002823113436 -0.02076519123 -0.05159285309 -0.08226664016)
5(0.02467403195 -0.004606457554 -0.03678199152 -0.08151748666 -0.121137415)
5(0.02152783105 -0.02562423176 -0.07080426237 -0.1361132068 -0.1993685237)
5(0.001842717667 -0.06844263397 -0.1367066915 -0.2329015586 -0.3170707912)
5(-0.02795832828 -0.1451378448 -0.2531076392 -0.3938080736 -0.5144062476)
5(-0.1012853826 -0.2695268874 -0.442547635 -0.650046297 -0.8274189575)
5(-0.224448411 -0.4769340702 -0.7348560008 -1.034703976 -1.277707697)
5(-0.4310615158 -0.7926350075 -1.172516428 -1.59348943 -1.916198662)
5(-0.7173495524 -1.256548798 -1.793734696 -2.35120108 -2.754662041)
5(-1.162526563 -1.901019661 -2.62246676 -3.319374563 -3.80170017)
5(-1.777701885 -2.721364679 -3.645643044 -4.492988895 -5.023550835)
5(-2.547625944 -3.729854478 -4.849270302 -5.765804062 -6.201390375)
5(-3.472723825 -4.874440511 -6.124049054 -6.953668472 -7.186567018)
5(-4.487841133 -6.006137591 -7.196355912 -7.769219488 -7.598037349)
5(-5.544070419 -6.933593032 -7.810447465 -7.831158091 -7.007558247)
5(-6.38092483 -7.306327636 -7.631708444 -6.727627819 -5.12594771)
5(-6.610304054 -6.818125613 -6.170279095 -4.168789996 -1.683061229)
5(-6.176875548 -5.195491668 -3.129418928 0.1052412588 3.453737659)
5(-4.62161631 -2.050384079 1.706180524 5.963757292 9.732722431)
5(-1.842406126 2.495389171 7.784676893 12.48245904 15.66868457)
5(2.181119369 8.142760761 14.25352615 18.561063 20.09576831)
5(6.750841587 13.83293201 19.75710593 22.55366776 21.64472833)
5(11.68925964 18.11559549 22.69063136 22.60424204 19.10759511)
5(15.32362076 20.1074065 21.89887153 18.7722076 13.90761414)
5(16.79306818 18.46691573 16.48967929 11.2480421 6.36711942)
5(15.47429518 13.46294869 8.093419952 3.48573002 -1.692825829)
5(10.4029089 6.149632103 -0.7330834495 -4.844066592 -7.328278919)
5(4.594371212 -1.47767322 -7.445010359 -9.604386545 -9.315945225)
5(-1.050558168 -6.702937774 -10.45470705 -9.930193732 -8.059854981)
5(-5.866414292 -8.839398449 -9.795086218 -7.797863994 -5.106199224)
5(-7.302803378 -8.7902629 -6.844420537 -4.590083861 -2.479199243)
5(-6.135918158 -5.837803482 -3.545448592 -2.087600676 -0.9331667371)
5(-4.524483667 -2.924177932 -1.360246054 -0.6820925735 -0.2659906671)
5(-2.825336405 -1.057157059 -0.354293436 -0.1481752891 -0.05149505071)
5(-0.9465205811 -0.2441716954 -0.05574312599 -0.02077076562 -0.005738421106)
5(-0.2329915569 -0.03025634057 -0.004156900682 -0.001750424821 -0.000513420105)
5(-0.02750385491 -0.001561737705 -0.0001689210381 4.976130332e-05 -1.882778824e-05)
5(-0.001962776218 0.08025976023 1.773117058e-05 0.04644899342 -1.568720914e-07)
5(-0.002045340096 -1.062045167e-05 -0.03990807706 -1.296741283e-11 -1.362656904e-12)
)


60
(
5(-0.0101456041 -0.008805489906 -0.01603069524 -0.01599197953 -0.01972819345)
5(-0.01101247091 -0.01136375147 -0.01429363248 -0.01486018146 -0.01523977572)
5(-0.01179532783 -0.01324198258 -0.0143120792 -0.01502583467 -0.01405120184)
5(-0.01292788902 -0.01483982896 -0.01570568863 -0.01623420451 -0.01496996299)
5(-0.01474929401 -0.01664193627 -0.01792956486 -0.018109212 -0.01694235293)
5(-0.01701451034 -0.01869630973 -0.02038561391 -0.02019847158 -0.01914948982)
5(-0.01921424014 -0.02068919898 -0.02252757863 -0.02198184466 -0.0210629676)
5(-0.021017556 -0.02248128744 -0.02415377322 -0.02333229489 -0.02194378314)
5(-0.02261335464 -0.02389698713 -0.02525644406 -0.02428294991 -0.02271411863)
5(-0.02376654411 -0.02480834024 -0.02597713063 -0.02485929837 -0.02364661942)
5(-0.02464951579 -0.02510925328 -0.02623637374 -0.02527134086 -0.02477858418)
5(-0.02438804371 -0.0246932732 -0.02599285424 -0.02555717188 -0.02642534115)
5(-0.0234527324 -0.02349677959 -0.02530629034 -0.02599406532 -0.02836222242)
5(-0.021259524 -0.02126896176 -0.02415476355 -0.02654678135 -0.03107636386)
5(-0.01796558979 -0.01820071594 -0.02262178192 -0.02719538554 -0.03465008409)
5(-0.01294126057 -0.0140678908 -0.02038505931 -0.02755503192 -0.0384952051)
5(-0.006205911192 -0.008961511231 -0.01738212759 -0.0278820853 -0.04327240243)
5(0.002372777931 -0.002852493481 -0.01358366108 -0.02824423958 -0.04624912839)
5(0.01229546037 0.004790418733 -0.009248822709 -0.02874666097 -0.05311100265)
5(0.02342523029 0.01370913776 -0.004543112948 -0.02876754745 -0.05505736097)
5(0.03558606431 0.02250346515 7.923635278e-05 -0.03009862661 -0.0644899755)
5(0.05164317323 0.03111112582 0.002844003842 -0.03650791075 -0.08406336104)
5(0.0662129788 0.03597457158 -0.002780352018 -0.05554489058 -0.1176946724)
5(0.07369559346 0.03135713779 -0.02367601697 -0.1001893003 -0.1846311127)
5(0.07325871868 0.008857592238 -0.07335294368 -0.1868511863 -0.3120491998)
5(0.05727905253 -0.04818842225 -0.1749451287 -0.3420524983 -0.5137592354)
5(0.008519420666 -0.1637143301 -0.3551960828 -0.6041739041 -0.8490392888)
5(-0.1001779781 -0.3634657626 -0.6576453291 -1.014078668 -1.354957267)
5(-0.3008189067 -0.6844672562 -1.125423201 -1.625185388 -2.101259045)
5(-0.6025312974 -1.174159134 -1.809030117 -2.488632768 -3.099346095)
5(-1.087526552 -1.870879451 -2.748305724 -3.631875805 -4.402970647)
5(-1.748151351 -2.805317801 -3.970844953 -5.031127464 -5.933045847)
5(-2.629791132 -4.000485087 -5.441286832 -6.636845296 -7.564073972)
5(-3.719960579 -5.373222622 -7.042032224 -8.27183526 -9.210084131)
5(-5.000796747 -6.836998024 -8.588320113 -9.637735343 -10.19375964)
5(-6.394542871 -8.211813602 -9.774064907 -10.35297285 -10.19405037)
5(-7.498434474 -9.196963179 -10.20627069 -9.960058863 -8.694934525)
5(-8.382833144 -9.446400508 -9.365925853 -7.832941436 -5.272882168)
5(-8.409884954 -8.40436288 -6.754050499 -3.666420197 0.1740932138)
5(-7.542575029 -5.72215724 -2.199332135 2.529371953 7.437960504)
5(-5.217587137 -1.428703906 4.31219527 10.29252984 17.03448083)
5(-1.598843103 4.437405736 11.97268193 18.74655341 23.11791994)
5(3.187828233 11.19669853 19.68562317 25.68989286 28.8249554)
5(8.728391384 17.38300792 25.24843526 28.66429938 28.15344977)
5(13.55484736 21.80685671 27.4603717 26.98442186 24.6790839)
5(16.99901498 22.87806339 24.3386773 20.32277083 14.86728363)
5(22.47912508 20.0372189 16.75251385 10.3185286 2.886147188)
5(16.01013415 13.57812034 6.381786712 0.455942062 -4.855121931)
5(10.34609221 5.188676775 -2.960015092 -7.962466183 -10.85249548)
5(9.734675491 -1.893373713 -10.36986044 -12.97167843 -12.34404653)
5(-1.993945581 -8.633946523 -12.84457689 -12.46514595 -10.03412734)
5(-6.575643738 -9.749923899 -11.18889612 -8.879069332 -5.97921305)
5(-9.990831433 -10.01975797 -7.144871032 -4.886100949 -2.786681124)
5(-8.005002275 -6.814550345 -3.575554738 -1.99450238 -0.9557780773)
5(-6.90263388 -3.551159597 -1.273567916 -0.5777710794 -0.2222402833)
5(-2.948592728 -1.320195748 -0.265042607 -0.1032414074 -0.03397542879)
5(-1.815711198 -0.3333141622 -0.03958919408 -0.01015046497 -0.002589118605)
5(-0.5185821565 -0.04235166633 -0.00239672942 -0.0004739738978 -0.0001261962352)
5(-0.1564089285 -0.003844636424 -0.0002638189407 1.274118878e-05 -8.438292393e-07)
5(-0.1481234924 -0.006743138495 -0.1514240545 -5.147983487e-08 1.658587894)
)


60
(
5(-0.01512940819 -0.01386829831 -0.02469003505 -0.02598706545 -0.03163840967)
5(-0.01731852931 -0.01836174077 -0.0230822842 -0.0247853459 -0.02550612)
5(-0.01905111742 -0.02167202776 -0.02372641745 -0.02537206867 -0.02404673925)
5(-0.02103798628 -0.02438208651 -0.02624712015 -0.02746794623 -0.02538714071)
5(-0.02404243864 -0.02736966959 -0.02996989788 -0.03051282277 -0.02865326656)
5(-0.02763653375 -0.03075725656 -0.03384442572 -0.03377880593 -0.03204555823)
5(-0.03118448123 -0.03398243028 -0.0372254828 -0.03660107185 -0.0349246729)
5(-0.03418749703 -0.036837019 -0.03979784337 -0.03878703401 -0.03623944866)
5(-0.03664887992 -0.03911606137 -0.04148515432 -0.04021320804 -0.03748723494)
5(-0.03855976673 -0.04040336117 -0.04242377307 -0.04103120751 -0.03938670302)
5(-0.03944327546 -0.0406707328 -0.04262806403 -0.04139683075 -0.04095494675)
5(-0.03884297253 -0.03956614817 -0.04193896758 -0.04176040982 -0.04333066557)
5(-0.03734870017 -0.03725959416 -0.04062982578 -0.04219710846 -0.04627812405)
5(-0.0339318433 -0.03379606328 -0.03844597793 -0.04275345132 -0.05028996615)
5(-0.02857746347 -0.02898692488 -0.0355105276 -0.04340250754 -0.05568292062)
5(-0.020560897 -0.02196544872 -0.03134357148 -0.04342204087 -0.06217755807)
5(-0.009628482744 -0.01280476993 -0.02627827158 -0.04289800937 -0.06819971656)
5(0.003601987896 -0.001941417187 -0.01909810114 -0.04138769138 -0.07315369899)
5(0.01775828273 0.01079368196 -0.009969398604 -0.0381158936 -0.07150785004)
5(0.03965933085 0.02749678983 0.003301223205 -0.03111281809 -0.07714748439)
5(0.06371747061 0.04841635709 0.01935575247 -0.02238295464 -0.07058091076)
5(0.08665761268 0.07126873395 0.03598015748 -0.01330839682 -0.07386590518)
5(0.1204551855 0.09370169014 0.05062068545 -0.01232216283 -0.09169220109)
5(0.1440100737 0.1093705979 0.05391728057 -0.03257703807 -0.1355964661)
5(0.1734649486 0.1084551301 0.02961031893 -0.09609562856 -0.2312498687)
5(0.1803163028 0.08348865026 -0.04203488805 -0.2337414411 -0.4231819857)