/*--------------------------------*- C++ -*----------------------------------*\
| =========                 |                                                 |
| \\      /  F ield         | OpenFOAM: The Open Source CFD Toolbox           |
|  \\    /   O peration     | Version:  2.3.1                                 |
|   \\  /    A nd           | Web:      www.OpenFOAM.org                      |
|    \\/     M anipulation  |                                                 |
\*---------------------------------------------------------------------------*/
FoamFile
{
    version     2.0;
    format      ascii;
    class       dictionary;
    location    "constant";
    object      rCH3OCH2;
}
// * * * * * * * * * * * * * * * * * * * * * * * * * * * * * * * * * * * * * //

rCH3OCH2_table
60
(

60
(
5(1.306910238e-08 2.3889339e-09 1.142651176e-08 4.086316269e-09 5.374622466e-09)
5(2.619187633e-09 1.195138815e-10 2.455929939e-09 1.124897627e-09 1.27798208e-09)
5(1.970181998e-19 1.413780639e-10 3.514408534e-10 1.440164344e-10 0)
5(2.639961976e-18 -4.631769229e-11 1.551789985e-10 3.507426156e-21 1.11491086e-10)
5(2.46887815e-16 -1.332201624e-10 -9.604773442e-12 7.89746404e-12 4.439763577e-11)
5(3.295722307e-09 -1.203702041e-10 -5.008166579e-11 -1.066280272e-10 -3.869786538e-11)
5(-2.070272399e-10 -7.406947481e-11 -1.743233018e-10 -6.517667614e-11 -9.904317922e-11)
5(-3.720061904e-11 -2.780314649e-11 -1.268843756e-10 -4.197089562e-11 -1.721196171e-11)
5(5.181951833e-09 -3.383065305e-12 -1.460357702e-10 -9.939819639e-12 -7.884100064e-13)
5(4.756923064e-09 -2.747765547e-10 -3.262494292e-10 -6.439316683e-11 -1.147614245e-13)
5(2.887623502e-09 -1.249857685e-09 -7.916674675e-10 -3.291292097e-10 -3.723411022e-11)
5(1.993915432e-09 -2.947709164e-11 -7.705430696e-10 -1.83868167e-11 -1.758454419e-10)
5(-2.200325587e-11 -1.91719984e-11 -2.134185068e-11 -1.269007364e-11 -9.598036027e-12)
5(-1.655520274e-11 -8.259958562e-12 -1.289686293e-11 -2.571944233e-12 -1.905661321e-12)
5(-8.197180929e-12 -1.97180268e-11 -4.632804522e-12 -1.095825509e-12 -4.945191606e-13)
5(-1.356054348e-10 -4.61244763e-08 -7.254409451e-10 -1.238103297e-09 -1.382130981e-10)
5(-1.010410553e-09 -6.214549428e-08 -1.640841031e-09 -8.936587048e-10 -5.958799878e-13)
5(-1.105018072e-09 -6.750404793e-08 -6.701219952e-11 -4.936593033e-12 -3.142675506e-13)
5(2.782967653e-13 -4.206113608e-08 -4.922051405e-12 -1.44271831e-12 -1.165926999e-10)
5(-1.19464343e-13 -4.789824595e-12 -2.778100244e-12 -2.603888098e-12 -1.518008733e-10)
5(-9.926001728e-13 -5.36503006e-11 3.23350505e-13 -2.138042898e-12 -1.24910792e-11)
5(1.075648765e-12 -1.850712062e-12 -4.608317613e-11 -8.088645916e-13 -1.458255666e-13)
5(-1.760078431e-12 -1.228631026e-12 -5.256142086e-11 -2.806776256e-13 -5.685818989e-13)
5(-5.824465474e-13 -9.320515524e-13 -5.983135893e-13 -3.701138485e-13 -6.192616116e-14)
5(-3.449090134e-11 -5.223362841e-11 -1.355814392e-13 -2.59463301e-13 -7.676281197e-13)
5(-7.940575153e-11 -1.861523701e-10 -1.513794215e-12 -2.622553576e-13 -6.071358892e-14)
5(-4.156179971e-13 -1.748410421e-10 -2.064451318e-12 -1.421956713e-12 -8.091284148e-13)
5(-9.153970972e-13 -1.900243085e-12 -1.4246746e-12 -2.233704624e-12 -6.652563438e-14)
5(-1.32505807e-11 -9.486090656e-12 -5.431657491e-12 -7.616086404e-12 -3.299366513e-12)
5(-1.320672391e-11 -1.401695313e-11 -2.061997835e-11 -2.970528927e-11 -5.391418526e-13)
5(-3.550269332e-11 -5.504514509e-11 -4.456704256e-11 6.632826836e-11 -3.650449956e-11)
5(-4.327690568e-11 -4.918305021e-11 -6.452298526e-11 2.012186748e-10 -1.778910003e-10)
5(-2.429475293e-10 -6.489681004e-10 -4.387087821e-10 5.073117711e-11 -7.655057932e-10)
5(-8.376158685e-10 -1.527402155e-09 -1.372366498e-09 -1.664209934e-10 -1.442962449e-10)
5(-1.9940977e-09 -5.768773161e-10 -3.774169832e-09 -6.797848159e-10 -4.428658051e-09)
5(-3.850953159e-09 -6.201958819e-10 -3.324504644e-09 -2.23479129e-09 -7.745162564e-09)
5(-6.573057466e-09 -2.011861777e-09 -3.880039034e-09 -1.205344354e-09 -6.142961111e-09)
5(-6.007423172e-09 -7.536986637e-09 -1.005323611e-08 -1.346943885e-08 -1.008934762e-08)
5(-7.276886669e-09 -6.782863066e-09 -5.082694829e-08 -1.849672767e-08 -2.571118373e-08)
5(-1.849725734e-08 -1.00837869e-08 5.690029465e-09 -1.801671037e-08 -2.086846999e-10)
5(-1.826514469e-08 -3.140982231e-08 7.412092919e-08 -2.320823725e-08 -2.951292229e-10)
5(5.444110051e-10 -7.199761476e-08 5.45003978e-08 -1.518303907e-07 -3.143375878e-33)
5(2.597125838e-09 -3.999551534e-09 -1.617283571e-08 -6.893561278e-36 -1.833290842e-35)
5(-3.276827853e-08 5.097643492e-08 -8.389070532e-08 4.53800433e-35 -1.412617483e-08)
5(-3.166646073e-08 4.729469938e-08 -1.028236901e-07 -2.851887118e-35 -1.161861827e-09)
5(-3.42963535e-08 -7.144343602e-09 -5.812318759e-09 -3.659329855e-33 -5.102936154e-33)
5(1.045605811e-09 -4.883394729e-08 -1.089481578e-08 -8.833254771e-09 9.181467663e-34)
5(-1.123617854e-07 -1.353190883e-09 -8.072540162e-09 -8.358086241e-32 -7.2162661e-32)
5(-5.763206982e-09 -2.502695792e-10 -2.140200489e-09 -2.044778835e-32 -5.962653595e-31)
5(-1.384021088e-09 -4.398218091e-11 -1.202455693e-32 -1.662971644e-31 3.687200577e-32)
5(-6.254099849e-10 -2.818185789e-33 8.630074803e-33 8.952452042e-32 1.217607081e-29)
5(-6.402770375e-10 1.731060333e-32 3.890900148e-33 1.147114333e-30 1.616248388e-29)
5(-3.822801245e-13 3.214813361e-31 2.212982057e-31 2.635855512e-30 7.20647497e-29)
5(4.655883233e-33 3.879336765e-31 2.321680395e-30 6.437646445e-29 2.262602961e-28)
5(5.541566686e-32 -8.140204031e-31 3.086288709e-30 2.15394236e-29 4.30659843e-28)
5(-8.511871464e-28 -6.202638687e-31 3.009400951e-30 8.420988518e-29 2.026248765e-28)
5(-3.201007981e-27 8.279314136e-31 2.668322858e-29 1.363122863e-28 2.789347585e-28)
5(-4.098198633e-27 -1.577475839e-26 -7.640231463e-29 -1.334052581e-27 -1.937956957e-26)
5(-3.022461512e-27 -2.485129799e-26 -1.258732643e-25 -2.827574295e-27 -5.455841996e-28)
5(2.684442505e-31 2.765015422e-30 2.85269572e-24 2.325084117e-28 1.052020179e-27)
)


60
(
5(6.077387731e-08 1.836526523e-08 4.120124733e-08 1.701747356e-08 1.422540165e-08)
5(2.662214203e-08 1.370498899e-08 1.841941342e-08 1.08269915e-08 7.846399294e-09)
5(1.031476437e-08 6.012636967e-09 9.083235359e-09 6.453033895e-09 4.771799877e-09)
5(-7.26552063e-10 -2.155290742e-09 3.184727639e-09 2.73833112e-09 2.969372768e-09)
5(-1.034514563e-08 -8.249420624e-09 -2.05513235e-09 -2.229412163e-10 1.701429125e-09)
5(-1.58074512e-08 -9.514111519e-09 -5.071479446e-09 -1.59044377e-09 1.293395993e-09)
5(-1.371508958e-08 -6.33837925e-09 -4.985808222e-09 -8.414116685e-10 1.501350683e-09)
5(-8.154392678e-09 -3.607384523e-09 -2.985658099e-09 -1.630717938e-09 2.375045268e-11)
5(-5.900609961e-09 -8.130455388e-09 -6.567169216e-09 -8.096053661e-09 -5.825416933e-09)
5(-1.067978042e-08 -1.878801582e-08 -1.695320495e-08 -1.622760996e-08 -1.256361979e-08)
5(-2.383144708e-08 -2.137394057e-08 -2.147672429e-08 -1.511303563e-08 -1.164589603e-08)
5(-2.155392142e-08 -1.421266509e-08 -1.438754025e-08 -7.676012178e-09 -5.14268826e-09)
5(-1.496746651e-08 -7.067343492e-09 -6.534614672e-09 -2.972335925e-09 -1.592294222e-09)
5(-6.493401084e-09 -3.371244803e-09 -2.81119152e-09 -1.236947362e-09 -6.40783489e-10)
5(-2.953026848e-09 -1.714300407e-09 -1.31481108e-09 -5.671711189e-10 -2.970247979e-10)
5(-2.132695444e-09 -9.473022268e-10 -6.787105053e-10 -2.827899369e-10 -1.700694505e-10)
5(9.362674791e-10 -5.358416809e-10 -3.665819153e-10 -1.487202327e-10 4.248492e-11)
5(-1.832381186e-10 -3.188091294e-10 -2.070183717e-10 -8.139035508e-11 -1.149683014e-10)
5(8.414933101e-11 -1.949888515e-10 -1.213466136e-10 -4.645018327e-11 -2.243645693e-11)
5(-1.15265251e-09 -1.284306429e-10 -7.37658502e-11 -2.744558766e-11 -3.747338783e-11)
5(1.107923814e-09 -8.670914858e-11 -4.641365294e-11 -1.657582826e-11 2.404224614e-12)
5(1.25460654e-10 -5.871921146e-11 -2.963708951e-11 -1.021023964e-11 -1.004379122e-10)
5(-7.869300832e-09 -4.039729878e-11 -1.941288325e-11 -6.366018376e-12 -3.729448394e-11)
5(-3.62197323e-09 -2.859500606e-11 -1.294956361e-11 -4.069961081e-12 -8.019285884e-11)
5(-1.532695988e-09 -2.02176086e-11 -8.679053537e-12 -2.715690424e-12 -3.365076811e-11)
5(-1.99843795e-09 -1.461545729e-11 -6.033995956e-12 -1.950926932e-12 -4.265194184e-11)
5(2.618756046e-10 -1.062453013e-11 -4.329752236e-12 -1.648471863e-12 -9.76141792e-11)
5(-1.521136505e-09 -8.053077668e-12 -3.52162379e-12 -1.812329437e-12 -2.562022828e-10)
5(-9.168993218e-10 -6.57537781e-12 -3.534157361e-12 -2.548100826e-12 -1.597268311e-10)
5(-5.685973944e-10 -6.342778565e-12 -4.49300552e-12 -4.041948664e-12 -9.582988778e-10)
5(-4.00772657e-10 -7.513373036e-12 -6.754900225e-12 -6.622154515e-12 -4.978246338e-10)
5(-1.332164837e-09 -1.045216141e-11 -1.056858468e-11 -1.03725396e-11 -3.409046176e-10)
5(-2.775423069e-09 -1.528605592e-11 -1.609163324e-11 -1.519785066e-11 -8.329849063e-09)
5(-2.557214152e-09 -2.224737619e-11 -2.296152361e-11 -2.020332704e-11 -6.91507171e-09)
5(-6.692863391e-09 -3.035640438e-11 -2.95212357e-11 -2.287232091e-11 -1.281568233e-08)
5(-2.9343118e-09 -3.668781356e-11 -3.259731673e-11 -1.999516623e-11 -3.091369652e-08)
5(-3.767271634e-08 -3.688622107e-11 -2.650060203e-11 -8.473341942e-12 -6.170922538e-08)
5(-2.226373995e-08 -2.458062537e-11 -5.954792742e-12 1.303794888e-11 -9.512371332e-08)
5(-2.783285773e-08 5.681507048e-12 2.97835915e-11 4.193272641e-11 -1.040008116e-07)
5(-4.083940247e-08 4.937924218e-11 7.0499295e-11 6.519824072e-11 -3.068911164e-08)
5(-7.260389124e-08 9.831890556e-11 1.02425691e-10 7.141661426e-11 -1.344901781e-07)
5(-2.19782414e-07 1.320300547e-10 1.046326481e-10 5.019980004e-11 -6.756940485e-08)
5(-1.13561585e-07 1.266831319e-10 7.175072734e-11 1.129923029e-11 -2.36449505e-07)
5(-3.311168192e-08 7.757258331e-11 1.537369794e-11 -2.083116295e-11 -9.247940143e-08)
5(-1.019048081e-07 4.142917602e-12 -3.576218037e-11 -3.212914248e-11 -6.379695619e-08)
5(-2.950276747e-07 -5.351131936e-11 -5.613567392e-11 -2.428768384e-11 -2.18444451e-09)
5(-7.002225703e-07 -7.536411802e-11 -4.681435304e-11 -1.207367063e-11 -7.336655335e-10)
5(-4.715597691e-07 -6.006201198e-11 -2.480330621e-11 -4.05270561e-12 -1.073116073e-09)
5(-5.992944161e-07 -3.18925551e-11 -8.588344406e-12 -8.80540219e-13 -1.173229045e-10)
5(-1.235963379e-07 -1.128883199e-11 -1.930853127e-12 -1.151628169e-13 -2.3217012e-11)
5(-6.926784695e-08 -2.512340648e-12 -2.714747606e-13 -8.807145005e-15 -8.86689829e-12)
5(-7.498360056e-09 -3.335589521e-13 -2.14770848e-14 -4.701441683e-16 -6.005764449e-13)
5(-8.22201068e-09 -2.503760071e-14 -1.050296601e-15 -2.992185971e-17 -1.487923934e-14)
5(-3.842897438e-10 -9.430036997e-16 -3.608688593e-17 -2.423165204e-18 -1.923885492e-17)
5(-9.184265602e-12 -1.500917072e-17 -1.006666451e-18 -2.847721e-19 -1.241341783e-17)
5(-4.38217377e-14 8.59516392e-17 -5.639450972e-20 -5.746910911e-17 -6.862393124e-19)
5(-1.560336409e-16 9.584501278e-15 1.021992496e-17 -1.707017442e-14 -1.970089074e-20)
5(-2.692619257e-20 -3.634314964e-13 -1.771207671e-17 -4.373951913e-12 3.135087346e-22)
5(1.191770183e-22 1.40177286e-11 5.612009477e-14 6.61684546e-12 -2.369390586e-23)
5(2.293592984e-29 -1.507828907e-28 1.816005092e-13 2.999192948e-27 -2.265205257e-26)
)


60
(
5(1.972905379e-07 6.790540261e-08 1.114682548e-07 4.722664584e-08 3.05747747e-08)
5(1.263468115e-07 6.463183457e-08 6.750597873e-08 3.766191015e-08 2.218283837e-08)
5(6.263373117e-08 3.74597901e-08 4.194452296e-08 2.760577123e-08 1.700249257e-08)
5(1.91243649e-09 -3.419244136e-10 2.005187397e-08 1.699657662e-08 1.350965614e-08)
5(-5.436630314e-08 -3.130400087e-08 -7.256227266e-11 8.540841707e-09 1.153442318e-08)
5(-9.0943033e-08 -4.201323234e-08 -1.099021914e-08 5.998435885e-09 1.200259999e-08)
5(-8.333662079e-08 -3.019243343e-08 -7.491580417e-09 7.12816308e-09 1.225670575e-08)
5(-4.793306702e-08 -2.309276126e-08 -8.733795579e-09 -5.14150573e-09 2.077886783e-09)
5(-3.709487602e-08 -6.870863269e-08 -4.89529125e-08 -5.101525405e-08 -3.042009143e-08)
5(-1.217705006e-07 -1.7093762e-07 -1.35752763e-07 -1.073298129e-07 -6.588142092e-08)
5(-2.793865769e-07 -2.129075847e-07 -1.772023472e-07 -1.071208131e-07 -6.640745872e-08)
5(-2.650476993e-07 -1.542355256e-07 -1.254187197e-07 -5.797157258e-08 -3.103973981e-08)
5(-1.767716065e-07 -7.901125364e-08 -5.846646404e-08 -2.285123004e-08 -1.120488103e-08)
5(-1.13993942e-07 -3.724552223e-08 -2.465823556e-08 -9.078002766e-09 -5.339809395e-09)
5(-4.331563445e-08 -1.868346629e-08 -1.145484528e-08 -4.146969302e-09 -1.642673556e-09)
5(4.379850345e-12 -1.029545604e-08 -5.831101907e-09 -2.088151199e-09 -1.086115341e-09)
5(-2.414408621e-09 -5.944484286e-09 -3.203330288e-09 -1.112783849e-09 -5.720652269e-10)
5(-5.576234253e-09 -3.616125921e-09 -1.825022547e-09 -6.135270517e-10 -7.355316658e-10)
5(-1.782534801e-08 -2.268598186e-09 -1.092182232e-09 -3.565794144e-10 -4.764433094e-10)
5(-3.321119459e-09 -1.473698219e-09 -6.676174454e-10 -2.124437891e-10 -4.251446219e-10)
5(-8.085727138e-08 -9.802659817e-10 -4.216503942e-10 -1.304504996e-10 -3.061779783e-10)
5(-1.54834179e-08 -6.67846767e-10 -2.721707398e-10 -8.19567785e-11 -1.089339884e-10)
5(-8.726582436e-08 -4.641592813e-10 -1.795717048e-10 -5.230585344e-11 -2.552606207e-10)
5(-2.046763223e-10 -3.280065922e-10 -1.197675291e-10 -3.374431182e-11 -7.460948886e-11)
5(-5.4317206e-08 -2.346323492e-10 -8.091075822e-11 -2.229825072e-11 -2.021812529e-10)
5(-1.7662149e-08 -1.700563629e-10 -5.523823288e-11 -1.513174879e-11 -2.604473928e-10)
5(-1.026469536e-08 -1.238238193e-10 -3.816805786e-11 -1.079847127e-11 -2.122811539e-10)
5(-4.643352914e-08 -9.098381801e-11 -2.707002551e-11 -8.730656942e-12 -4.577917841e-10)
5(-1.067719094e-08 -6.762275755e-11 -2.058780774e-11 -8.683956877e-12 -4.786912944e-10)
5(-1.297759565e-08 -5.217938447e-11 -1.80166843e-11 -1.09342286e-11 -3.307644763e-09)
5(-2.254860508e-08 -4.288947381e-11 -1.930180651e-11 -1.595288634e-11 -7.04422535e-10)
5(-3.011713993e-08 -4.000307514e-11 -2.495588345e-11 -2.435329015e-11 -4.568493864e-09)
5(-1.402535134e-08 -4.339517387e-11 -3.540179343e-11 -3.638463952e-11 -1.07926351e-09)
5(-1.65678358e-08 -5.239028631e-11 -5.024966876e-11 -4.966870147e-11 -2.316023526e-08)
5(-9.599398486e-09 -6.619553466e-11 -6.709580511e-11 -6.141809659e-11 -8.023488384e-09)
5(-9.070296546e-08 -8.074965774e-11 -7.890599481e-11 -6.414471313e-11 -5.576631115e-08)
5(-1.587241632e-07 -8.722809076e-11 -7.676999142e-11 -4.778251369e-11 -1.151784684e-07)
5(-3.858641741e-08 -7.483909541e-11 -4.6687355e-11 -4.020043867e-12 -5.78532688e-08)
5(-1.90866367e-07 -3.246510565e-11 2.250320797e-11 6.65070424e-11 -3.294096213e-08)
5(-1.230416791e-07 4.882825771e-11 1.169738617e-10 1.46340494e-10 -1.883566293e-07)
5(-1.891412806e-07 1.616580344e-10 2.157913388e-10 2.043947728e-10 -1.933167951e-07)
5(-1.715172975e-07 2.615947838e-10 2.770254627e-10 2.073070052e-10 -8.391205362e-08)
5(-1.308747882e-07 3.074645713e-10 2.603361939e-10 1.409629867e-10 -2.396299602e-07)
5(-1.330024108e-07 2.586566704e-10 1.493000838e-10 2.727810527e-11 -5.811082714e-07)
5(-4.5180287e-07 1.233410068e-10 -1.531264193e-12 -6.674668127e-11 -3.907946856e-07)
5(-2.500828081e-08 -3.950717221e-11 -1.172834451e-10 -1.034983135e-10 -6.731888473e-08)
5(-6.519533981e-07 -1.578304791e-10 -1.554953039e-10 -8.63781792e-11 -2.176705516e-07)
5(-5.503782472e-07 -1.800999058e-10 -1.208586356e-10 -4.797223628e-11 -1.346078078e-08)
5(-6.657881147e-07 -1.307155868e-10 -6.380011786e-11 -1.845655869e-11 -1.266078178e-08)
5(-7.322220722e-07 -6.625394135e-11 -2.300599306e-11 -4.906552039e-12 -5.058261883e-09)
5(-7.904178943e-07 -2.27500681e-11 -5.589742096e-12 -8.599308791e-13 -1.811923583e-10)
5(-2.111792127e-07 -5.026186221e-12 -8.594866761e-13 -9.767588251e-14 -8.866908276e-11)
5(-3.460232298e-08 -6.688382458e-13 -7.749155788e-14 -7.024312563e-15 -3.823822202e-13)
5(-6.684904931e-10 -4.835364369e-14 -3.942716421e-15 -3.384484786e-16 -3.314909158e-14)
5(-2.80297e-10 -1.702190525e-15 -1.076668037e-16 -2.05152624e-18 -2.438784329e-15)
5(-1.812317522e-11 3.134278006e-15 -1.235831931e-17 2.390793121e-15 -3.711889669e-17)
5(-8.066457658e-14 9.161201456e-13 -3.711741456e-15 6.595396877e-13 4.719213456e-24)
5(-6.942714878e-17 3.236227444e-10 -1.188165007e-12 2.07953675e-10 3.22633051e-20)
5(-3.323264749e-20 -6.75718515e-08 1.078579056e-12 -2.387793723e-08 -2.688089801e-22)
5(-2.486183214e-26 2.864134956e-28 8.374188715e-13 1.964107241e-27 -6.510070216e-26)
)


60
(
5(5.071798979e-07 1.87828535e-07 2.479912855e-07 1.071338526e-07 5.843017316e-08)
5(4.112299794e-07 2.12826096e-07 1.878510986e-07 1.015593953e-07 5.210656229e-08)
5(2.497124922e-07 1.509554729e-07 1.383019335e-07 8.647785711e-08 4.654860466e-08)
5(4.388887723e-08 3.869032989e-08 8.526670207e-08 6.523282931e-08 4.247214078e-08)
5(-1.709452114e-07 -6.322249759e-08 3.147984424e-08 4.718232487e-08 4.089724037e-08)
5(-3.066317464e-07 -1.061301957e-07 3.491518578e-09 4.380688337e-08 4.466596138e-08)
5(-2.857867422e-07 -6.749611198e-08 1.573704009e-08 4.740643058e-08 4.525691481e-08)
5(-1.504469555e-07 -5.44686311e-08 4.449315386e-09 3.041515953e-09 1.260812125e-08)
5(-1.99846309e-07 -2.680743422e-07 -1.652517864e-07 -1.593466155e-07 -8.672242255e-08)
5(-6.722664553e-07 -7.116058973e-07 -5.241405427e-07 -3.862220926e-07 -2.115323766e-07)
5(-1.33607776e-06 -1.022690574e-06 -7.742263434e-07 -4.31364404e-07 -2.33890179e-07)
5(-1.635896571e-06 -8.158684431e-07 -5.942007379e-07 -2.595156374e-07 -1.286596364e-07)
5(-1.161650122e-06 -4.337630264e-07 -2.824811944e-07 -1.051599432e-07 -4.250794981e-08)
5(-7.494785892e-07 -2.017098243e-07 -1.160032172e-07 -4.02845038e-08 -1.615435128e-08)
5(-2.681474789e-07 -9.929197229e-08 -5.211422977e-08 -1.762115627e-08 -5.797410889e-09)
5(-1.848492274e-07 -5.378171146e-08 -2.631848382e-08 -8.830113761e-09 -4.756600931e-09)
5(-1.152915459e-07 -3.113040246e-08 -1.4310066e-08 -4.709331229e-09 -7.984128486e-10)
5(-3.736270355e-08 -1.884026142e-08 -8.117229436e-09 -2.613173355e-09 -3.54305592e-09)
5(1.543074159e-08 -1.186358114e-08 -4.851759189e-09 -1.523114267e-09 -1.508513433e-09)
5(-1.974153349e-07 -7.686427674e-09 -2.972200215e-09 -9.088130102e-10 -7.970433375e-10)
5(-3.088193861e-07 -5.175830158e-09 -1.883797504e-09 -5.630218967e-10 -1.612549967e-09)
5(1.585406125e-07 -3.572871854e-09 -1.216541175e-09 -3.556905168e-10 2.916456866e-10)
5(1.871507337e-07 -2.504692935e-09 -8.069249147e-10 -2.291941789e-10 -8.860588315e-10)
5(-1.431224541e-07 -1.810060126e-09 -5.45933245e-10 -1.500185925e-10 -1.032704842e-09)
5(8.32244164e-08 -1.33932173e-09 -3.745185982e-10 -9.99223934e-11 -7.043506464e-10)
5(-7.414010942e-08 -1.005223332e-09 -2.588582569e-10 -6.773549592e-11 -5.127746499e-10)
5(7.123791085e-09 -7.643694068e-10 -1.812131291e-10 -4.696702661e-11 -1.388054374e-09)
5(-4.889417306e-07 -5.876270625e-10 -1.28747697e-10 -3.409497495e-11 -6.772764543e-10)
5(-2.143354149e-07 -4.592564372e-10 -9.379839085e-11 -2.75596634e-11 -2.802690397e-09)
5(-5.442125341e-08 -3.658679534e-10 -7.175101355e-11 -2.647674053e-11 -5.661902173e-10)
5(-2.029116781e-07 -2.94842826e-10 -6.093851914e-11 -3.131140062e-11 -5.960133574e-09)
5(-2.129308312e-07 -2.450241245e-10 -6.049193445e-11 -4.271071424e-11 -7.508602192e-09)
5(-3.443715019e-08 -2.125245531e-10 -6.974576787e-11 -6.156443684e-11 -2.426834952e-08)
5(-2.400717018e-07 -1.95037236e-10 -8.855066206e-11 -8.546432156e-11 -1.103395371e-08)
5(-4.724444303e-08 -1.924179666e-10 -1.147430295e-10 -1.113378848e-10 -1.388329337e-07)
5(-7.656060372e-08 -1.96680692e-10 -1.394562974e-10 -1.28683814e-10 -4.203984348e-08)
5(-1.447469546e-07 -1.995223276e-10 -1.513232174e-10 -1.194584474e-10 -1.287887303e-07)
5(-1.658400176e-07 -1.877800666e-10 -1.240992904e-10 -6.791519047e-11 -3.682841769e-07)
5(-2.846381512e-07 -1.34285997e-10 -4.339333323e-11 3.782291073e-11 -1.210053356e-07)
5(-2.55496854e-07 -2.354620288e-11 9.690798168e-11 1.884617477e-10 -5.470065457e-07)
5(-1.737040111e-07 1.359082206e-10 2.800808421e-10 3.376193919e-10 -1.708253091e-07)
5(-1.90577367e-07 3.217394028e-10 4.396820686e-10 4.205777051e-10 7.947253454e-09)
5(-1.897920507e-07 4.673685825e-10 4.95944628e-10 3.767171434e-10 -8.772622422e-07)
5(-2.68272993e-07 4.970782623e-10 4.031841555e-10 2.111960571e-10 -1.67986452e-06)
5(-1.834171651e-07 3.6385605e-10 1.874536673e-10 -8.571368836e-12 -1.369724115e-06)
5(-2.98865244e-07 1.234105997e-10 -7.417884387e-11 -1.659777553e-10 -1.348410568e-07)
5(-9.807979803e-07 -1.044843654e-10 -2.453593786e-10 -2.141955648e-10 -3.812081173e-07)
5(-1.600262194e-06 -2.687295691e-10 -2.658207694e-10 -1.707742146e-10 -8.963379719e-08)
5(-6.602451695e-07 -2.824497312e-10 -1.919396285e-10 -9.307554892e-11 -9.013302358e-08)
5(-1.280865635e-06 -1.914633238e-10 -9.631839247e-11 -3.538857191e-11 -5.443784919e-08)
5(-1.717406185e-06 -9.039772289e-11 -3.234425104e-11 -9.174210925e-12 -1.53397474e-08)
5(-7.51464667e-07 -2.921947592e-11 -7.312031585e-12 -1.586462613e-12 -1.090414121e-09)
5(-6.291328787e-08 -5.945737624e-12 -1.028826495e-12 -1.675373789e-13 -1.955084276e-10)
5(-4.567265634e-08 -7.273348239e-13 -8.133632097e-14 -1.103066001e-14 -6.158392148e-12)
5(-1.454229582e-09 -4.805126479e-14 -3.270845232e-15 -5.765310654e-16 -2.437964294e-13)
5(-1.874934309e-10 -2.866115485e-14 3.065253931e-16 -2.551332739e-14 -1.472725449e-14)
5(-3.122611086e-13 -5.980024681e-12 7.923007569e-14 -5.471340001e-12 -9.228213484e-17)
5(-2.082027335e-14 -1.84096238e-09 2.373168937e-11 -1.555795352e-09 -7.446993565e-19)
5(-1.429310313e-17 4.281458398e-07 -2.25117571e-09 2.770536414e-07 -7.657074987e-21)
5(-2.30251043e-21 462.8005761 -1.229076592e-07 323.1650653 -4.962304878e-23)
)


60
(
5(1.123855681e-06 4.2706175e-07 4.779425892e-07 2.096993405e-07 1.024396e-07)
5(1.088474566e-06 5.497827466e-07 4.306328985e-07 2.293583712e-07 1.086930261e-07)
5(7.697574586e-07 4.52178421e-07 3.609178763e-07 2.186429331e-07 1.083762176e-07)
5(2.312716481e-07 1.979238549e-07 2.609189706e-07 1.872987502e-07 1.070933194e-07)
5(-3.776695588e-07 -6.032128692e-08 1.532530766e-07 1.569841893e-07 1.102539094e-07)
5(-7.999322937e-07 -1.624497979e-07 1.008376402e-07 1.548017872e-07 1.223002774e-07)
5(-8.116893803e-07 -8.429767994e-08 1.350941209e-07 1.629968054e-07 1.249159677e-07)
5(-4.467017412e-07 -4.077965046e-08 9.901756899e-08 6.10992062e-08 5.170385035e-08)
5(-5.307992284e-07 -6.223729434e-07 -3.756016193e-07 -3.473663338e-07 -1.833283805e-07)
5(-2.346895854e-06 -2.190307336e-06 -1.423738126e-06 -9.906863012e-07 -5.319977715e-07)
5(-5.406555433e-06 -3.406621046e-06 -2.266729752e-06 -1.266059207e-06 -6.245759287e-07)
5(-6.320756149e-06 -3.088997277e-06 -1.900322879e-06 -8.619073039e-07 -3.976579263e-07)
5(-5.065063684e-06 -1.738257218e-06 -9.861236196e-07 -3.698789305e-07 -1.440854254e-07)
5(-3.257750506e-06 -8.020553855e-07 -4.034105444e-07 -1.375526872e-07 -4.987010386e-08)
5(-1.773961141e-06 -3.867127023e-07 -1.740570266e-07 -5.774311457e-08 -2.644149724e-08)
5(-1.025721698e-06 -2.066255298e-07 -8.678298381e-08 -2.844498415e-08 -1.969938119e-08)
5(-7.373904934e-07 -1.189699991e-07 -4.717489643e-08 -1.505361635e-08 -3.722631643e-09)
5(-2.644443215e-07 -7.254823866e-08 -2.677153861e-08 -8.394055732e-09 -7.233518834e-09)
5(-3.857122097e-07 -4.603954519e-08 -1.591378149e-08 -4.889293482e-09 -2.834694175e-09)
5(-4.422692392e-07 -3.026503053e-08 -9.810044595e-09 -2.929255346e-09 -5.818861749e-09)
5(-2.768879737e-07 -2.075028681e-08 -6.242983887e-09 -1.824978471e-09 -9.488922955e-10)
5(-6.593887916e-07 -1.4656089e-08 -4.09901596e-09 -1.160017156e-09 -3.100952693e-09)
5(-9.335828774e-07 -1.06235726e-08 -2.75822474e-09 -7.576536327e-10 -6.24942312e-09)
5(-2.026798543e-06 -7.965001435e-09 -1.906575121e-09 -5.046998347e-10 -1.280037588e-09)
5(2.789660855e-07 -6.127679453e-09 -1.341705654e-09 -3.411547441e-10 -1.530446787e-09)
5(-2.184823039e-06 -4.853466843e-09 -9.631035869e-10 -2.346154895e-10 -2.673251832e-09)
5(-2.26813263e-07 -3.892297816e-09 -7.042207563e-10 -1.634463339e-10 -9.704127598e-10)
5(-5.672005222e-08 -3.181634489e-09 -5.26398124e-10 -1.168014862e-10 -1.292897045e-09)
5(3.953577265e-07 -2.666188111e-09 -3.99039523e-10 -8.751509063e-11 -1.713726139e-09)
5(-1.721633207e-06 -2.250070522e-09 -3.095344824e-10 -7.141632008e-11 -3.462668522e-09)
5(-1.755514594e-06 -1.896103288e-09 -2.515687902e-10 -6.700684318e-11 -4.951271193e-09)
5(-4.357797619e-07 -1.626777059e-09 -2.162662624e-10 -7.5180999e-11 -3.703347668e-08)
5(-4.162922231e-07 -1.396053705e-09 -2.000598977e-10 -9.553592145e-11 -1.67950171e-08)
5(-7.847026669e-07 -1.204496743e-09 -2.023717345e-10 -1.276881679e-10 -4.15960164e-08)
5(-1.401244952e-06 -1.041388272e-09 -2.196564578e-10 -1.665430477e-10 -5.98160776e-08)
5(-2.033047098e-06 -8.995449437e-10 -2.458093124e-10 -2.013856565e-10 -2.084728508e-08)
5(-1.201691211e-06 -7.912936746e-10 -2.662232921e-10 -2.111118414e-10 -3.769860612e-08)
5(-9.172810179e-07 -6.783555316e-10 -2.523380269e-10 -1.71378811e-10 -3.120370624e-07)
5(-5.380843375e-07 -5.321385871e-10 -1.764281601e-10 -5.197320073e-11 -2.00597177e-07)
5(-3.520376943e-07 -3.465933693e-10 -6.902471774e-12 1.530920839e-10 -8.529930262e-08)
5(-4.992280445e-07 -1.00462923e-10 2.385045948e-10 3.978042462e-10 -4.433984045e-07)
5(-2.061431267e-07 2.002319963e-10 5.07954499e-10 6.111009471e-10 -8.862551228e-07)
5(-2.368831619e-07 4.837042232e-10 7.089304373e-10 6.837067457e-10 -1.695083261e-07)
5(-3.27138503e-07 6.557875436e-10 7.148806969e-10 5.350237487e-10 -3.048334559e-07)
5(-5.398590089e-07 6.483691481e-10 5.229485615e-10 2.347157362e-10 -1.60915419e-06)
5(-1.387578204e-07 4.173075136e-10 1.282807129e-10 -1.023068155e-10 -3.50332632e-06)
5(-8.010614377e-07 7.044981891e-11 -2.361867625e-10 -3.048203515e-10 -2.917073888e-06)
5(-2.138342121e-07 -2.580890567e-10 -4.23975826e-10 -3.549020488e-10 -1.812330916e-06)
5(-1.016598969e-06 -4.21258835e-10 -4.025756297e-10 -2.590954446e-10 -7.983428734e-07)
5(-2.758530243e-06 -3.875766712e-10 -2.613506664e-10 -1.324396591e-10 -6.355489763e-08)
5(-2.1742854e-06 -2.522863899e-10 -1.202824908e-10 -4.803999217e-11 -2.53399983e-08)
5(-2.198602092e-06 -1.197445292e-10 -3.80506321e-11 -1.184516346e-11 -6.908739154e-08)
5(-2.629083823e-06 -3.80629034e-11 -7.836527587e-12 -1.891288583e-12 -7.730160317e-10)
5(-9.999778285e-07 -8.106239402e-12 -9.886604052e-13 -1.791075776e-13 -5.531971719e-10)
5(-4.903794455e-08 -1.08876684e-12 -6.961352267e-14 -9.827967191e-15 -2.3387052e-11)
5(-2.352280249e-08 -1.235109163e-13 -2.421922968e-15 -3.346455291e-14 -2.857376737e-14)
5(-1.612204148e-09 -7.1887596e-12 3.928866181e-14 -5.429415324e-12 -3.556736005e-15)
5(-2.629702579e-11 -1.877493706e-09 8.333542983e-12 -1.127417066e-09 -1.702878055e-18)
5(-2.809446548e-13 3.147052322e-07 -5.016584748e-12 1.044707961e-07 -1.389431346e-19)
5(-8.537000625e-15 -3.816171532e-18 1.670120938e-11 -4.333330723e-27 1.059489024e-25)
)


60
(
5(2.239481691e-06 8.431623231e-07 8.297160138e-07 3.685113678e-07 1.681327139e-07)
5(2.515793337e-06 1.202978637e-06 8.603111109e-07 4.545882554e-07 2.065759811e-07)
5(1.968003637e-06 1.10149001e-06 7.991035076e-07 4.715649132e-07 2.234999283e-07)
5(7.817007181e-07 6.308775869e-07 6.489534249e-07 4.386165317e-07 2.358295938e-07)
5(-7.013211388e-07 1.028475325e-07 4.634351946e-07 3.983782799e-07 2.517069717e-07)
5(-1.94125234e-06 -1.761246209e-07 3.801852902e-07 4.051765138e-07 2.808102025e-07)
5(-1.922241159e-06 -3.679778015e-08 4.467762783e-07 4.286729569e-07 2.927252796e-07)
5(-1.152951733e-06 6.712433416e-08 3.544969604e-07 2.336699737e-07 1.508520261e-07)
5(-1.368281131e-06 -1.191796045e-06 -6.918701037e-07 -6.002895505e-07 -3.294452629e-07)
5(-6.780398696e-06 -4.821502403e-06 -3.11545696e-06 -2.082007974e-06 -1.074692408e-06)
5(-1.555318204e-05 -8.859928291e-06 -5.3803606e-06 -2.979442527e-06 -1.463183011e-06)
5(-2.402076638e-05 -8.983478821e-06 -5.040528532e-06 -2.333415295e-06 -1.100351207e-06)
5(-1.835637681e-05 -5.582103836e-06 -2.812581107e-06 -1.088119621e-06 -4.308492518e-07)
5(-1.357975388e-05 -2.706479037e-06 -1.177878363e-06 -4.007027484e-07 -1.506018054e-07)
5(-5.161050406e-06 -1.287692561e-06 -4.981474545e-07 -1.613788286e-07 -5.090232118e-08)
5(-2.455045514e-06 -6.830798274e-07 -2.42624013e-07 -7.751468806e-08 -4.702995632e-08)
5(-1.810426103e-06 -3.960486725e-07 -1.309106723e-07 -4.08875491e-08 -9.702176258e-09)
5(-5.14945085e-06 -2.438531561e-07 -7.527790031e-08 -2.285133736e-08 -1.920878353e-08)
5(-4.520818734e-06 -1.57894873e-07 -4.524668602e-08 -1.332803786e-08 -3.163705044e-09)
5(-5.409993831e-08 -1.064320329e-07 -2.823973334e-08 -8.065374941e-09 -2.699366266e-08)
5(-5.074111847e-07 -7.495852558e-08 -1.839554008e-08 -5.041657663e-09 -2.031901572e-08)
5(-9.48206629e-07 -5.444245277e-08 -1.231422604e-08 -3.253968369e-09 -2.902302986e-10)
5(-4.238328737e-06 -4.102252848e-08 -8.544836981e-09 -2.156441836e-09 -4.214404001e-10)
5(-2.153332575e-07 -3.1866994e-08 -6.12668866e-09 -1.458821694e-09 -2.396407624e-09)
5(-1.518131076e-07 -2.554301772e-08 -4.504093003e-09 -1.010428302e-09 -4.310617575e-09)
5(-1.957827494e-06 -2.096977261e-08 -3.408634002e-09 -7.139937389e-10 -4.223510198e-09)
5(-7.04682016e-06 -1.760462285e-08 -2.658869411e-09 -5.115489593e-10 -3.788972593e-09)
5(-5.556358152e-06 -1.510608353e-08 -2.11492804e-09 -3.753142545e-10 -8.407537407e-09)
5(4.611428111e-07 -1.314278521e-08 -1.709952691e-09 -2.838100446e-10 -4.140279867e-09)
5(-2.542504726e-06 -1.145505203e-08 -1.418166041e-09 -2.22274027e-10 -2.820596176e-09)
5(1.063257704e-07 -1.013040742e-08 -1.204544214e-09 -1.869374953e-10 -1.164049756e-08)
5(-3.366332196e-06 -9.060601143e-09 -1.034523265e-09 -1.728237819e-10 -1.993202055e-08)
5(-3.887529552e-06 -7.93512008e-09 -9.019195882e-10 -1.797939558e-10 -2.233229273e-08)
5(2.541074988e-08 -6.924963634e-09 -8.071340489e-10 -2.063801678e-10 -6.294513421e-08)
5(-6.362579035e-06 -5.985512289e-09 -7.457619132e-10 -2.485645492e-10 -1.11581085e-07)
5(-9.92371284e-07 -5.130024197e-09 -7.024346529e-10 -2.967992352e-10 -1.449952113e-07)
5(-5.063797557e-06 -4.322206398e-09 -6.631471138e-10 -3.315158591e-10 -1.341937576e-07)