/*--------------------------------*- C++ -*----------------------------------*\
| =========                 |                                                 |
| \\      /  F ield         | OpenFOAM: The Open Source CFD Toolbox           |
|  \\    /   O peration     | Version:  2.3.1                                 |
|   \\  /    A nd           | Web:      www.OpenFOAM.org                      |
|    \\/     M anipulation  |                                                 |
\*---------------------------------------------------------------------------*/
FoamFile
{
    version     2.0;
    format      ascii;
    class       dictionary;
    location    "constant";
    object      rCO2;
}
// * * * * * * * * * * * * * * * * * * * * * * * * * * * * * * * * * * * * * //

rCO2_table
60
(

60
(
5(0.5924104743 0.2903034821 1.30255505 0.9494358222 2.225635275)
5(0.2324322273 0.03629505302 0.4350157237 0.3622350686 0.5889975973)
5(-0.01312949806 0.08522998112 0.1531323077 0.1263048703 -9.879586723e-36)
5(-0.03808280305 0.1056610159 0.1677982521 0.03151169052 0.2514008448)
5(-0.04045213072 0.09213251035 0.1773403911 0.1225593133 0.1441837452)
5(0.4761523404 0.07914155673 0.05587930018 0.1366176456 0.1003770263)
5(0.09791768977 0.07228319498 0.08198726003 0.09037070786 0.2547924653)
5(0.04085519536 0.07790863472 0.1564195252 0.1261260038 0.06859384489)
5(0.7535795041 0.09367831055 0.1492707587 0.1487479429 0.1439492952)
5(0.9380355874 0.1461885924 0.224870291 0.1523155747 0.1859941135)
5(1.096864059 0.1800941239 0.2410487769 0.1852310686 0.218123233)
5(0.5778720229 0.148619736 0.2159263662 0.2068091892 0.2282207283)
5(0.10462801 0.1759547342 0.2298887157 0.2736856464 0.2882306442)
5(0.1529707744 0.2108254369 0.2775592423 0.2696660299 0.3101117333)
5(0.1464275665 0.2274134644 0.3002575697 0.3503229056 0.3615922779)
5(0.2509285949 0.3627128221 0.4117756659 0.4526520979 0.45431265)
5(0.2882493067 0.3934870134 0.5010261954 0.5223895112 0.5756075798)
5(0.2831828665 0.4289712033 0.5318349732 0.6434174622 0.7136781595)
5(0.2922582082 0.4729661199 0.6329025665 0.7587206552 0.9078565215)
5(0.3732185978 0.5834653788 0.800896924 1.011991175 1.066165879)
5(0.4338828306 0.6543614118 0.8960128298 1.175516737 1.227698951)
5(0.5216661143 0.7697258552 1.113177119 1.148925745 1.293679223)
5(0.6665649331 0.9454821884 1.302018988 1.555151652 1.738440076)
5(0.769987382 1.209582925 1.554166637 1.839717974 2.012878089)
5(0.9583464449 1.472429726 1.902476356 2.296983848 2.475809532)
5(1.149057745 1.770234102 2.419376836 2.900102529 2.862115836)
5(1.391543594 2.001958439 2.663294208 3.464395141 3.323749569)
5(1.622258057 2.297550279 3.249532416 4.037572796 3.755043263)
5(2.064997923 2.784429878 3.631864549 4.463231275 4.277548693)
5(2.474923073 3.401833999 4.110954428 4.687361361 4.589050996)
5(3.060081436 4.086616212 4.941159648 5.532073569 5.106741762)
5(3.634491649 4.62845167 5.302481352 5.516357171 4.457736773)
5(4.233155268 5.419077956 6.115204835 6.025798858 5.761717625)
5(5.049559186 6.386419445 7.184453579 6.290756083 4.769097736)
5(5.986761091 7.114115312 7.690092694 6.641337149 4.714113546)
5(6.956643882 8.538611819 9.566772919 7.096234261 4.646880832)
5(8.030315428 8.533885263 8.169101117 6.553286181 5.083308062)
5(9.119564268 9.971829504 8.63183962 7.03270078 2.760507765)
5(10.52782439 10.60833735 9.579707006 6.655828718 4.565644676)
5(12.58904995 11.59284597 10.90314066 6.953259466 -0.1377162177)
5(13.76740682 11.39859586 9.572961732 5.799498319 -0.3416367431)
5(14.3501754 11.67803204 9.054469246 -0.9697923328 0.00771969121)
5(15.26476339 10.86945712 8.001614996 0.0056861417 0.009557117319)
5(16.31497831 11.71931474 11.66582581 0.00838499568 -0.4373884518)
5(17.06416869 10.92749867 9.173956862 0.007419254523 -0.03558212663)
5(15.88795857 10.94651952 6.646182921 0.01069965041 0.01680971991)
5(14.83138565 8.56336539 -2.916658286 -0.0229217201 0.01856575777)
5(12.86562451 4.634623417 -0.4946893578 0.01405304095 0.02224490523)
5(11.87100902 4.784811732 -0.0203548121 0.01541409714 0.02566969794)
5(10.13952129 -0.1672442268 0.009901244956 0.0151003814 0.02567701978)
5(6.393187617 0.005166350342 0.01138762972 0.01866723014 0.0248730342)
5(-2.476796908 0.006130390063 0.01081126274 0.0201975785 0.02753870611)
5(-0.4295309002 0.003817267996 0.01135487325 0.021785212 0.02577269319)
5(0.004403306013 0.005653546078 0.01085413489 0.01527207615 0.01995242557)
5(0.002301950699 0.004139198888 0.01203689232 0.02126214895 0.02339002615)
5(-0.8772642991 0.00614686942 0.01274984221 0.01300139267 0.02333741984)
5(-2.744033838 0.006979177304 0.009685974542 0.01527301073 0.03273281718)
5(-2.964568029 -1.765935357 0.006587744592 0.01203923572 0.04783266411)
5(-1.89160289 -2.405090291 -1.94202903 0.1196227669 2.987117155)
5(0.004843285273 0.008629657203 0.01558729028 0.03270622033 0.03713526453)
)


60
(
5(1.200736103 1.110316887 2.794311383 2.878490753 5.538012043)
5(0.8983395476 1.096637244 1.812355183 2.159403809 3.012571413)
5(0.7847908293 1.138556651 1.483498041 1.949442048 2.211148457)
5(0.7978795069 1.235824511 1.526791028 2.060836878 2.234487505)
5(0.9112098176 1.39696361 1.811156043 2.394472539 2.774374795)
5(1.089818851 1.613548266 2.196549587 2.853896415 3.575909576)
5(1.279530923 1.872142679 2.570617659 3.355973006 4.309430458)
5(1.47271957 2.176219389 2.961878895 3.907455641 4.969814596)
5(1.696988979 2.5394181 3.406310778 4.545880949 5.696219)
5(1.987552326 2.98853736 3.980248711 5.341534975 6.647375157)
5(2.349147003 3.535762488 4.711075566 6.310033547 7.842762846)
5(2.800453616 4.194241518 5.61272415 7.459983484 9.266129608)
5(3.339963481 4.986417199 6.674262216 8.803464523 10.86445196)
5(3.983846014 5.92758755 7.913325893 10.37901637 12.66890042)
5(4.754828227 7.050300903 9.367711367 12.19790424 14.73920215)
5(5.688854499 8.396383954 11.10457263 14.33325477 17.15213602)
5(6.818498774 10.00189906 13.17542222 16.86255009 19.98524316)
5(8.180367739 11.93160797 15.63344536 19.83126401 23.2867083)
5(9.830331582 14.2248772 18.55033488 23.34114272 27.15502623)
5(11.81212947 16.97328659 21.9950168 27.47012831 31.70354444)
5(14.20833385 20.25263515 26.08574403 32.28463265 36.95099127)
5(17.0815873 24.14848617 30.88831204 37.90730681 43.01711492)
5(20.50655414 28.74940512 36.52653479 44.36911586 50.01963237)
5(24.6393629 34.20020196 43.14361568 51.75944283 57.91167229)
5(29.55666592 40.55859606 50.7513272 60.25470684 66.8225672)
5(35.39149781 47.99593256 59.63064559 69.90903611 76.71602579)
5(42.29263706 56.55416966 69.68096762 80.71375461 87.50729325)
5(50.36338352 66.49448421 81.01736249 92.57061877 99.01474526)
5(59.83092107 77.83503282 93.77115608 105.4154676 111.3879112)
5(70.81640485 90.60736688 107.8334232 119.2427853 124.0492308)
5(83.51639168 104.9740108 123.2919294 133.8565265 137.0695275)
5(98.04789099 120.9769419 139.846112 149.0844618 149.8640047)
5(114.5399887 138.5434712 157.6518523 164.5554007 162.1325413)
5(133.1148255 157.6494129 176.2035988 179.9813205 173.2513398)
5(153.8058764 178.2534813 195.4314959 194.8176273 183.0178366)
5(176.8203226 199.9662513 214.7530329 208.7534754 190.8847363)
5(201.6201239 222.4121031 233.717127 220.866613 196.9673398)
5(228.4396122 245.4065063 251.6791225 231.2227696 200.8050311)
5(256.5817899 267.4541783 267.7557306 239.0775633 200.8858145)
5(285.1290976 289.1716463 281.2742998 243.46257 195.7971886)
5(313.3500252 307.6703396 290.4692651 244.1899295 184.7556222)
5(339.3024982 324.2913249 296.9322776 240.026196 169.8997978)
5(363.1251335 335.5405528 298.6936597 229.6425645 152.9954202)
5(381.6460788 339.8265022 296.3776328 212.7110124 136.2622916)
5(393.0731669 339.5039398 287.4941679 191.2681385 119.9097309)
5(395.1895137 331.993364 271.6238416 168.5313724 104.4366971)
5(387.6279783 318.72905 247.0049512 146.7410668 90.04691886)
5(370.234569 297.5598419 217.3442545 126.6812218 77.16589588)
5(345.2688336 270.0098285 186.4614436 108.5474365 66.9537951)
5(310.4564085 234.5807779 157.5931273 93.0513155 58.74830843)
5(271.7935662 196.6869617 132.3650012 80.31025752 52.25981025)
5(228.2785903 161.5212652 111.0258772 70.70849143 48.5261832)
5(187.6351693 132.8392382 94.68653755 63.39099319 44.4194976)
5(149.9010978 109.1134113 82.06909351 58.39087516 44.57066583)
5(117.4304395 92.31428404 72.77265311 55.47448567 44.58148391)
5(93.19751411 78.75359211 65.89798988 54.00094347 45.93087146)
5(74.24307727 68.42730022 61.25180692 53.80130936 47.81228428)
5(60.63730612 60.30362942 57.26179363 54.05874166 51.9294966)
5(46.80625791 52.7073325 54.63977556 56.4739963 54.66475836)
5(39.33728366 46.70152048 44.77078119 59.88950277 59.46181985)
)


60
(
5(1.917655122 2.10086996 4.772938861 5.732964203 10.53258225)
5(1.684246176 2.25381478 3.67022842 4.886962752 7.122812036)
5(1.635859795 2.456265298 3.399004896 4.79445195 6.142745191)
5(1.745582567 2.737924214 3.67428776 5.247172591 6.554213124)
5(2.01294861 3.143001897 4.340946273 6.124141302 7.909693018)
5(2.400278987 3.67715895 5.224474177 7.271405746 9.769002454)
5(2.839485549 4.314543795 6.170854864 8.548570013 11.56644437)
5(3.326016761 5.075822666 7.191413447 9.968187424 13.30859634)
5(3.902398013 5.987974868 8.372962689 11.60734382 15.21084672)
5(4.619619499 7.085169947 9.818322596 13.55214769 17.53362913)
5(5.499290192 8.402662326 11.59111563 15.84028289 20.25616236)
5(6.573285604 9.961303085 13.68724364 18.47498848 23.35136578)
5(7.85276365 11.80334535 16.12351436 21.47575032 26.77516448)
5(9.363470781 13.96942991 18.92329315 24.89246366 30.56636331)
5(11.16803194 16.51540987 22.1774794 28.79539937 34.85612771)
5(13.31650194 19.52015953 25.95877187 33.30609261 39.76381063)
5(15.88416434 23.04981147 30.40307618 38.54772671 45.46207054)
5(18.93524958 27.23082528 35.58208989 44.64573731 52.04089121)
5(22.58424025 32.16491422 41.68901395 51.76119301 59.74460932)
5(26.9328139 37.98835999 48.82267131 60.08914296 68.7214174)
5(32.09017386 44.8712338 57.21745619 69.78856562 79.20247012)
5(38.30225123 52.99942799 67.0259955 81.02848253 91.33483622)
5(45.61093945 62.56251826 78.53359301 94.08475985 105.2716982)
5(54.33934512 73.76825096 91.91920532 109.0576964 121.1961256)
5(64.61318842 86.83980929 107.4310849 126.2091599 139.2163029)
5(76.78762526 102.053117 125.2648748 145.7798194 159.3073787)
5(91.05658822 119.5859043 145.5827438 167.6319118 181.6474556)
5(107.6603096 139.8162238 168.6152976 192.017353 205.8012256)
5(127.0656163 162.7738182 194.3808333 218.5668359 231.9725263)
5(149.4025261 188.7405317 223.1544963 247.5793562 259.5922772)
5(175.0527082 218.049091 254.7562005 278.5408 288.3352003)
5(204.2494992 250.5565365 289.0122621 311.3240981 317.7340771)
5(237.3420054 286.2891945 326.0604541 345.5948598 346.8823207)
5(274.4761239 325.6135714 365.4520434 380.4725638 375.2928374)
5(315.6681499 367.8882882 406.4086404 415.4012705 401.8209777)
5(360.5633169 413.0273676 448.8978595 449.6278932 426.2354021)
5(410.2849184 460.1878421 491.5865288 482.094082 447.4538572)
5(463.0162464 508.9670779 533.4766307 511.7671024 464.8246304)
5(518.8399689 558.337937 573.0264416 537.2862968 475.3498487)
5(575.8589384 606.1204561 608.835623 557.1893338 476.6456506)
5(632.1335573 651.0680875 639.7186039 570.0221884 467.2365332)
5(687.4241073 691.5446966 663.006166 573.5295117 448.751727)
5(736.6918059 723.8695687 678.2658059 564.9302659 423.4012789)
5(778.0039741 746.0460483 683.8684146 543.3850251 393.4572105)
5(807.3057161 754.7251303 676.0246161 511.2299561 361.2337297)
5(821.4889339 751.049509 653.2794047 471.3658225 326.4512949)
5(817.3389659 732.7230548 613.3066357 428.0753035 290.8310538)
5(793.6170631 697.4932578 559.9460225 382.8024422 256.4318294)
5(750.4868117 643.6869768 498.8124052 337.2278354 224.6355821)
5(690.3319671 576.5344618 436.0165303 293.7570339 196.7229156)
5(615.6559766 499.9212256 375.1088509 254.6078074 173.743667)
5(531.120392 423.597296 319.6910899 220.9506621 154.7002249)
5(443.6339933 354.0093664 271.506374 193.2928505 140.6436857)
5(360.2837575 295.1317169 231.9833906 171.9501185 128.3887685)
5(290.6273297 245.9211933 200.7021018 156.3616353 123.6287447)
5(232.685208 207.9999501 176.8335861 145.1346056 120.2508845)
5(189.9555055 178.5722492 158.7269689 137.9107969 120.1306793)
5(157.7741316 155.723115 145.1698341 133.0162388 122.0096719)
5(133.9911585 137.3339366 134.9177322 130.8363964 123.6483958)
5(117.7694277 124.3438601 122.0454165 132.4532418 125.5865506)
)


60
(
5(2.767383926 3.333457065 7.318630173 9.697602974 17.43234713)
5(2.63902522 3.731853289 6.159877119 8.784765362 13.22039226)
5(2.698784104 4.17475781 6.04667025 8.942218946 12.24817391)
5(2.950268415 4.719198211 6.691018213 9.913266784 13.27806788)
5(3.429631358 5.461988852 7.899354818 11.53415323 15.70568272)
5(4.099886374 6.427719378 9.455409378 13.60009552 18.89286999)
5(4.876402534 7.584864761 11.17036537 15.90728307 22.02515669)
5(5.757557236 8.956754296 13.04962193 18.45826348 25.10391792)
5(6.800545951 10.58259066 15.20113299 21.35444289 28.42894725)
5(8.082568539 12.52161766 17.77014606 24.70371196 32.30564171)
5(9.639694398 14.80467154 20.81644045 28.53206268 36.71313962)
5(11.49928726 17.48150575 24.35947091 32.85254785 41.61373372)
5(13.69696523 20.59092886 28.40977273 37.7032037 46.96124911)
5(16.27674108 24.20062436 33.00683086 43.14495904 52.79789211)
5(19.32116601 28.38689606 38.26359236 49.27828657 59.36871584)
5(22.90388392 33.25943667 44.31840248 56.28188435 66.82537533)
5(27.12757326 38.94624739 51.31948003 64.35922663 75.41971723)
5(32.11423974 45.58712962 59.43388297 73.66798189 85.39370279)
5(38.00906892 53.36560961 68.89552718 84.54021677 96.97372886)
5(44.94408604 62.47501496 79.90624143 97.1581431 110.5329304)
5(53.17764547 73.17401832 92.82032805 111.9025979 126.3324878)
5(62.9399895 85.75300609 107.8569278 128.9637606 144.7056782)
5(74.43629383 100.4518892 125.4333233 148.7933477 165.8678605)
5(87.95600355 117.6480932 145.8132805 171.6372201 190.1879794)
5(103.9853264 137.6929109 169.5017899 197.8319208 217.9808129)
5(122.7108394 160.999778 196.7296389 227.6801633 249.0742371)
5(144.6434551 187.818644 227.8688515 261.4177338 283.7202583)
5(170.1165891 218.6332608 263.1273652 299.0538177 322.0145785)
5(199.7393358 253.800016 302.8293159 340.5696142 363.2520222)
5(233.790827 293.5884379 347.1452236 386.1524688 408.0197263)
5(272.7226781 338.3086731 396.123691 435.3970765 455.0255148)
5(317.0532447 388.1982315 449.5314323 488.1265798 504.301117)
5(367.0950863 443.3292826 507.8464393 543.9622663 554.5092643)
5(422.9604156 503.8783894 570.1150717 601.898411 604.8532457)
5(485.1814158 569.4905806 636.0620398 661.3668379 653.935566)
5(553.4003214 640.0191261 704.8194435 721.3780871 701.1458043)
5(627.5675637 714.2991615 775.2691599 780.2370589 745.2460784)
5(707.3698644 791.9301497 846.3764966 836.4760592 784.0238843)
5(791.2208815 871.1444701 915.9485412 888.1662226 814.9461342)
5(877.7558791 949.9566983 981.9787902 932.9583218 832.505615)
5(965.1176176 1026.764182 1041.228953 968.4606669 835.8365316)
5(1049.377744 1097.494659 1091.456024 990.6847885 824.2014365)
5(1127.945211 1158.343325 1130.145754 995.7491606 799.4761951)
5(1195.771347 1205.118325 1154.248225 980.4724076 764.5961041)
5(1248.780129 1234.697472 1158.880506 946.8191952 720.427432)
5(1281.435468 1243.362448 1138.230521 897.2261824 668.8781693)
5(1289.090413 1228.23972 1091.656914 835.8766871 610.3775046)
5(1270.890643 1187.41716 1019.348906 765.7180656 548.1281719)
5(1221.756113 1117.724895 930.4495977 689.1090936 487.4548255)
5(1150.15725 1020.426643 831.0878987 610.0905515 428.3629267)
5(1051.072365 903.8329544 726.6366949 532.3527569 375.1328138)
5(929.539809 779.6788921 624.7712127 462.042897 331.7338272)
5(796.2504706 658.7404118 530.7167593 399.5890344 293.262477)
5(660.0503472 547.7727037 448.536633 347.8306675 262.6017012)
5(534.8880405 451.4276048 380.507613 306.7670898 241.1554027)
5(424.3826252 373.943836 327.4380973 274.6037932 227.3928213)
5(340.346513 313.4450815 286.8297243 253.0809737 218.07378)
5(280.9673539 269.1883538 255.6092254 236.0877869 213.3303787)
5(239.6446754 236.2158438 231.6192582 221.5410485 210.8162811)
5(222.9484925 225.0984892 228.2742153 134.3224975 141.6788302)
)


60
(
5(3.764794624 4.845563647 10.49699006 14.91222168 26.36932919)
5(3.790196707 5.583925194 9.368788141 14.00894413 21.51749741)
5(4.007516291 6.350814523 9.518589106 14.54098895 20.69904072)
5(4.445913858 7.23261726 10.65463037 16.18446527 22.50804541)
5(5.188316389 8.402285516 12.55853785 18.72008462 26.21524705)
5(6.215762817 9.914673148 14.94893359 21.88095784 30.89016662)
5(7.413034857 11.71103363 17.60522358 25.39396498 35.51206115)
5(8.784560474 13.83140083 20.5236651 29.26963689 40.07377191)
5(10.40939386 16.32004015 23.82577092 33.58850763 44.94362334)
5(12.37274662 19.23563755 27.69144952 38.48754346 50.45487279)
5(14.73536056 22.65035536 32.19802631 43.99120999 56.61895229)
5(17.52463913 26.58614822 37.34832687 50.12434175 63.34592041)
5(20.7864816 31.11147923 43.15625862 56.88911257 70.60478931)
5(24.5740174 36.31050939 49.66165683 64.40696142 78.51536223)
5(28.99653817 42.27024543 57.02221198 72.81284383 87.30807729)
5(34.15037869 49.13081913 65.38800062 82.34205323 97.26806198)
5(40.18258012 57.0413948 75.0177156 93.21379652 108.7256779)
5(47.20497182 66.22381681 86.10178967 105.6972016 121.9565447)
5(55.44766451 76.89266887 98.9052002 120.2590219 137.387742)
5(65.10314176 89.31139832 113.8053319 137.1350714 155.4288008)
5(76.44045224 103.8079001 131.1864596 156.7948841 176.5367152)
5(89.81646491 120.7693324 151.415669 179.6437206 201.0774568)
5(105.4377951 140.5669128 174.9477787 206.0952454 229.5323243)
5(123.8830932 163.707523 202.3261835 236.6379639 262.4295403)
5(145.5428194 190.6423844 234.0729871 271.8264875 299.7819989)
5(170.7612122 221.7506194 270.6336205 312.0396325 342.1805648)
5(200.3062091 257.7211485 312.4410205 357.598044 389.8110605)
5(234.5759265 298.9338286 359.8841984 408.6938887 442.463712)
5(274.335864 345.9242318 413.4318498 465.5746861 500.2193598)
5(319.6127019 399.2678428 473.3713724 528.1448281 562.7802006)
5(371.7198712 459.4119901 539.8858215 596.4582571 629.8497622)
5(430.8921954 526.4430892 612.9868997 670.3035412 700.7103036)
5(497.3501148 600.847636 692.8378562 749.2436064 774.6765546)
5(571.7048278 682.4860972 779.1782987 832.3769166 850.2246368)
5(654.1145112 771.5831038 871.0390306 918.9367437 926.145443)
5(744.8356114 867.7014979 968.1155557 1007.650257 1001.190494)
5(843.5552569 969.6326367 1069.063468 1096.844695 1074.077742)
5(949.0990295 1076.879316 1172.227671 1185.01978 1142.386097)
5(1060.971531 1188.143748 1275.478727 1269.253264 1201.556277)
5(1176.85435 1300.241271 1375.559932 1346.794817 1246.655551)
5(1294.236424 1410.751977 1469.730989 1414.110965 1272.993513)
5(1409.391812 1515.116749 1554.275054 1465.600887 1279.269108)
5(1517.787706 1609.000432 1624.761782 1495.9203 1268.624043)
5(1614.51208 1687.435551 1677.416593 1499.860146 1240.489182)
5(1694.312507 1744.302719 1704.777876 1477.574642 1195.941551)
5(1753.727511 1775.977776 1700.250059 1430.762759 1134.290454)
5(1784.572566 1778.119819 1657.872739 1361.932013 1058.151295)
5(1785.833576 1745.102749 1579.532281 1273.30043 970.9010139)
5(1753.174479 1673.248812 1470.369842 1169.636189 877.0500339)
5(1686.6659 1561.21893 1338.789108 1052.614513 781.5889135)
5(1585.978337 1417.616306 1191.121764 930.931965 689.5050489)
5(1452.70645 1252.714212 1036.269098 810.7130207 604.4415646)
5(1292.097443 1079.089435 884.0909486 698.3933771 524.3775766)
5(1112.70442 907.2865949 743.5373391 600.121677 465.6202097)
5(928.9014933 747.1374154 620.8527926 517.5206086 414.682587)
5(756.183753 608.0466707 519.0107818 451.5556002 375.1491957)
5(604.5633208 495.2780915 440.9120347 401.0980506 348.5339785)
5(484.8502343 411.3549481 380.7381323 362.2159364 329.4740565)
5(404.9512829 354.8809139 334.8229354 330.6996065 312.3352483)
5(388.2130753 349.4321798 327.6162476 320.3964276 311.8208366)
)


60
(
5(4.922048528 6.671814715 14.36368003 21.49123237 37.43491293)
5(5.15886483 7.845411484 13.36580235 20.67035178 32.08326353)
5(5.570786688 9.016854501 13.89960693 21.67756284 31.54144425)
5(6.251286177 10.32137086 15.65926706 24.12168264 34.36590277)
5(7.325114673 12.00647055 18.37891773 27.71885569 39.44892859)
5(8.778806591 14.15957393 21.74149297 32.12565097 45.70240662)
5(10.48761673 16.70700222 25.47641076 36.98944216 51.9100107)
5(12.43639122 19.70032833 29.58310848 42.30331764 58.01629473)
5(14.74511089 23.18099869 34.18221625 48.1715973 64.4813006)
5(17.50093721 27.22635932 39.49629468 54.72474244 71.69036482)
5(20.77957461 31.87964617 45.57094226 61.991849 79.59929411)
5(24.60597663 37.20652009 52.43781281 69.97722224 88.16116543)
5(29.05019349 43.25698299 60.0780175 78.70996758 97.30149283)
5(34.18270332 50.1284513 68.57648951 88.31906562 107.2435438)
5(40.09130162 57.94681238 78.09232347 98.9908147 118.2191741)
5(46.90750292 66.85238767 88.84477921 110.9909084 130.6623034)
5(54.80847894 77.05748876 101.0833938 124.6001051 144.8547493)
5(63.97970445 88.77294097 115.076123 140.2491662 161.2889235)
5(74.63389956 102.3125282 131.2199578 158.3223849 180.4940851)
5(87.01144339 118.000337 149.8907459 179.3114746 202.90353)
5(101.5310123 136.2396564 171.5832854 203.7264365 229.1675186)
5(118.4044264 157.4772818 196.830892 232.0766028 259.7564313)
5(138.2403837 182.222844 226.1960723 264.9794038 295.344585)
5(161.4327715 211.0237454 260.3275038 303.0777544 336.4932357)
5(188.5909614 244.473234 299.8534036 346.9862033 383.7868198)
5(220.2000935 283.2436287 345.3735042 397.272793 437.2328457)
5(257.0661896 327.9048136 397.4773802 454.4406094 497.5597645)
5(299.739593 379.1890335 456.85178 518.7627593 564.7750567)
5(349.1568606 437.7004886 523.9495282 590.6608678 639.150289)
5(405.6518148 504.1411834 599.2012963 670.3724142 720.3365845)
5(470.3615029 578.8983814 682.9948178 757.8241371 808.1919534)
5(543.5084164 662.5506519 775.7108378 852.9662266 901.994755)
5(625.9355132 755.7306091 877.131925 955.46884 1000.941137)
5(718.0702109 858.1470939 987.1797987 1064.702783 1104.045838)
5(820.2078831 969.9949948 1105.2392 1179.669828 1209.469367)
5(932.5099674 1090.973037 1230.82123 1299.071075 1315.850576)
5(1053.871846 1220.37084 1362.913242 1421.475944 1421.887942)
5(1184.804612 1357.414029 1499.276411 1544.542135 1524.809364)
5(1322.789313 1499.758147 1637.849015 1665.629223 1619.181382)
5(1466.589594 1644.624046 1775.487773 1780.942843 1699.144496)
5(1612.568825 1789.634425 1907.577185 1886.595224 1758.022377)
5(1756.755392 1929.400137 2030.649041 1975.369308 1795.182942)
5(1895.043359 2058.668437 2138.768093 2040.135349 1809.248624)
5(2022.143435 2172.156626 2227.636659 2074.672767 1800.648864)
5(2133.061792 2262.848576 2286.968244 2076.677821 1767.786923)
5(2222.81518 2325.985273 2308.349939 2045.629895 1710.105168)
5(2284.810341 2356.315132 2284.09155 1983.392125 1626.33976)
5(2316.401046 2347.000226 2212.53963 1889.282168 1521.219869)
5(2313.018921 2292.33061 2101.30679 1766.22898 1399.451548)
5(2272.888003 2188.690503 1951.655105 1618.731229 1266.636948)
5(2193.83365 2043.266472 1771.938761 1452.257458 1125.494775)
5(2073.5406 1861.050954 1571.227691 1277.552957 991.2135784)
5(1915.384684 1657.055997 1359.162566 1104.447205 862.9547842)
5(1725.007916 1437.366064 1149.6112 940.4408502 749.0762372)
5(1512.793052 1215.748337 953.4309124 796.6356833 651.7543151)
5(1295.575314 1004.980004 781.8352539 674.975897 568.1757543)
5(1083.059067 818.904742 642.3499707 576.5955262 513.877856)
5(894.8296708 664.893729 534.2384448 498.3851727 465.8961975)
5(751.2105596 560.3398471 461.3204485 438.0519853 422.6016765)
5(746.6086697 591.0469375 478.7548898 437.6567916 414.6229018)
)


60
(
5(6.252459667 8.836112904 18.97828663 29.52922706 50.68247999)
5(6.762328873 10.5455363 18.19406697 28.88161759 44.97776626)
5(7.436006623 12.22500518 19.22979653 30.47043872 44.89378806)
5(8.398773158 14.03033112 21.7401548 33.82281873 48.70631349)
5(9.871245812 16.31943643 25.42033069 38.57747401 55.29005017)
5(11.82349595 19.22065796 29.86865482 44.32734286 63.19294424)
5(14.12399517 22.63296543 34.80640563 50.64131694 71.03771497)
5(16.75260036 26.61413932 40.22524019 57.51089792 78.74745488)
5(19.84173985 31.21201004 46.2433944 65.00144477 86.8535363)
5(23.50294925 36.48794607 53.10376626 73.28171934 95.75956005)
5(27.80626262 42.50228019 60.85031169 82.34177443 105.4139999)
5(32.78197541 49.31295222 69.50654882 92.21159083 115.7579654)
5(38.52639792 56.9796315 79.04462123 102.9018047 126.7740334)
5(45.09001463 65.6251631 89.57318991 114.5841112 138.6440968)
5(52.59258638 75.35211559 101.2466534 127.4660845 151.7747208)
5(61.18338248 86.36252464 114.3540948 141.8702753 166.5263257)
5(71.05000697 98.84739669 129.1688819 158.1533633 183.4060257)
5(82.40564558 113.1358722 146.0347282 176.7918437 202.9174939)
5(95.54035372 129.5490526 165.3903567 198.2462263 225.6469094)
5(110.6974717 148.4642961 187.6878722 223.1311665 252.2371035)
5(128.3439059 170.3836187 213.5707692 252.0403379 283.3267612)
5(148.8776983 195.7626991 243.6032897 285.6300053 319.7374384)
5(172.7756398 225.3120203 278.5370257 324.6559613 362.0195743)
5(200.8539441 259.672712 319.0629953 369.8211449 411.0757347)
5(233.2854225 299.4908156 365.9769765 422.0290904 467.3857953)
5(271.2881533 345.4734368 420.0856498 481.9434941 531.9207195)
5(315.4926807 398.626405 482.1340849 550.1530612 604.6728461)
5(366.7633699 459.6180527 552.963482 627.2142973 686.0434056)
5(425.3686395 529.2486736 632.9051931 713.6237077 776.7697364)
5(492.525652 608.2246549 722.8279283 809.910634 876.0946431)
5(569.1188248 697.3061396 823.2556187 915.7971141 985.1092178)
5(656.5568927 797.195623 934.6476573 1031.792839 1102.08491)
5(754.2648492 908.1516663 1057.069226 1157.550406 1226.345039)
5(863.3192496 1030.534179 1190.332297 1292.682655 1357.30883)
5(984.3319363 1164.470988 1334.482253 1436.257386 1493.988781)
5(1117.070205 1309.569433 1488.177281 1587.052741 1633.923303)
5(1260.989696 1465.626233 1650.990748 1743.39005 1776.048407)
5(1415.25325 1630.715105 1820.674888 1902.871796 1916.867926)
5(1578.428825 1803.4683 1994.925413 2062.423383 2051.338199)
5(1747.55041 1981.03755 2170.110197 2218.441689 2171.875054)
5(1920.597569 2159.4869 2341.58683 2366.584246 2271.648501)
5(2092.730921 2334.043277 2504.959718 2497.974834 2347.583401)
5(2259.279871 2498.741004 2654.996708 2605.410273 2398.24389)
5(2415.938824 2647.903936 2783.845531 2679.122177 2422.637513)
5(2557.482675 2775.239179 2882.034658 2716.330188 2415.467727)
5(2679.148134 2874.942709 2939.028275 2715.025972 2376.626434)
5(2776.296045 2940.226322 2946.085081 2673.338533 2299.818428)
5(2844.302826 2966.88671 2901.342267 2589.639571 2191.439601)
5(2878.000476 2945.846834 2805.194764 2465.003405 2050.182315)
5(2874.648861 2871.238028 2662.017565 2299.006951 1885.674855)
5(2832.079323 2748.235074 2476.492034 2100.513437 1703.444895)
5(2744.896479 2580.367213 2255.250362 1877.634934 1510.551989)
5(2613.272448 2376.506134 2005.884412 1640.996914 1318.844274)
5(2440.662718 2144.539291 1743.536709 1404.717114 1133.288554)
5(2235.622111 1894.296577 1477.593112 1180.318275 969.4621731)
5(2008.549594 1638.094019 1226.238279 979.0718399 831.1120757)
5(1774.125621 1390.574032 1001.72492 808.1149877 708.4560192)
5(1549.033648 1168.496566 820.4921039 672.3686823 616.4856964)
5(1359.284643 1003.40393 700.7869529 571.9970088 536.6001159)
5(1369.399315 1090.496003 838.1740616 638.0865557 559.0851542)
)


60
(
5(7.763524135 11.36474637 24.36424115 39.07351234 66.16446342)
5(8.614745309 13.72752494 23.91941204 38.67094511 60.24383757)
5(9.602509162 16.01166428 25.58581665 40.95049201 60.75215679)
5(10.91537205 18.40311567 28.96651401 45.3078781 65.69213281)
5(12.84817395 21.38681713 33.69662167 51.3241787 73.78206296)
5(15.38633082 25.14492097 39.34981061 58.49858615 83.35838995)
5(18.35447666 29.53312988 45.633046 66.36610047 92.84139697)
5(21.75920981 34.61210942 52.47444402 74.84108415 102.1991892)
5(25.72866918 40.42662088 60.03701911 84.04534199 111.9431291)
5(30.40168661 47.05013541 68.51809462 94.07883736 122.5327796)
5(35.83839287 54.54349237 78.03432763 104.9949307 133.9039017)
5(42.10152177 62.9474411 88.52708912 116.7366066 146.0260837)
5(49.22014211 72.33165693 100.0295826 129.404534 158.8278915)
5(57.31155621 82.81233853 112.5977577 143.1259567 172.6166249)
5(66.49905403 94.53091038 126.4869981 158.1982145 187.7533066)
5(76.95041854 107.6791645 141.9392853 174.9442468 204.773562)
5(88.90609281 122.5474137 159.3545214 193.8130634 224.1487629)
5(102.5287155 139.4137443 179.0459626 215.2989246 246.6209274)
5(118.2070564 158.7078438 201.5639812 240.0055617 272.6636711)
5(136.197475 180.8231673 227.4359582 268.5776322 303.0844548)
5(156.9624337 206.3518445 257.3969765 301.7705954 338.7499125)
5(181.1268678 235.8625832 292.1079238 340.2940128 380.5302973)
5(209.3303453 270.1478136 332.4149121 385.1241102 429.4889951)
5(241.9998839 309.8811 379.1750853 437.0336238 485.8982176)
5(280.0230976 355.9035812 433.2967061 497.0417496 551.0442894)
5(324.3967415 409.2837818 495.6867564 565.9465813 625.469658)
5(375.5752195 470.7969836 567.2261208 644.5505082 710.2019165)
5(434.947989 541.3224767 648.8184553 733.7843715 805.3610433)
5(502.8622154 621.6134884 741.3388749 834.1760349 911.9857069)
5(581.3300828 712.6927708 845.4679861 946.0213617 1029.336522)
5(670.0306132 815.8710302 962.1433816 1069.864003 1158.107977)
5(770.5246776 931.3651028 1091.719549 1206.094303 1297.198424)
5(883.3515085 1059.753711 1234.462425 1354.639357 1447.210372)
5(1009.145407 1201.72465 1390.33893 1514.929941 1605.678847)
5(1148.591989 1357.091346 1559.430469 1686.322297 1773.183063)
5(1300.980807 1526.029805 1740.692647 1867.763561 1947.3441)
5(1466.003026 1707.464252 1933.326801 2057.623917 2125.946451)
5(1642.948644 1900.012914 2135.975265 2253.668192 2307.838025)
5(1828.778809 2101.735358 2345.229004 2453.066785 2484.541624)
5(2022.579601 2309.674689 2557.369855 2651.584444 2648.467795)
5(2219.321947 2519.758767 2767.799875 2843.153125 2795.250154)