/*--------------------------------*- C++ -*----------------------------------*\
| =========                 |                                                 |
| \\      /  F ield         | OpenFOAM: The Open Source CFD Toolbox           |
|  \\    /   O peration     | Version:  2.3.1                                 |
|   \\  /    A nd           | Web:      www.OpenFOAM.org                      |
|    \\/     M anipulation  |                                                 |
\*---------------------------------------------------------------------------*/
FoamFile
{
    version     2.0;
    format      ascii;
    class       dictionary;
    location    "constant";
    object      rETA3;
}
// * * * * * * * * * * * * * * * * * * * * * * * * * * * * * * * * * * * * * //

rETA3_table
60
(

60
(
5(0.262442095 -1.517086995 0.1003417768 -0.9867610409 5.758053681)
5(-0.9493247259 -0.1435993093 -0.1364622698 -0.5680146776 -6.709868804)
5(53.96283633 -0.01847861999 -0.1797749033 -0.4658214565 -0.005244210784)
5(122.2291008 0.05789974937 -0.1339595309 -0.149555663 0.14773992)
5(76.27666715 0.04441223169 -0.1643957768 -0.03987694816 -0.4810208034)
5(35.73265937 0.02410939612 -0.0765044499 0.08892380316 0.0554555549)
5(0.1293682442 0.02360177585 0.1331125562 0.105750136 0.6526335872)
5(-0.01062480758 0.0477733279 0.2750143089 0.1970348213 0.07802496092)
5(23.00689746 0.08387081063 0.6349003709 0.2354032691 0.3074977548)
5(23.23785539 1.237133003 0.9435387502 0.3669025028 0.511193969)
5(19.07630422 1.807523707 0.8408387825 0.6500930039 0.6796480572)
5(11.31452516 0.2371458974 0.5499218357 0.5515924619 1.094158695)
5(0.1271637651 0.3098837659 0.5444684654 0.9169621087 1.322446543)
5(0.2478909264 0.4135579799 0.7285892829 0.8447128368 1.471896398)
5(0.1877353587 0.4363260992 0.7924311267 1.258717019 1.696918478)
5(1.231584251 1.819345842 1.657893941 2.091271736 2.373969085)
5(1.197170571 1.601280415 2.073131972 2.186448486 2.986176276)
5(0.7578866601 1.429557674 1.717408338 2.634354855 3.759022365)
5(0.551532283 1.343269478 2.085278465 3.183792051 4.821835109)
5(0.8166738469 1.653692272 2.82138952 4.578552164 5.72958898)
5(0.9961375151 1.878408999 3.217510522 5.437523884 6.9157944)
5(1.324400335 2.415414839 4.251948219 5.303992035 7.379810859)
5(1.920038845 3.283478802 5.302667442 7.916369779 10.54194465)
5(2.388649275 4.662224185 6.874354016 9.807876064 12.48201709)
5(3.283118069 5.873408437 9.045209034 12.91429342 15.81777113)
5(4.310476781 7.258315254 12.30501426 17.10128725 18.8326592)
5(5.725590137 8.966423753 14.06996667 21.1432197 22.32963398)
5(7.161354185 11.44031055 18.02011408 25.31669977 25.51823984)
5(9.830712407 14.56520537 20.83948283 28.55903081 29.25368799)
5(12.41999926 18.54881735 24.249809 30.39500505 31.54242019)
5(16.1166626 23.04538949 29.94389733 36.2056386 35.63966651)
5(19.92209435 26.85007446 32.91823971 36.69436895 31.39085626)
5(23.97899913 32.11969068 38.59268403 40.35237051 40.18469039)
5(29.40477769 38.65413358 46.20169064 42.96914431 34.14944814)
5(35.88227482 43.96670195 50.09491017 45.81639402 34.00729244)
5(42.63725994 53.51832897 63.27121531 49.92486189 32.84423205)
5(50.82779847 55.34589404 55.98696665 46.45719621 37.49203816)
5(58.83306012 65.27711099 59.35707415 51.14325813 21.51864592)
5(69.22092152 70.64580861 66.26320305 48.34437648 34.387966)
5(84.13909269 78.07813238 76.13650456 54.77044344 -7.33109149)
5(94.34277298 78.38108056 68.96457425 36.25187112 -15.9168456)
5(99.20926307 80.53712747 67.10123777 -128.7287862 0.0740622424)
5(106.0722905 75.55103968 61.40367264 0.05333617662 0.08366515191)
5(111.3024513 79.38262207 83.44126384 0.0761058457 -15.0776748)
5(115.6676428 76.05138454 57.63964276 0.07365315845 -1.612662955)
5(105.6849921 74.39664299 50.69386925 0.06428796055 0.132081199)
5(99.5653761 51.50625653 -149.5858129 -1.468568673 0.1498766969)
5(73.14576008 34.47823183 -23.71153794 0.01491751167 0.1489411922)
5(78.71866821 36.43969258 -1.326596498 0.01505902565 0.07597444762)
5(76.70580131 -8.481766176 -0.009895969588 0.04642646578 0.07920535097)
5(15.85296668 -0.02180911133 0.09876191847 0.05760903848 -0.07572746059)
5(-192.9547522 0.02200156734 0.05213211256 0.1340757327 0.09441969377)
5(-34.95218856 -0.2927608688 0.1002079337 0.1744693509 0.08170301409)
5(0.04026241641 -0.0965916483 -0.0451256084 -0.0175957621 -0.1117457184)
5(-0.01613944333 -0.1846163093 0.06880719482 0.1360126115 0.0905637557)
5(-59.43159429 -0.007046097608 0.1237338108 0.0174672346 0.1653990048)
5(-167.6215321 0.01903628786 0.08727294159 0.1546629696 0.3237362377)
5(-102.3035943 -59.45169056 -0.01475512641 0.4750453763 1.59926813)
5(115.8128617 -25.69040863 -20.94562128 0.3339578501 4.178870335)
5(-0.6181121317 -0.775616174 -1.163346714 -1.182195519 -0.9849692403)
)


60
(
5(1.777016679 0.3897252359 6.824911704 7.597664898 36.74384353)
5(1.044293797 -0.04215961758 2.411360156 3.976773163 11.05881706)
5(0.2865215962 1.663945441 2.246770542 4.292478153 3.620594858)
5(0.2472195514 2.963148433 4.179925627 6.467092164 11.3420687)
5(1.388129685 4.238006239 6.637229941 11.25453971 15.86857773)
5(3.032339158 5.794475586 8.859595122 15.9217929 23.01797547)
5(4.438134437 7.65300415 12.28184809 20.24293372 31.07871618)
5(5.447393162 9.836165719 16.0631194 25.3918404 35.48688692)
5(6.915816205 12.34366718 19.52485828 30.74098131 42.22271847)
5(8.457633642 15.17908513 23.8787631 36.33929346 49.92568244)
5(10.54889484 18.35210967 28.62056941 42.78332176 58.12246316)
5(13.01871459 21.98819692 33.72091423 49.91715286 66.95234333)
5(15.8030664 26.08930135 39.56832381 58.0728958 77.35041779)
5(19.08403672 30.78307475 46.21221056 66.50339597 88.02505904)
5(22.54171392 36.0340283 53.52035209 76.79328661 100.2942002)
5(26.69226384 42.23686135 62.2493453 88.46309368 114.666708)
5(31.77162273 49.61422413 72.50199422 102.289191 131.8839219)
5(37.78644856 58.55613151 84.90060312 119.0565367 151.625521)
5(45.10450871 69.47405279 99.79917354 138.693039 174.8416166)
5(54.20075557 83.0018887 118.1146403 162.9092175 202.0174966)
5(65.32448194 99.03305687 139.7008415 190.7416572 233.9248166)
5(79.10268599 118.7307655 166.0214141 222.4194393 269.8901862)
5(95.97946161 142.6042359 197.1305548 261.1529052 312.2726294)
5(116.4266234 171.1586732 233.9317359 304.7658402 358.8852844)
5(141.6370288 204.7852111 276.5472848 354.2946861 410.6780898)
5(171.4907542 243.9716935 325.5714147 409.6994934 466.7806657)
5(207.3087531 289.4156805 381.3398005 470.2388 526.6726811)
5(249.4610284 341.4385395 443.0824963 535.709153 589.2016149)
5(298.3336538 399.9893096 512.0953624 605.7086044 652.9516991)
5(354.9016476 465.1090202 587.3805614 681.017284 718.7631341)
5(419.6083274 537.1948945 666.9216286 755.7981836 782.32061)
5(493.7176447 617.7942363 754.875966 838.2531651 853.4955732)
5(578.0876909 704.4051136 844.8957528 918.0898139 903.4666218)
5(671.7775334 797.7478374 937.2764402 998.9144121 968.4428614)
5(776.5747069 899.7689358 1036.724146 1076.30804 1014.845295)
5(892.9652713 1003.011599 1125.525022 1148.35777 1053.673846)
5(1022.324388 1125.127866 1246.524709 1224.619616 1081.875528)
5(1162.397845 1236.470289 1344.154816 1277.10148 1138.07969)
5(1311.412972 1357.507516 1427.674136 1328.53571 1101.07076)
5(1459.796967 1469.016719 1492.995747 1350.228332 1178.923798)
5(1619.700535 1583.840651 1567.272639 1358.449255 1094.126613)
5(1773.444038 1673.52346 1609.643995 1381.036362 992.6562811)
5(1907.421761 1748.274494 1631.098716 1400.719927 880.0126876)
5(2007.538213 1754.916794 1550.365792 1277.634421 771.301705)
5(2056.379493 1742.424422 1502.999115 1126.696117 674.9178779)
5(2058.246992 1677.531004 1421.125766 976.3508396 585.8291761)
5(1991.565598 1601.070558 1414.675068 836.8105068 502.639839)
5(1878.085125 1529.654997 1261.471466 714.5958385 425.5610305)
5(1712.405422 1349.848643 1073.985954 607.9001954 371.5565642)
5(1508.008558 1345.576014 904.9242252 523.8947841 323.8951258)
5(1341.681077 1115.749591 761.322762 452.1309409 279.6113493)
5(1272.533525 914.5555801 637.146809 396.5634421 262.2398817)
5(1108.264707 761.6960134 549.6976321 348.347709 211.5223257)
5(907.2172773 619.0422756 479.075418 314.6011404 225.3588283)
5(698.9438804 536.1599857 416.6850943 288.3947307 213.3576355)
5(545.207203 444.5363232 360.7105644 263.149727 209.0130504)
5(384.6953222 359.6151518 311.8454717 237.6774365 196.7266181)
5(241.426114 261.5417375 250.524421 205.9131453 201.4905967)
5(124.9174064 124.6150023 131.1100713 256.5156038 178.2672357)
5(-152.4117809 -144.6225996 339.5307933 -252.3036501 -171.0162143)
)


60
(
5(4.358501911 4.393074126 20.07579655 31.92426732 95.12119522)
5(3.8422986 5.840666824 13.53926074 25.24292408 50.16272861)
5(4.269162622 8.102160716 13.35177055 26.62666743 41.57408269)
5(5.424905742 10.86896464 17.23206742 32.91689325 47.97165432)
5(7.322696737 14.29827077 23.65604533 42.15290365 61.24743053)
5(9.896337321 18.44550205 31.46723025 52.77320891 77.70969918)
5(12.83203831 23.16373847 39.44764606 63.59427884 91.85057935)
5(16.03934149 28.411642 47.33988254 74.58411219 104.5891284)
5(19.60399631 34.31209597 55.67261667 86.23652627 117.6801887)
5(23.87249769 40.93717969 65.0041182 99.05181889 132.6694035)
5(28.82262901 48.39018489 75.65996707 113.3884136 150.0139126)
5(34.61338525 56.75335135 87.68686084 129.2735497 169.3029675)
5(41.03002247 66.13964784 101.0821055 146.8488479 190.3491042)
5(48.31373759 76.80737865 116.0060978 166.4427812 213.3461495)
5(56.77391472 88.96525358 132.880419 188.60349 239.4797919)
5(66.58122245 102.9640508 152.1987834 213.8094695 268.8331019)
5(77.80263399 119.1553178 174.4889466 242.7533095 302.5110417)
5(90.97954481 137.9739441 200.2967062 276.1324736 340.7020129)
5(106.4888081 159.9423337 230.2345278 314.2563352 383.6711329)
5(124.7989791 185.4826147 264.6155585 357.3873102 431.4119337)
5(146.1784474 214.8716937 303.8989143 405.8687985 484.2372135)
5(171.2722406 248.7640059 348.2754257 458.9491849 541.6471226)
5(200.1949402 287.1564861 397.7991017 517.3058434 602.5835329)
5(233.7648656 330.2536354 452.5061958 580.2545228 666.3611993)
5(271.8218835 377.9768959 512.3654362 646.4952277 732.5903832)
5(314.6166141 430.4875898 575.9766279 715.867154 799.4081194)
5(362.714941 487.359516 643.27251 786.9072861 865.8867073)
5(415.5112069 547.9211314 714.2358834 859.680932 931.7049187)
5(473.5055088 612.6533501 787.6235874 932.198615 993.5469505)
5(536.6662791 680.7123704 862.6973568 1004.714683 1055.466259)
5(604.4706029 752.7645517 940.6517313 1077.42941 1111.219913)
5(678.1317132 828.9292383 1020.295574 1148.942402 1166.348052)
5(758.1779298 908.6458212 1103.185557 1222.00843 1217.888556)
5(844.3216136 994.8494018 1191.349023 1297.754419 1268.556734)
5(940.3715922 1089.118869 1283.877575 1376.53428 1315.683238)
5(1044.763225 1191.855461 1385.43568 1459.796397 1367.954878)
5(1165.204388 1308.591928 1497.242776 1551.035729 1416.322434)
5(1298.591763 1438.326356 1621.378486 1644.576478 1464.099201)
5(1453.39132 1586.450221 1754.667241 1738.380611 1503.467635)
5(1629.722394 1744.491622 1890.704595 1827.584187 1520.058633)
5(1821.864429 1915.8184 2027.405567 1897.365862 1509.614448)
5(2028.13829 2076.470389 2142.588109 1932.863326 1464.55483)
5(2228.741192 2221.212259 2222.114362 1918.387109 1384.655398)
5(2404.572425 2326.98859 2244.566624 1841.886599 1271.308044)
5(2533.061611 2360.665605 2194.244913 1711.589098 1150.250452)
5(2580.581715 2311.487981 2068.396582 1543.545054 1013.834902)
5(2523.036236 2185.895776 1884.449523 1357.485081 882.424665)
5(2363.791607 1986.650033 1659.821805 1178.079784 770.3128765)
5(2110.058815 1735.907564 1430.278215 1018.003472 677.6501389)
5(1814.967412 1486.249931 1232.03939 884.2438299 603.281158)
5(1513.522398 1267.592877 1068.262709 780.5028494 548.7132572)
5(1248.463444 1082.42044 938.0650214 698.2565389 498.3233596)
5(1043.036944 941.0252097 837.4516383 627.5325277 465.2397221)
5(895.500401 831.219757 748.8566293 571.9307951 400.9916282)
5(775.9719614 729.3678056 669.7181942 525.553418 399.6983367)
5(675.3142545 638.0305843 597.4933635 478.5692331 373.5727706)
5(563.3771769 547.6561867 527.1448431 438.5691219 354.8951304)
5(449.1868197 453.5359798 463.144496 397.8886064 330.6345255)
5(303.6375248 352.6820096 417.1473028 378.2790678 313.5620957)
5(-106.1913052 -204.6004552 302.1137711 90.61628865 -1.005426826)
)


60
(
5(7.819832346 10.1768421 40.35591991 72.36370314 182.0775699)
5(7.372688593 12.65286966 30.53424412 59.33711962 113.5540066)
5(8.509169151 16.84881133 31.12972676 61.16345793 99.22772737)
5(10.68676948 21.82655703 38.09081471 71.08739646 107.411341)
5(14.12017925 27.78841991 48.73488813 85.35120779 126.2932813)
5(18.61314279 34.81860365 61.20520459 101.7425857 149.1920076)
5(23.62462487 42.70978225 73.94877 118.4445959 169.2611831)
5(29.05383424 51.31823748 86.53029274 135.0967573 187.3721608)
5(35.07785698 60.73662759 99.61508947 152.5612529 206.3652242)
5(42.08257273 71.15348966 114.0736316 171.6378996 227.8837741)
5(50.09000969 82.72060964 130.1763363 192.5777005 252.2215711)
5(59.06283415 95.49543574 148.1152989 215.4948594 278.8828332)
5(69.10231366 109.6761864 167.9112569 240.6992937 308.3996476)
5(80.21911628 125.529749 189.7368779 268.8146624 340.6901854)
5(93.01795089 143.3933517 214.2021184 300.2591273 376.5922798)
5(107.5833918 163.7530607 242.0775374 335.8200753 417.3631115)
5(124.2758005 187.1432767 273.9116896 376.2562298 463.5494921)
5(143.4845915 213.9849073 310.2705591 422.1070623 515.6086926)
5(165.9853919 244.7713031 351.7256924 474.2971268 573.6238726)
5(191.5977387 280.1520095 398.7663447 532.1571587 637.2202418)
5(221.6532233 320.1041131 451.5459235 596.603148 707.0528561)
5(256.2607089 365.3831843 510.7218472 666.74915 781.7805723)
5(295.3837485 415.8350717 575.0702547 741.4125809 860.0811044)
5(338.8727549 471.3861599 644.5446973 820.8810786 940.3109327)
5(388.5037454 531.4993767 718.6300871 903.3998658 1022.105082)
5(442.3429753 595.5873244 796.9222529 987.5748459 1103.710201)
5(501.3535992 664.8094052 877.8004602 1072.534627 1182.31019)
5(564.9057634 735.5810039 959.5394496 1155.889903 1259.222379)
5(631.9724911 809.6023734 1043.000516 1239.128545 1329.257716)
5(703.5501771 885.5878444 1125.70967 1318.362226 1397.81643)
5(778.1648304 962.3073853 1208.71675 1397.764966 1459.848981)
5(857.0862273 1042.961546 1293.009497 1475.107259 1518.594963)
5(940.0697859 1127.345047 1378.099805 1553.836525 1578.793295)
5(1028.029154 1212.75087 1470.310436 1636.27101 1638.8745)
5(1123.241564 1309.512868 1571.892479 1727.870663 1700.800251)
5(1232.005978 1416.607817 1683.033702 1831.05241 1770.743278)
5(1351.929612 1542.33323 1812.563376 1949.470621 1852.799048)
5(1490.298861 1688.088568 1964.851871 2085.389648 1934.393336)
5(1655.216795 1861.264998 2143.597606 2234.853915 2026.33774)
5(1848.89434 2065.86022 2344.672219 2395.660794 2098.942369)
5(2076.507192 2288.783868 2555.306235 2548.916832 2150.662349)
5(2321.077196 2522.946735 2763.809225 2670.324192 2159.753007)
5(2579.879872 2753.426912 2937.618954 2736.055862 2111.452667)
5(2826.701428 2947.165628 3051.282816 2720.376105 2007.829368)
5(3025.964491 3071.830656 3071.741548 2609.203054 1846.899595)
5(3145.052125 3086.557725 2971.354496 2411.161625 1654.455038)
5(3134.968672 2973.479155 2751.786925 2151.000452 1439.55074)
5(2990.618613 2731.857798 2452.860748 1861.119644 1222.579849)
5(2687.235425 2392.34772 2103.630573 1586.254906 1058.011666)
5(2281.255959 2007.255082 1765.510156 1348.99244 908.5139229)
5(1832.357338 1640.628262 1488.922861 1165.955808 801.3196538)
5(1406.408191 1324.815685 1278.497654 1035.700369 755.6474383)
5(1053.659846 1104.931647 1124.987149 940.9053246 690.730622)
5(829.080965 950.2307277 1011.136605 862.4531491 632.055211)
5(674.8569015 837.8620395 908.8385138 791.9744116 599.9788161)
5(605.2346407 737.5295779 819.1430307 716.8150695 581.0056444)
5(487.5295248 632.5575813 727.7979524 665.2735817 545.654052)
5(341.6849765 506.7773774 622.6282268 595.7273269 509.0887427)
5(29.96236827 228.1518815 442.6857315 517.0437974 491.0195154)
5(-472.6281694 -1283.158157 -532.1983471 801.505243 430.674749)
)


60
(
5(12.41341809 18.63231211 68.8852642 131.4478086 299.535871)
5(12.13255846 22.27604898 54.89589183 108.7701587 203.0176448)
5(14.24859824 28.85117439 56.26912319 109.584173 179.2787629)
5(17.77152529 36.44120969 66.40814915 122.3613181 186.3754947)
5(22.91103513 45.24052886 81.46525988 141.0988771 208.9506683)
5(29.58284933 55.44470584 98.63755295 162.316914 236.071807)
5(36.95532058 66.64430998 115.9552247 183.8830773 260.3913864)
5(44.8511997 78.66521308 133.1164057 205.579 282.4403855)
5(53.55028316 91.68626973 150.7380608 228.158207 305.8280546)
5(63.33010339 105.7795129 169.7899323 252.3034645 331.9785189)
5(74.34119772 121.179794 190.8789787 278.7170826 361.9059815)
5(86.61306526 138.0702112 213.9956717 307.5939081 394.6221554)
5(100.034398 156.548189 239.2787066 339.206406 430.5034694)
5(114.9538039 177.0620509 267.1060292 374.0592719 470.0804311)
5(131.4864085 200.0598167 298.0681397 413.2440454 514.3517994)
5(150.2820048 225.9782578 332.9528933 457.3111142 564.4283178)
5(171.9647831 255.3878755 372.4683559 507.1912329 620.9721493)
5(196.3465326 288.8614685 417.86069 563.442675 684.0445527)
5(224.6665925 327.1475409 468.8819785 626.5898634 754.9962424)
5(257.0078954 370.6913204 526.4393056 697.5305794 832.4516486)
5(294.0587027 419.784758 590.5893928 774.9045203 916.615698)
5(336.4596178 474.553299 661.7598341 859.2713828 1006.315324)
5(383.9198334 535.2611679 738.5958319 948.3337599 1099.281977)
5(436.6666937 601.1356577 821.5758782 1041.548932 1195.346772)
5(495.3444828 672.4116072 908.423626 1137.913781 1290.605031)
5(558.8448873 747.0137229 998.1152644 1235.735993 1385.93936)
5(626.776218 825.1746475 1089.968061 1332.680589 1477.587185)
5(699.3731637 905.8799962 1182.342107 1426.864692 1563.335845)
5(775.76189 987.5912707 1273.962367 1518.870628 1645.647389)
5(853.5515434 1070.049567 1363.419792 1606.075628 1718.761302)
5(933.9777037 1152.288607 1451.294635 1690.14421 1789.035323)
5(1016.765809 1235.44 1541.472777 1772.55527 1851.11799)
5(1101.459198 1320.702592 1626.981588 1854.972995 1916.799057)
5(1190.794858 1409.699974 1719.003254 1942.432832 1981.449318)
5(1284.318283 1504.427184 1820.402519 2040.362821 2057.037939)
5(1386.814826 1609.558274 1937.111794 2152.375676 2139.794445)
5(1502.452665 1735.43284 2080.761575 2287.646047 2244.2325)
5(1636.723793 1885.897222 2246.95714 2453.476659 2371.768341)
5(1797.05167 2067.950296 2451.781957 2651.46704 2504.742458)
5(1989.477474 2289.311032 2695.044569 2873.371051 2653.343622)
5(2215.991301 2544.887804 2969.511478 3109.060466 2775.616941)
5(2476.909824 2831.238421 3262.272001 3334.66938 2855.379906)
5(2758.059815 3128.619814 3542.653425 3507.626472 2892.263362)
5(3045.61254 3403.328295 3768.451691 3596.317876 2843.383801)
5(3304.021955 3620.214024 3885.618297 3563.902014 2708.165341)
5(3494.062077 3730.103297 3872.965797 3398.240371 2478.57587)
5(3576.425461 3685.839164 3688.860028 3111.624225 2187.41092)
5(3502.697019 3469.343411 3339.412557 2728.592982 1873.777094)
5(3264.16064 3082.430323 2887.44462 2316.091749 1576.318363)
5(2828.717571 2584.680073 2392.227359 1937.269641 1329.697303)
5(2285.855327 2044.888596 1933.834584 1615.82333 1151.167319)
5(1700.876834 1533.387765 1564.477803 1381.707615 1034.219984)
5(1136.474101 1139.714407 1306.650946 1213.997759 902.878528)
5(683.2323467 878.6531152 1134.963503 1111.972672 900.6422957)
5(387.3805284 720.2517985 1019.745139 1033.101917 852.4118001)
5(242.7282233 613.3667915 915.077733 956.4896032 800.2947091)
5(143.8616723 514.6210573 797.9718136 868.7893797 757.183559)
5(-4.393065474 351.0745142 641.6667556 762.3380898 695.9283821)
5(-518.5833295 -161.4054904 168.5260052 503.37807 601.7106482)
5(-1062.859851 -758.7513376 -637.6358244 -350.4923973 -159.232268)
)


60
(
5(18.34350669 30.42763017 106.6018822 211.3770137 448.4674282)
5(18.35944093 35.1931223 87.2996815 174.5636794 317.8640519)
5(21.42085619 44.41565801 89.15465288 172.0778725 279.9274404)
5(26.64779273 54.76132814 102.3596884 186.2344611 285.4466452)
5(33.91840994 66.55904507 121.570489 208.3103565 308.4200483)
5(42.9480861 80.01393509 143.1204906 233.4657522 336.9088127)
5(52.99124841 94.59732895 164.6293918 258.9505341 363.7120321)
5(63.39054572 110.0756854 185.8701616 284.4739071 387.4456417)
5(74.86801263 126.5291646 207.5706498 310.9953061 413.430091)
5(87.40219916 144.2190943 230.8769562 339.4180913 443.0982669)
5(101.4691804 163.2265672 256.1935226 370.2387207 476.8507478)
5(116.5408646 183.840044 283.8895771 403.7997993 514.0524876)
5(133.2959047 206.2735564 313.8226391 440.5268475 555.076765)
5(151.6428646 230.913086 346.7009072 481.1303056 600.5227822)
5(171.9632931 258.2431218 383.0814635 526.4828284 651.7289762)
5(194.6015053 288.8973258 424.1502585 577.5687534 709.5886742)
5(220.2769035 323.5938961 470.4405774 635.0978983 774.9013506)
5(249.6313568 362.9850037 522.7623308 700.4924677 848.10109)
5(282.8869441 407.5627877 582.2257736 773.2529136 929.8834718)
5(321.1752981 458.1839104 648.8281977 854.4891687 1019.227874)
5(364.634809 515.0837559 722.7588857 943.5338682 1116.231196)
5(413.3861291 578.103377 804.314761 1039.720642 1219.324766)
5(468.8398341 647.9603335 892.7381703 1141.834689 1326.85184)
5(529.925003 723.5545918 986.4904595 1248.889919 1437.078344)
5(596.8008957 804.1291135 1085.232951 1358.766938 1547.034237)
5(669.3991099 890.2527516 1187.693267 1468.757935 1655.645306)
5(746.1984988 977.5508488 1290.525666 1578.061494 1758.829627)
5(827.5195875 1067.287237 1392.939237 1684.763072 1856.071075)
5(912.3210979 1158.50177 1493.816171 1785.331513 1947.387132)
5(998.4692771 1249.502764 1591.830148 1880.675251 2030.877211)
5(1085.921373 1337.925799 1685.914634 1971.726659 2107.150629)
5(1174.771935 1425.589389 1778.336563 2059.768639 2180.437603)
5(1263.91512 1512.668005 1871.492699 2144.581159 2245.702611)
5(1352.891769 1603.739754 1963.354599 2234.38843 2320.965908)
5(1447.113479 1697.728247 2064.26962 2335.307158 2399.246502)
5(1547.082427 1801.026882 2179.747559 2453.421647 2494.839538)
5(1655.416504 1923.500144 2324.244941 2599.475242 2614.778886)
5(1779.898962 2068.575606 2500.267165 2783.936713 2770.304132)
5(1925.852175 2246.639114 2717.743711 3014.106319 2951.917699)
5(2100.023228 2468.398314 2984.213879 3283.080247 3153.27121)
5(2308.603807 2730.648648 3300.229491 3588.81117 3361.747818)
5(2552.614922 3036.79419 3652.719913 3909.940003 3547.834434)
5(2830.131829 3372.336313 4025.079602 4205.060053 3679.270149)
5(3124.813923 3703.972445 4359.348326 4423.329532 3726.690471)
5(3425.532997 4004.343364 4611.689989 4519.361709 3656.909909)
5(3676.820622 4214.81224 4708.37304 4453.334705 3466.644362)
5(3850.589842 4275.332569 4611.713764 4203.643585 3139.865106)
5(3903.525112 4147.296217 4299.110237 3798.153305 2734.732817)
5(3789.763749 3811.930457 3794.635306 3272.558849 2307.613209)
5(3471.997172 3291.62884 3154.330247 2699.051937 1916.337071)
5(2971.391395 2630.598757 2476.873194 2176.449144 1554.19505)
5(2300.584187 1962.72606 1864.277548 1754.812254 1347.334265)
5(1564.865654 1271.32987 1398.314698 1451.048774 1201.795069)
5(873.1264457 766.7615723 1068.316486 1270.589557 1112.287742)
5(273.427671 430.0998389 894.3377739 1155.217371 1053.991803)
5(-114.5192338 226.0804202 770.4366513 1063.704386 958.056486)
5(-389.523735 119.453782 646.2789043 951.6434515 953.365191)
5(-568.4754653 -63.90497119 453.3363089 793.1944414 854.5863564)
5(-1298.813837 -811.8154944 -329.473229 282.0641172 600.8728882)
5(-1806.920325 -1605.803452 -1405.229898 -970.3645764 -603.5992661)
)


60
(
5(25.85609145 46.02562764 154.5443693 313.397297 629.4621372)
5(26.23941516 51.808656 128.3766369 257.6208407 458.1501525)
5(30.70939301 63.86205379 129.9903327 249.3037407 402.6572085)
5(37.62313294 77.09611273 145.934496 262.7741583 399.192422)
5(47.29424001 91.96639214 168.9122004 286.2954649 421.0968984)
5(58.80491657 108.7570101 194.2636831 313.9998415 449.1717617)
5(71.56222217 126.6352716 219.6330262 342.427372 475.9286837)
5(84.76893222 145.4640175 244.3841102 370.9845097 500.730089)
5(98.85866102 165.319415 269.7668027 400.5367076 527.8637008)
5(114.3774965 186.2127013 296.5177449 431.9795776 560.0912227)
5(131.1418487 208.6067825 325.689249 466.2602631 596.1114064)
5(149.2035355 232.5286825 356.9016663 503.4521361 636.6776342)
5(169.018215 258.4913023 391.0811829 544.1732478 681.4152874)
5(190.5636131 286.7316184 428.0590786 589.0929168 731.6025606)
5(214.2414878 318.0413327 469.2136839 639.5629943 788.2254277)
5(240.5610547 352.9732988 515.1623077 696.1901915 852.6732023)
5(270.0743721 392.3253651 567.2598309 760.4436447 925.3471884)
5(303.6750101 436.8074125 625.9250912 832.6848179 1007.391178)
5(341.9353662 487.2871987 692.5294256 914.3072976 1098.242553)
5(385.2330915 544.0494214 766.7692465 1004.443838 1198.851695)
5(434.459211 608.2093181 849.9587253 1104.125568 1307.015655)
5(490.1718084 679.1336669 940.5671581 1211.280172 1423.22946)
5(552.4446383 757.0924086 1039.420632 1325.855825 1543.100437)
5(621.8171218 842.0258148 1145.037711 1445.058924 1667.593514)
5(697.0468374 932.4127635 1254.629501 1567.86888 1791.854644)
5(778.3745793 1028.102854 1369.056666 1692.001955 1914.698292)
5(865.8479098 1126.660705 1484.075945 1813.751058 2032.941929)
5(958.0367671 1227.655063 1598.061043 1933.837069 2143.159197)
5(1050.464421 1328.702112 1710.868262 2047.164046 2246.441058)
5(1146.799176 1427.725567 1819.097799 2152.848286 2339.481449)
5(1245.150664 1527.612829 1923.509718 2253.464888 2425.633746)
5(1341.917058 1625.192075 2022.846586 2347.754969 2508.38181)
5(1437.441418 1718.162552 2119.019085 2439.919942 2580.13859)
5(1532.238012 1812.001446 2217.591254 2534.377179 2657.509365)
5(1629.349122 1908.329204 2324.105857 2635.358643 2746.043367)
5(1729.118397 2014.685228 2439.906365 2757.542227 2852.20121)
5(1834.972252 2133.365053 2578.299058 2911.820096 2982.920854)
5(1948.043869 2272.280734 2754.718707 3103.154125 3154.782784)
5(2078.454641 2441.633829 2975.115859 3345.973424 3373.021141)
5(2227.491954 2651.025154 3251.440971 3652.289425 3623.0319)
5(2405.525021 2906.390228 3589.947176 4010.439826 3903.520269)
5(2619.430071 3207.507321 3980.052515 4408.679875 4183.650946)
5(2873.702959 3546.13209 4403.672304 4811.763235 4430.489754)
5(3157.504021 3902.500827 4826.379318 5169.119496 4615.852734)
5(3462.808898 4239.339974 5193.459684 5416.11469 4670.685804)
5(3766.616749 4534.814346 5429.045319 5497.268986 4571.952928)
5(4037.608056 4721.185379 5463.332685 5359.976407 4286.359325)
5(4203.570959 4738.184224 5254.004551 4997.416548 3857.924584)
5(4247.580133 4541.929533 4779.983315 4418.467729 3299.787507)
5(4118.191061 4115.995049 4086.31951 3700.242899 2723.265098)
5(3744.738722 3472.838507 3252.682964 2932.580888 2198.312418)
5(3177.730812 2675.381865 2367.636622 2229.61915 1755.320126)
5(2454.579873 1812.750569 1598.461966 1660.825149 1466.16994)
5(1644.322264 1035.202105 948.1935127 1282.08763 1266.063362)
5(808.2549745 360.0732586 569.1488945 1066.727359 1168.692767)
5(21.90329254 -146.2497004 347.0100794 926.6535924 1128.870137)
5(-558.6140645 -452.3637803 174.9049127 796.9925093 1015.136685)
5(-1022.250386 -750.4071306 -78.49696381 577.1726196 873.4489441)
5(-2043.247951 -1694.563676 -1148.208309 -267.0918638 252.1128177)
5(-2789.208801 -2283.471591 -2104.679442 -2262.885825 -1271.907332)
)


60
(
5(35.05568562 65.97429244 212.7574713 437.5664539 842.3856777)
5(35.92737363 72.51745727 178.2593771 357.6926837 622.7346259)
5(41.88103772 87.48365664 179.0324919 340.6047592 545.6962493)
5(50.77268566 103.6891811 197.2342312 351.5417633 531.3990949)
5(62.92111674 121.5431089 223.3920036 375.2604079 548.1619645)
5(77.32297339 141.4978235 251.9084205 403.9597769 573.1518209)
5(92.66991243 162.6949423 280.4434724 433.8726903 597.6868652)
5(108.6466567 184.6950704 308.3630747 464.1446112 622.0684282)
5(125.4983828 207.6478468 336.8938981 495.7855138 649.2804723)
5(143.8165345 231.7042068 366.6590713 529.5139916 681.5791713)
5(163.4344693 257.1574455 398.8689784 566.2668748 719.2268631)
5(184.5528162 284.2128998 433.3396505 605.9161754 761.6025194)
5(206.9883642 313.3441958 470.8149536 649.9682631 809.6468971)
5(231.4222759 344.9187365 511.3473533 698.353083 863.0748689)
5(258.2840549 379.7715402 556.6441412 753.1179186 924.2954059)
5(287.8636618 418.5384943 606.8820987 814.1629941 993.891874)
5(321.5934158 462.1980373 664.1417366 884.1658422 1072.978372)
5(358.7595537 511.4592475 728.4993991 962.3565094 1162.455954)
5(402.0033162 567.0768306 801.514574 1051.49726 1262.083649)
5(450.2884607 630.1032438 883.217982 1149.699232 1372.027527)
5(505.177655 700.5452743 974.1971103 1259.225237 1490.964637)
5(567.6315743 779.5705052 1074.531327 1376.675062 1618.721851)
5(636.5467894 866.0818771 1183.343367 1502.845017 1752.966923)
5(714.8744338 959.9203221 1299.342779 1634.873848 1891.037887)
5(798.7318232 1061.150185 1422.09884 1770.820627 2030.004802)
5(890.1955183 1166.72664 1547.971174 1909.257538 2167.129498)
5(988.2260536 1277.508623 1677.184568 2046.487706 2301.60239)
5(1089.849032 1390.601569 1805.485377 2179.201215 2427.370439)
5(1196.661695 1504.280648 1930.566367 2307.413584 2547.351515)
5(1305.979669 1618.592838 2054.0221 2430.400281 2655.696027)
5(1415.228244 1728.669764 2170.076686 2542.207479 2755.023035)
5(1524.291432 1837.144102 2281.770492 2647.574696 2844.037648)
5(1632.939612 1943.67924 2390.31117 2752.358141 2927.681327)
5(1739.797568 2045.945543 2496.91121 2852.606229 3015.481336)
5(1842.650142 2149.38986 2608.049221 2963.008901 3107.365656)
5(1946.066597 2258.103384 2731.397178 3089.282393 3217.085943)
5(2049.160048 2374.986379 2871.303969 3244.440049 3365.933476)
5(2157.146342 2509.4899 3048.221848 3440.424301 3551.492314)
5(2271.800463 2668.233117 3266.568344 3692.889041 3788.537849)
5(2402.816725 2860.424431 3540.656085 4017.566812 4072.226734)
5(2551.130457 3096.261553 3883.441153 4407.802039 4413.212081)
5(2729.022862 3375.514518 4287.081584 4860.275996 4776.58347)