/*--------------------------------*- C++ -*----------------------------------*\
| =========                 |                                                 |
| \\      /  F ield         | OpenFOAM: The Open Source CFD Toolbox           |
|  \\    /   O peration     | Version:  2.3.1                                 |
|   \\  /    A nd           | Web:      www.OpenFOAM.org                      |
|    \\/     M anipulation  |                                                 |
\*---------------------------------------------------------------------------*/
FoamFile
{
    version     2.0;
    format      ascii;
    class       dictionary;
    location    "constant";
    object      rETA2;
}
// * * * * * * * * * * * * * * * * * * * * * * * * * * * * * * * * * * * * * //

rETA2_table
60
(

60
(
5(12.65479586 2.974425038 28.72371741 17.84762288 67.44908126)
5(0.7846214612 0.4415786625 5.258928905 4.098258825 -10.11640538)
5(14.39528027 0.7589659745 1.52104503 0.8886234301 0.0057339332)
5(-96.75085175 0.7274316561 1.516405286 0.2686246541 1.204592442)
5(-96.44400936 0.6340519984 1.425094489 0.8542384253 0.9106510883)
5(-31.15243433 0.5785732849 0.40747919 0.8861062782 0.587687821)
5(0.6160352249 0.5447229581 0.4775927111 0.5522290061 1.327797378)
5(0.337603904 0.586828214 0.9327437298 0.8253032164 0.4168237597)
5(4.299123935 0.7330039053 0.8948612506 1.057185404 0.8272587591)
5(18.08571152 0.6278321447 1.465498296 1.170566672 1.20533383)
5(25.45417949 0.8477047326 1.903008529 1.474743995 1.572493118)
5(5.357664058 1.365928397 1.879249146 1.809613919 1.669050465)
5(0.9596782344 1.70574746 2.088795064 2.500709411 2.282220328)
5(1.417510652 2.153873889 2.674721141 2.706793167 2.641340933)
5(1.509785633 2.470292183 3.063361656 3.563241268 3.292655521)
5(2.51010927 3.854216935 4.134947875 4.641582825 4.160210297)
5(3.103744374 4.400077598 5.17735743 5.472862201 5.278494866)
5(3.079403152 4.853212247 5.589711727 6.661211779 6.53997538)
5(3.130509844 5.181074376 6.502795693 7.604826451 8.219331905)
5(3.786660918 5.925639139 7.790337598 9.3620095 9.286298988)
5(4.246424376 6.422871229 8.301886954 10.34229075 9.629453318)
5(4.724299634 6.805798379 9.477223507 9.482254537 8.981366264)
5(5.334480317 7.256053176 9.750510397 10.30417112 9.609370354)
5(5.423217058 7.61866721 9.68022406 10.24623482 9.297564751)
5(5.684778092 8.250404882 9.265786678 9.624050668 8.567307822)
5(5.438740532 8.969596524 8.545862741 8.51948105 7.169208556)
5(4.772036619 7.34346821 6.771238767 6.194687763 4.983486698)
5(3.678826254 3.619768513 4.190932681 3.441874372 2.407802569)
5(2.035580426 1.268217834 1.736433168 0.3077110556 -0.7711925177)
5(-0.1981598926 -2.003216619 -1.496137769 -3.104549099 -4.123721715)
5(-3.301980752 -5.862329205 -6.092654254 -7.339136743 -6.644124186)
5(-6.548364768 -9.424653496 -9.077853871 -8.31088595 -6.868226001)
5(-10.51513305 -14.69514957 -14.76519119 -13.07459343 -14.40471892)
5(-15.51468461 -20.59940922 -20.4790762 -14.30478406 -9.211842504)
5(-20.67076143 -25.26564162 -24.58243867 -17.3005087 -19.86770315)
5(-26.42467083 -33.20543636 -32.07520215 -18.53649085 -24.33958467)
5(-30.82551195 -31.19654232 -23.76042832 -17.95891505 -12.37018734)
5(-36.45563437 -38.57008833 -28.12402391 -19.0324497 -7.750070079)
5(-42.2384646 -40.18335296 -33.67334283 -20.11691712 -12.26595241)
5(-49.43481322 -43.45670614 -37.13621786 -13.04913993 -4.454011897)
5(-49.79609347 -40.44599503 -29.83410219 -17.99533803 -5.858607209)
5(-50.21539861 -41.79055696 -27.01515401 -70.26649741 -0.001672043151)
5(-52.09864746 -40.19757951 -22.5841202 0.004720656128 -0.02810385078)
5(-58.8698498 -51.53287052 -39.54905332 -0.007354414396 4.806133297)
5(-63.12902193 -51.76514194 -25.27621361 -0.01054515816 0.7007837475)
5(-65.45382213 -52.7878383 -10.59971006 -0.02308234147 -0.06392536301)
5(-66.18776813 -21.25715288 -3.998699919 0.7825255666 -0.07676636591)
5(-34.59452845 -14.43291095 6.378311028 -0.03087476102 -0.09448539641)
5(-57.28948563 -10.64031958 0.5559230687 -0.02700079995 -0.09132302226)
5(-23.18927548 1.639883771 0.006770111491 -0.04346881468 -0.0916421439)
5(23.61076218 0.003164424308 -0.0549898415 -0.04877909677 -0.01078872409)
5(109.1383568 -0.007442536034 -0.02753193444 -0.09474830665 -0.09145568294)
5(28.50496458 0.2462766907 -0.06571272084 -0.1450054474 -0.1098978136)
5(-0.02663973888 0.1079798528 0.0567923239 0.04421237161 0.04675435608)
5(0.01980976128 0.2290093892 -0.03819933089 -0.1389700497 -0.105265589)
5(99.3417238 0.04634589377 -0.1075552021 0.08698865891 -0.1750962996)
5(469.8886233 0.01411100428 -0.07771894673 -0.1065545301 -0.3179856267)
5(889.7134915 207.7344792 0.1205661874 0.215044775 0.17210278)
5(1034.276366 521.0383452 218.7130341 -1.181175906 -34.6908547)
5(-1.147357358 -1.770268699 -2.010799335 -2.538575923 -3.050526429)
)


60
(
5(23.61922436 17.95352946 63.64221549 57.10225955 155.7364234)
5(9.551983521 9.928984455 24.3534622 27.85204768 49.23118121)
5(4.835190323 7.555259127 13.58863396 17.26159229 18.86962854)
5(3.71773206 5.838664579 9.648016077 12.72210327 15.11114581)
5(3.416953372 4.750056032 7.512461141 10.66295585 10.79073151)
5(2.826661966 4.130941439 7.242861316 9.363008452 9.074564994)
5(2.113482323 3.833940561 6.92204204 9.102219237 7.68337865)
5(2.323355497 3.684377591 6.485355269 9.056481119 9.559629347)
5(2.348967801 3.609222576 6.544268028 9.141284814 8.654322841)
5(2.722547606 3.761645611 6.284031573 9.903224314 7.748603078)
5(2.896152978 4.32751176 6.875899709 11.21794013 7.94710472)
5(2.868840719 5.154842989 8.588876906 13.34555666 10.13400549)
5(3.14292536 6.333328026 10.78615946 15.85662608 12.54983045)
5(3.617989039 7.765310999 13.19995083 19.86544637 16.44415776)
5(4.777707101 9.537770635 16.03824213 23.52171689 20.37729392)
5(5.823623963 11.23358846 18.75845736 27.33539745 24.00068325)
5(6.541098498 12.42352599 21.34147318 30.68210362 26.49540944)
5(6.707437651 12.71555646 22.81563571 32.19826754 27.43880487)
5(6.127373322 11.14877766 22.36770674 31.46822833 25.22379868)
5(3.585660921 6.338664575 18.15438959 25.32418642 18.34973051)
5(-1.025041513 -1.11889063 10.44400139 14.46845218 4.109811297)
5(-9.429348071 -14.2789515 -4.799770284 -1.411279215 -17.19143383)
5(-23.38996939 -35.07295336 -28.10311773 -32.18269357 -54.18769381)
5(-42.30187122 -65.83869322 -61.87374467 -73.23364285 -101.3088464)
5(-70.76437954 -106.3793091 -109.5710495 -130.7100328 -164.8109253)
5(-108.2733013 -159.1140257 -174.0573358 -204.3613722 -240.3621011)
5(-158.1309517 -225.8542441 -248.0764432 -292.1869725 -330.6962942)
5(-220.8703003 -309.7102472 -344.789364 -394.6488844 -434.7644749)
5(-303.1630358 -411.7043833 -453.0282427 -508.6461619 -549.6027262)
5(-399.8206602 -533.2108134 -578.0791158 -628.8769149 -668.0227291)
5(-517.8745375 -672.7128121 -724.7793424 -771.8774012 -794.1273829)
5(-652.9961603 -823.0540779 -872.24992 -899.8938629 -889.9201246)
5(-805.792442 -992.7974594 -1037.1573 -1038.178268 -1026.139072)
5(-979.2718892 -1175.287715 -1210.203378 -1164.098706 -1092.028264)
5(-1170.99243 -1355.813714 -1365.257481 -1279.572607 -1167.493208)
5(-1369.967337 -1551.070093 -1541.613553 -1378.853897 -1221.638179)
5(-1577.330165 -1702.07474 -1621.979863 -1429.608301 -1256.133409)
5(-1777.153171 -1868.676155 -1718.750273 -1480.862291 -1190.459401)
5(-1969.663817 -1991.126972 -1797.624755 -1478.445574 -1213.357672)
5(-2157.174675 -2092.456027 -1849.667205 -1461.144288 -953.8830453)
5(-2290.766183 -2131.409072 -1817.221822 -1393.535721 -871.6510917)
5(-2383.395282 -2157.83057 -1781.713939 -1232.3718 -782.6371161)
5(-2444.394033 -2130.668183 -1719.063921 -998.1125831 -713.7020222)
5(-2471.306599 -2118.417874 -1745.406164 -924.0470048 -668.7003603)
5(-2478.300739 -2088.425942 -1645.750428 -851.2298931 -621.2823832)
5(-2435.887109 -2059.185595 -1520.922206 -791.1447049 -578.2036981)
5(-2382.706862 -1985.209984 -1210.660916 -736.885154 -532.1329946)
5(-2298.366088 -1811.264162 -1048.925871 -681.0427026 -483.4273791)
5(-2235.614895 -1727.205468 -939.4427667 -623.3495457 -447.547974)
5(-2046.337782 -1291.35432 -837.7902599 -572.554066 -415.9489663)
5(-1825.214505 -1104.436449 -746.7185133 -529.952693 -388.6517895)
5(-1320.344581 -940.0831626 -663.1230075 -505.6334848 -391.82498)
5(-1089.452169 -828.8240057 -615.3201104 -489.3439575 -360.6496992)
5(-933.9619726 -719.0573896 -590.9669671 -495.5378933 -415.0704068)
5(-773.3404848 -705.859862 -583.0318004 -521.8634704 -445.2910395)
5(-741.3756874 -679.6563035 -590.386053 -555.9250736 -495.5803464)
5(-729.2489309 -677.7092672 -628.0815948 -605.4431581 -539.8446564)
5(-832.3570244 -707.4471602 -659.6263195 -650.8341399 -633.0389319)
5(-395.4584969 -667.9469201 -807.3868533 -695.2957961 -680.7970275)
5(-550.7720737 -610.3060679 59.02818987 -684.3959342 -890.4204683)
)


60
(
5(36.11637465 31.90738604 102.9483916 106.3634859 262.0746561)
5(16.33973363 18.16933866 49.64667923 58.76503992 116.8598555)
5(7.950570345 10.14812797 26.14972927 33.2715804 53.32287336)
5(2.826613412 3.889706354 12.46458439 16.71574624 20.8303628)
5(-1.383541468 -1.949826566 1.801740063 3.489834086 -4.660218686)
5(-5.100730649 -7.238178975 -6.371612771 -6.938734998 -23.64498853)
5(-8.179917825 -12.1486777 -12.07546488 -15.23832455 -32.811959)
5(-11.3798975 -17.10091035 -17.4627847 -23.04782985 -40.60240859)
5(-15.02765917 -22.25325839 -23.80466308 -31.51991651 -52.11518582)
5(-19.45678068 -27.97064285 -31.61352605 -41.31604606 -66.72450643)
5(-24.14397398 -34.30353203 -39.94417806 -51.07944122 -81.09669525)
5(-29.63749983 -41.17636249 -48.4420647 -60.43502766 -94.26703977)
5(-35.32192848 -48.78432798 -56.93507023 -69.55960042 -104.9517342)
5(-41.84102123 -57.45473097 -66.06507022 -79.33889554 -115.2952371)
5(-49.83510328 -67.83442549 -76.82252834 -90.45995337 -127.3722138)
5(-60.29756393 -81.15242432 -90.62524087 -104.8087125 -142.7486326)
5(-72.96281916 -98.32688522 -108.8278075 -124.0625296 -163.441153)
5(-89.60019618 -121.3246564 -133.2397613 -151.0122215 -192.7390489)
5(-112.2998862 -151.9861455 -166.6897239 -188.8825295 -235.2460238)
5(-142.3778198 -193.6424337 -212.6653695 -242.3328417 -295.0731641)
5(-183.6779779 -249.7593644 -275.5843817 -314.7554327 -376.1749028)
5(-238.4196121 -323.8403389 -359.8426146 -412.9843555 -485.4224362)
5(-310.3755484 -421.2461055 -471.7383417 -540.7743366 -626.8072786)
5(-404.8525839 -547.3021042 -616.0774097 -702.2123152 -803.9482268)
5(-526.2404724 -706.5111421 -796.9643647 -905.445103 -1018.436546)
5(-680.094941 -903.4230428 -1021.954598 -1151.48988 -1274.178987)
5(-870.757746 -1142.75565 -1292.291088 -1441.690125 -1568.260157)
5(-1106.304675 -1431.194578 -1610.557368 -1773.488511 -1895.543181)
5(-1386.598742 -1767.189335 -1976.710101 -2144.647675 -2257.928848)
5(-1721.180702 -2154.509616 -2390.056749 -2551.856915 -2636.244393)
5(-2108.774327 -2591.656811 -2844.13668 -2984.130238 -3030.869763)
5(-2552.906051 -3073.46287 -3332.573713 -3433.050391 -3415.840513)
5(-3052.239613 -3597.659191 -3845.733455 -3880.776661 -3780.116552)
5(-3604.924928 -4153.91446 -4364.440607 -4310.142117 -4102.630702)
5(-4200.269575 -4725.002558 -4874.680739 -4702.000832 -4372.780951)
5(-4837.796601 -5297.942637 -5356.373593 -5036.517712 -4569.599152)
5(-5486.109705 -5846.232231 -5782.345953 -5291.963475 -4698.596674)
5(-6130.703009 -6352.911189 -6128.407605 -5459.769434 -4730.880412)
5(-6749.568021 -6783.708181 -6376.666968 -5523.114515 -4634.30739)
5(-7310.281908 -7129.326702 -6514.80834 -5470.652682 -4401.834258)
5(-7791.540794 -7363.421435 -6539.146028 -5307.474736 -4059.260564)
5(-8169.93184 -7499.665654 -6470.066924 -5044.295421 -3689.620005)
5(-8434.228495 -7522.274246 -6329.561255 -4703.117015 -3356.530094)
5(-8588.040193 -7456.860882 -6136.38112 -4335.46321 -3084.65349)
5(-8627.872089 -7337.270013 -5886.761375 -3996.277342 -2865.997564)
5(-8595.416273 -7208.068392 -5594.409264 -3699.856605 -2663.20282)
5(-8505.412022 -7035.300183 -5237.891501 -3453.882071 -2456.960838)
5(-8335.228649 -6769.533391 -4850.084483 -3209.907907 -2254.071148)
5(-8061.4875 -6359.033055 -4437.190142 -2943.519632 -2052.333965)
5(-7641.492825 -5843.402075 -4011.188525 -2667.197372 -1865.204883)
5(-7046.213577 -5185.569588 -3571.581098 -2400.746921 -1717.040894)
5(-6287.883332 -4502.738091 -3155.271972 -2168.071596 -1588.257679)
5(-5419.112318 -3891.759734 -2787.614483 -1976.45439 -1517.972635)
5(-4471.493225 -3385.583861 -2491.756561 -1858.670467 -1408.170318)
5(-3816.340452 -2942.329979 -2273.992411 -1802.383911 -1474.254616)
5(-3091.572675 -2647.010197 -2126.039854 -1776.912705 -1508.762434)
5(-2684.563158 -2412.5066 -2014.085234 -1796.94463 -1595.699545)
5(-2350.692317 -2224.741149 -1976.799653 -1825.809971 -1702.844675)
5(-2226.463784 -2120.038573 -1999.524787 -1918.515998 -1772.516465)
5(-2271.664739 -2153.585554 -1792.416943 -2279.615084 -2054.775871)
)


60
(
5(46.31398093 41.4028099 133.247944 146.3055086 347.7842608)
5(19.6061844 19.40125517 66.54778345 78.18009025 171.9460722)
5(5.976150526 4.957885731 27.43088297 32.77906766 61.99773923)
5(-3.990328937 -7.980890568 -0.4135085486 -1.510855376 -6.17455589)
5(-13.55071549 -21.25392975 -24.34306739 -31.38476203 -63.24274216)
5(-22.38487213 -34.11466459 -43.6680078 -57.16609638 -106.4462317)
5(-30.31558835 -46.67070728 -59.16546203 -79.42223539 -131.9127618)
5(-38.8670799 -60.01144521 -74.77447112 -101.7023107 -154.9973996)
5(-49.13433929 -74.75755256 -93.42880973 -126.4972164 -184.8458387)
5(-61.33072418 -91.27823162 -115.5364283 -153.8396156 -221.1796029)
5(-74.83373047 -109.6016644 -139.8095075 -182.0012939 -256.7683648)
5(-90.0181995 -129.9231298 -165.1543214 -210.2954208 -289.3655754)
5(-107.2801367 -152.7452793 -191.7766206 -238.971405 -318.4358929)
5(-126.9618044 -178.4362436 -220.5172051 -268.6744108 -347.1057515)
5(-150.0607035 -208.3556204 -253.4481686 -301.6446556 -379.765351)
5(-177.5397933 -243.9062418 -291.9505835 -341.1381789 -418.317877)
5(-212.0614506 -287.1418775 -338.624066 -389.7361603 -467.5046416)
5(-253.6415395 -340.8992206 -396.6408299 -452.2664302 -531.3412713)
5(-306.7419906 -408.7902136 -471.3942155 -533.3438797 -617.4310912)
5(-373.2243176 -495.0242678 -567.3377859 -640.6748322 -732.6223679)
5(-457.9022359 -606.1733839 -692.1490872 -780.2131353 -883.1667025)
5(-568.4897688 -747.7575554 -851.4982668 -958.3623062 -1079.374124)
5(-707.8027498 -926.6617116 -1055.949508 -1187.760702 -1326.706489)
5(-882.2422768 -1150.936752 -1312.713547 -1472.507404 -1633.390369)
5(-1101.692858 -1429.514595 -1630.848082 -1820.86562 -2000.215744)
5(-1374.677401 -1770.166868 -2014.932841 -2238.435939 -2430.42879)
5(-1707.762651 -2175.905239 -2472.609279 -2726.979273 -2927.299351)
5(-2108.032837 -2660.110059 -3009.427605 -3288.054858 -3483.367066)
5(-2589.72463 -3222.631187 -3623.547493 -3913.781404 -4098.049983)
5(-3151.683392 -3868.15001 -4317.84716 -4607.815867 -4753.061244)
5(-3804.163732 -4599.634909 -5085.146449 -5349.623828 -5441.013692)
5(-4547.684166 -5408.198557 -5914.244067 -6131.058282 -6137.825959)
5(-5384.258864 -6289.620287 -6800.272181 -6928.859829 -6811.212324)
5(-6309.281338 -7241.449627 -7710.740793 -7719.094441 -7442.676712)
5(-7317.927074 -8231.684162 -8625.072246 -8469.671856 -8003.770579)
5(-8385.650234 -9245.945463 -9520.636596 -9152.648044 -8472.636221)
5(-9508.113095 -10250.46785 -10355.40681 -9735.146831 -8822.984164)
5(-10651.57728 -11216.59873 -11096.69508 -10183.49082 -9029.959257)
5(-11774.78494 -12101.61714 -11696.74661 -10470.38983 -9019.562567)
5(-12843.66252 -12864.40317 -12131.5088 -10565.00516 -8772.67537)
5(-13805.64732 -13483.68193 -12389.9212 -10458.1445 -8316.556774)
5(-14639.17896 -13936.34518 -12464.87035 -10149.10198 -7752.361035)
5(-15292.53366 -14200.85448 -12386.03083 -9663.300195 -7183.190518)
5(-15750.59449 -14293.46175 -12166.38252 -9073.693552 -6677.134494)
5(-16014.10264 -14237.84116 -11812.96915 -8484.928001 -6234.446831)
5(-16087.42901 -14076.42628 -11331.41103 -7950.850271 -5843.530935)
5(-16010.56192 -13811.07051 -10767.76479 -7478.345854 -5448.526013)
5(-15785.48476 -13408.80036 -10109.94444 -7030.323543 -5045.990682)
5(-15348.75129 -12806.71482 -9430.045898 -6539.750764 -4654.816371)
5(-14809.88663 -11961.03617 -8692.882683 -6003.348606 -4227.111419)
5(-13940.11289 -10873.75409 -7844.983311 -5412.724337 -3817.690561)
5(-12707.37527 -9671.864425 -6963.743116 -4876.811824 -3536.083912)
5(-11313.46063 -8433.204513 -6106.556057 -4380.08448 -3236.173058)
5(-9681.354091 -7259.194135 -5341.348114 -3977.789347 -3004.760046)
5(-8246.173904 -6203.277204 -4722.761719 -3695.242881 -2905.202962)
5(-6670.525217 -5404.746158 -4283.290857 -3471.239894 -2910.814265)
5(-5759.314571 -4748.117093 -3967.85917 -3419.827156 -2937.687649)
5(-5119.225924 -4371.631735 -3754.678919 -3366.022371 -3021.080955)
5(-4713.60862 -4251.797518 -3791.566095 -3340.166406 -3160.050878)
5(-4314.720328 -7344.796293 -4269.309683 1196.651803 1440.141161)
)


60
(
5(52.90315161 42.92676459 145.5574162 163.2427159 389.2555847)
5(18.12593823 11.5663015 69.18951634 75.8379796 194.6607679)
5(-1.775504529 -10.62033202 11.94395565 7.293325034 33.2934538)
5(-18.41082284 -32.42384776 -34.24084571 -49.7711854 -79.3584476)
5(-35.12730474 -56.14758959 -75.66165506 -102.3267844 -176.8390986)
5(-51.19952519 -79.73172896 -110.4059113 -149.2720301 -250.6673028)
5(-66.17069838 -103.4052749 -140.2508472 -191.0427111 -297.7971906)
5(-82.90644922 -129.0288506 -171.2181578 -233.8190148 -341.4319615)
5(-102.7121405 -157.2627159 -207.4449985 -280.7356607 -395.1020025)
5(-125.841761 -189.0512031 -249.7388877 -331.7597055 -456.5658981)
5(-152.2151975 -224.368074 -295.6813435 -383.9102379 -517.2801735)
5(-181.5358599 -263.2064158 -343.7050535 -435.9532923 -572.1958312)
5(-214.110631 -306.2904844 -393.4420633 -488.2270739 -622.6640967)
5(-251.9275274 -354.4143581 -446.9241373 -543.1012709 -671.343569)
5(-295.4639226 -408.8393363 -506.5566759 -602.3780839 -726.4271629)
5(-346.1148053 -471.7759539 -575.2098496 -670.5960209 -790.5890174)
5(-406.4184834 -546.1546897 -655.9711388 -751.9250789 -871.023474)
5(-479.272799 -635.9293094 -752.3866074 -851.9063874 -972.5870995)
5(-567.0252532 -745.4334358 -872.0809265 -980.9457954 -1103.752996)
5(-676.1967304 -880.9454789 -1022.23362 -1143.134681 -1276.259831)
5(-811.4182059 -1050.079769 -1212.20356 -1351.701364 -1498.781421)
5(-978.3352684 -1261.662841 -1450.620765 -1614.748583 -1781.876659)
5(-1187.810111 -1523.77488 -1749.541066 -1945.433478 -2138.405675)
5(-1449.98362 -1847.689031 -2118.878848 -2354.162679 -2574.61197)
5(-1771.062879 -2243.778744 -2572.691052 -2849.433504 -3099.609653)
5(-2162.517338 -2724.751511 -3119.017455 -3439.364613 -3711.441271)
5(-2639.873171 -3299.958096 -3765.819223 -4129.718717 -4417.422295)
5(-3209.7907 -3976.178446 -4520.553376 -4922.470629 -5216.47738)
5(-3884.201399 -4762.75184 -5387.128901 -5813.893421 -6096.07705)
5(-4672.924169 -5665.756973 -6366.395631 -6802.8848 -7054.168614)
5(-5586.349696 -6689.269348 -7454.553534 -7878.145934 -8064.495285)
5(-6627.194556 -7830.8253 -8637.86907 -9020.368185 -9116.519679)
5(-7797.878107 -9082.712695 -9918.175502 -10211.95027 -10163.95672)
5(-9094.376364 -10434.44647 -11259.20429 -11418.54477 -11187.09231)
5(-10518.21306 -11872.03784 -12637.82577 -12608.78644 -12134.28653)
5(-12050.58751 -13371.97399 -14018.96552 -13746.02352 -12992.6498)
5(-13670.95674 -14892.4046 -15350.10279 -14780.34137 -13710.716)
5(-15346.87887 -16399.08611 -16603.75597 -15662.47427 -14230.54733)
5(-17036.56011 -17842.56438 -17709.792 -16342.41961 -14490.12077)
5(-18687.96773 -19166.96889 -18623.1953 -16781.92164 -14395.40258)
5(-20245.54413 -20329.52921 -19307.83854 -16929.08286 -13985.47461)
5(-21643.61202 -21275.50239 -19735.17511 -16760.96748 -13348.60591)
5(-22834.18896 -21972.90093 -19907.60036 -16303.88524 -12618.78453)
5(-23753.06963 -22406.40475 -19833.19579 -15613.24886 -11893.69443)
5(-24382.79877 -22584.22823 -19523.97261 -14834.09771 -11213.89788)
5(-24729.29049 -22532.14114 -18971.94429 -14065.90422 -10556.42795)
5(-24811.39935 -22275.67001 -18237.98906 -13344.53774 -9919.720542)
5(-24641.29383 -21806.78044 -17388.58799 -12646.46744 -9287.283394)
5(-24220.37683 -21088.05453 -16425.41927 -11911.67585 -8627.667169)
5(-23608.19359 -20041.74213 -15349.8747 -11034.42835 -7941.906367)
5(-22659.37165 -18670.07275 -14081.50829 -10068.6474 -7242.657558)
5(-21361.64936 -17029.43721 -12633.20288 -9034.841854 -6553.62749)
5(-19692.70207 -15131.67386 -11103.3023 -8040.986052 -5817.428878)
5(-17584.41752 -13140.28469 -9649.4605 -7170.363116 -5444.782223)
5(-15256.96705 -11224.72016 -8364.603794 -6455.900257 -5073.353537)
5(-12910.27623 -9578.051572 -7320.011383 -5933.623515 -4805.446934)
5(-10879.30957 -8249.714366 -6638.560203 -5585.905149 -4718.881138)
5(-9364.60296 -7399.252576 -6110.068137 -5372.744063 -4706.53913)
5(-8289.220561 -6871.786902 -5920.369884 -5359.231447 -4702.78134)
5(-7133.402879 -6460.557144 -5936.704944 -5567.069696 -5252.342916)
)


60
(
5(53.74247184 31.16062749 128.9330861 139.3843614 362.0089175)
5(9.93467395 -9.751938659 49.28254117 38.88690788 164.1942358)
5(-16.73034208 -40.28326424 -26.97167232 -53.38058823 -47.4585561)
5(-41.79197676 -72.43964186 -94.82639784 -136.5577441 -212.0986443)
5(-68.21558784 -109.3869929 -157.5532332 -216.382217 -355.9846921)
5(-93.76430484 -146.8874141 -211.5121335 -289.4443353 -464.179991)
5(-118.2064865 -184.8918653 -259.6949823 -355.4601206 -535.7137204)
5(-145.4450916 -226.4527519 -309.9909984 -423.0676943 -602.3455462)
5(-177.9537983 -272.2445923 -368.4505275 -496.4952173 -682.0087436)
5(-215.5385501 -323.1794778 -435.4770037 -574.99733 -772.0437323)
5(-258.1241955 -379.5491157 -507.6417777 -654.964877 -858.6528844)
5(-304.8273338 -440.9964104 -582.3954517 -734.2023263 -937.6186845)
5(-357.4732929 -508.1008348 -659.5141944 -812.9285991 -1009.43203)
5(-416.213268 -582.2456778 -741.0620573 -894.7693159 -1080.978996)
5(-484.3468776 -665.1304192 -830.7193257 -982.4689397 -1158.455329)
5(-562.2634372 -759.2050588 -931.454637 -1081.332044 -1248.790831)
5(-652.7519987 -867.8603228 -1047.930811 -1196.751841 -1359.93474)
5(-759.4662595 -995.6159883 -1186.168637 -1336.889627 -1499.035469)
5(-887.0320269 -1149.011122 -1352.632842 -1512.275595 -1677.394348)
5(-1040.474119 -1335.077598 -1557.784661 -1731.43051 -1906.839146)
5(-1228.599947 -1563.081295 -1812.929731 -2006.880831 -2200.362937)
5(-1457.663808 -1843.969184 -2129.307245 -2353.267529 -2572.374246)
5(-1738.670596 -2188.097444 -2520.439159 -2782.445693 -3035.518685)
5(-2085.049044 -2609.195228 -3001.857962 -3309.025913 -3598.386497)
5(-2505.742998 -3120.448278 -3586.589101 -3947.200763 -4275.136901)
5(-3015.162397 -3734.058382 -4286.194303 -4708.141102 -5068.124878)
5(-3631.462791 -4468.29825 -5115.000779 -5595.217974 -5986.054443)
5(-4363.481231 -5330.557444 -6081.749383 -6612.15721 -7025.38327)
5(-5224.097337 -6331.461824 -7192.501323 -7768.16621 -8184.411988)
5(-6230.337704 -7481.351533 -8449.525581 -9055.590532 -9452.095659)
5(-7393.579592 -8787.238459 -9854.237357 -10465.55949 -10813.23181)
5(-8717.025376 -10248.75043 -11399.55004 -11983.00838 -12238.85171)
5(-10210.10513 -11866.16895 -13070.4577 -13591.61142 -13708.21452)
5(-11876.7284 -13622.10885 -14856.99834 -15253.70041 -15161.29516)
5(-13702.821 -15509.60007 -16718.80497 -16934.32354 -16586.06875)
5(-15687.29918 -17503.23408 -18628.41041 -18588.1283 -17921.98701)
5(-17803.74854 -19560.53225 -20526.71325 -20162.33186 -19128.61478)
5(-20021.31605 -21649.89988 -22367.14901 -21598.77928 -20121.85902)
5(-22293.58088 -23716.92547 -24085.5203 -22825.04084 -20804.31489)
5(-24563.09575 -25686.32685 -25609.14194 -23778.6476 -21073.05953)
5(-26758.54864 -27500.91569 -26879.81962 -24383.43532 -20904.32693)
5(-28802.51809 -29079.38641 -27853.97907 -24586.07627 -20390.78384)
5(-30605.37578 -30362.54088 -28480.60471 -24362.13986 -19668.48014)
5(-32111.15065 -31313.98384 -28760.99376 -23779.43914 -18845.9023)
5(-33248.37422 -31902.81935 -28657.70829 -22966.99269 -17984.03878)
5(-34030.67401 -32149.71589 -28209.99765 -22058.71501 -17097.10544)
5(-34440.16853 -32089.48731 -27440.34138 -21150.91476 -16193.70377)
5(-34482.74542 -31698.45215 -26442.38157 -20214.28993 -15284.40871)
5(-34202.99193 -30987.49858 -25326.25765 -19208.10178 -14347.09353)
5(-33664.06427 -29907.11714 -24020.77139 -18059.72942 -13328.22525)
5(-32803.22071 -28469.03824 -22440.28129 -16677.95444 -12168.26215)
5(-31650.48744 -26593.64559 -20531.62923 -15106.61313 -11031.67272)
5(-30128.46791 -24471.53333 -18300.67777 -13453.52117 -9892.224556)
5(-28037.49352 -21926.18238 -15978.87144 -11783.41669 -8887.31197)
5(-25510.32659 -19168.92139 -13736.00325 -10382.26482 -8051.387957)
5(-22511.50109 -16496.38547 -11834.79442 -9233.637806 -7257.083356)
5(-19551.19008 -14069.62426 -10308.76075 -8386.51179 -7053.781239)
5(-16667.70901 -12264.29556 -9242.244946 -7761.395091 -6758.102928)
5(-14522.79725 -10916.74193 -8648.82533 -7506.057852 -6577.057315)
5(-12151.27722 -10038.37048 -8986.748312 -7564.168453 -6964.101482)
)


60
(
5(45.86477794 -0.8066466953 69.94141846 55.69297495 240.5202725)
5(-7.663872847 -50.12540289 -3.098323189 -46.44361492 61.26128598)
5(-42.09728977 -88.06067594 -96.73568545 -159.9910128 -196.4883499)
5(-76.60200966 -131.9032488 -188.5181575 -270.5483111 -409.5453437)
5(-115.2018875 -185.0527338 -275.6972724 -380.3186572 -604.0548856)
5(-152.3733324 -239.4480804 -352.14213 -482.8563403 -749.5692195)
5(-188.6604172 -294.7867772 -421.8600452 -576.4685336 -846.1978705)
5(-229.3022106 -355.8048833 -495.3014367 -672.4756251 -937.5337878)
5(-277.2766376 -422.6233366 -579.30142 -775.5142859 -1045.401374)
5(-332.6993837 -496.5448935 -675.169237 -884.6015404 -1164.687725)
5(-394.468158 -577.1804331 -776.3778548 -993.8336398 -1278.060342)
5(-462.4343072 -664.6268528 -880.9032083 -1102.08244 -1380.619396)
5(-538.0469203 -759.210084 -987.5512779 -1208.739271 -1474.081148)
5(-622.5063277 -862.3457282 -1099.617256 -1318.28229 -1567.007216)
5(-717.7906451 -975.9438963 -1220.76878 -1435.033564 -1667.844456)
5(-825.4034579 -1103.279204 -1355.855371 -1564.896329 -1784.571576)
5(-949.8864876 -1248.065089 -1509.180989 -1714.881071 -1925.066084)
5(-1092.527737 -1416.025622 -1688.045801 -1894.983114 -2100.811689)
5(-1263.271847 -1614.274398 -1901.634953 -2114.895408 -2323.284139)
5(-1463.058717 -1851.572613 -2161.207572 -2388.897239 -2607.396043)
5(-1704.716964 -2138.425823 -2479.648861 -2729.214857 -2968.989402)
5(-1998.297976 -2487.400666 -2871.761024 -3152.639794 -3422.65529)
5(-2350.865265 -2912.543994 -3352.27146 -3674.563758 -3989.488269)
5(-2782.945167 -3427.75041 -3938.372804 -4313.504865 -4673.689229)
5(-3302.456572 -4050.482862 -4647.838446 -5085.726194 -5495.073151)
5(-3930.192326 -4795.806818 -5494.797826 -6002.206044 -6462.21587)
5(-4680.123496 -5682.22299 -6494.959032 -7075.312205 -7579.817465)
5(-5569.590402 -6719.984303 -7662.113648 -8309.861742 -8852.918874)
5(-6613.771086 -7926.764434 -9001.822083 -9714.990386 -10283.23878)
5(-7832.705916 -9315.573447 -10526.22362 -11291.12714 -11859.2313)
5(-9227.633359 -10887.88791 -12233.74772 -13025.79112 -13569.94561)
5(-10831.32295 -12654.41275 -14127.23568 -14916.18017 -15378.63818)
5(-12635.51486 -14621.47571 -16192.45351 -16937.0711 -17284.63348)
5(-14654.246 -16775.56956 -18411.43852 -19062.61602 -19216.66911)
5(-16879.07471 -19105.51644 -20756.21983 -21257.47288 -21149.98747)
5(-19299.38876 -21582.73225 -23201.90877 -23465.71298 -23033.85661)
5(-21895.6702 -24185.36522 -25700.39255 -25631.93132 -24817.69482)
5(-24645.85025 -26868.02685 -28170.86347 -27704.19837 -26402.99122)
5(-27487.82176 -29571.33517 -30559.18255 -29590.79222 -27669.11217)
5(-30374.97746 -32217.63433 -32781.4601 -31189.35832 -28485.27553)
5(-33214.98269 -34725.5071 -34752.00609 -32425.51595 -28763.97495)
5(-35918.21138 -37011.53241 -36408.1671 -33197.38376 -28623.7018)
5(-38379.17308 -38995.05411 -37674.51303 -33452.03406 -28121.75201)
5(-40526.06672 -40600.30354 -38503.18045 -33199.53663 -27406.74472)
5(-42274.44891 -41794.89585 -38834.3909 -32570.4603 -26512.84139)
5(-43586.24451 -42520.36718 -38666.11093 -31703.25873 -25537.65802)
5(-44425.47969 -42810.51106 -38053.09623 -30731.34278 -24422.39482)
5(-44890.56209 -42661.39096 -37119.63596 -29659.93479 -23278.26953)
5(-44902.42087 -42096.26838 -35974.6101 -28482.79141 -22034.43455)
5(-44532.41305 -41118.98593 -34617.42465 -27088.78238 -20679.0743)
5(-43912.93257 -39795.8578 -32959.68995 -25415.73 -19143.39743)
5(-42965.25452 -38120.08925 -30909.72162 -23384.82091 -17426.79385)
5(-41684.05196 -36078.62426 -28321.22864 -21057.43645 -15600.6751)
5(-39899.86715 -33510.26078 -25445.64763 -18556.50114 -13751.53637)
5(-37669.07221 -30512.33064 -22205.29364 -16156.06873 -12177.8754)
5(-34965.20725 -27259.62976 -19150.80772 -14030.53144 -10977.46812)
5(-31734.01141 -23923.88108 -16528.743 -12298.30581 -9822.107658)
5(-28427.05285 -20961.16533 -14481.04427 -11083.00744 -9258.540349)
5(-25269.18948 -18357.37315 -13038.81831 -10201.21995 -8866.573734)
5(-23570.666 -16271.26422 -10324.73061 -9822.772697 -9264.37018)
)


60
(
5(25.94775659 -61.73251282 -45.72316527 -108.5074466 -1.704649511)
5(-37.79126309 -116.1772198 -97.63977909 -195.1218536 -133.49764)
5(-79.83724832 -159.3163844 -205.6038253 -323.1620123 -425.7854056)
5(-125.2454919 -215.1383863 -322.5132028 -460.490604 -688.6619489)
5(-178.0262189 -287.0444243 -435.84049 -602.2097031 -931.7535353)
5(-230.0505848 -361.1556452 -537.2623749 -736.4484374 -1114.236839)
5(-279.9244514 -436.985639 -631.8189723 -859.45654 -1234.748296)
5(-336.427022 -520.402724 -731.0316067 -985.6491923 -1351.333288)
5(-403.2584471 -611.4292525 -844.1562044 -1120.490269 -1486.722588)
5(-479.2200572 -711.3861162 -971.297269 -1262.245191 -1634.686058)
5(-564.0583526 -819.9380147 -1104.808557 -1402.683926 -1774.110824)
5(-656.4762957 -936.3758379 -1240.904615 -1539.91609 -1901.028634)
5(-757.8122184 -1061.123317 -1378.850907 -1675.360404 -2015.313323)
5(-869.6570326 -1195.876287 -1522.917981 -1813.641434 -2129.194466)
5(-995.5271493 -1342.508207 -1677.138082 -1959.019885 -2251.708794)