/*--------------------------------*- C++ -*----------------------------------*\
| =========                 |                                                 |
| \\      /  F ield         | OpenFOAM: The Open Source CFD Toolbox           |
|  \\    /   O peration     | Version:  2.3.1                                 |
|   \\  /    A nd           | Web:      www.OpenFOAM.org                      |
|    \\/     M anipulation  |                                                 |
\*---------------------------------------------------------------------------*/
FoamFile
{
    version     2.0;
    format      ascii;
    class       dictionary;
    location    "constant";
    object      rH2;
}
// * * * * * * * * * * * * * * * * * * * * * * * * * * * * * * * * * * * * * //

rH2_table
60
(

60
(
5(-0.0003558503928 -0.0003626515461 -0.0004394001909 -0.0007376504432 0.007868097775)
5(-0.0004065895346 -9.040672219e-05 -0.001026478339 -0.001325797775 -0.001492890908)
5(0.0001115591579 -0.0007065775201 -0.001040446357 -0.001174113644 0)
5(0.0006905765833 -0.001955044735 -0.003097430976 -0.0007629471654 -0.00802217416)
5(0.0008040534269 -0.00304349707 -0.005856588058 -0.005465538049 -0.007012551843)
5(-0.01553475173 -0.004287295409 -0.002754653722 -0.01022123015 -0.007163365536)
5(-0.004818075333 -0.006144825016 -0.006539846547 -0.0106267041 -0.03331811317)
5(-0.003172152612 -0.009857390885 -0.0201127842 -0.02305034059 -0.01298368616)
5(-0.1010550411 -0.01663785074 -0.02835636539 -0.03960975956 -0.04215546117)
5(-0.1987305333 -0.03419078481 -0.0590606333 -0.05565207394 -0.07637990753)
5(-0.3081835276 -0.05436992102 -0.08327902664 -0.08787421359 -0.1177086447)
5(-0.1701935099 -0.05675451977 -0.09528586808 -0.1235040202 -0.1550549192)
5(-0.03296371361 -0.08151720953 -0.1251852175 -0.197593341 -0.2400449896)
5(-0.05657251898 -0.1156559379 -0.1810836457 -0.2353892572 -0.3109498359)
5(-0.06550261975 -0.1465125684 -0.2317620575 -0.3525159278 -0.4256649035)
5(-0.1299068456 -0.2653658547 -0.3617796246 -0.5152956617 -0.6076756594)
5(-0.1693633471 -0.3227378971 -0.4947359325 -0.6618087569 -0.8518041716)
5(-0.1840608386 -0.3863379703 -0.5774412428 -0.8814077124 -1.146125477)
5(-0.2078971794 -0.4576691535 -0.7401501077 -1.109066928 -1.560505936)
5(-0.2816964959 -0.5880229625 -0.9820142901 -1.523177792 -1.915007238)
5(-0.3468517805 -0.6923835682 -1.150779683 -1.820167232 -2.236132461)
5(-0.4318935575 -0.8309299376 -1.454863611 -1.837840703 -2.389721553)
5(-0.5558292305 -1.017700441 -1.705821379 -2.412011099 -3.100310745)
5(-0.6475148575 -1.267934147 -1.991328382 -2.77244913 -3.476804099)
5(-0.7922814149 -1.52046797 -2.342919109 -3.278226978 -4.042275385)
5(-0.9206648217 -1.798625022 -2.800014404 -3.843306723 -4.350431354)
5(-1.058771913 -1.918789956 -2.924350054 -4.229569173 -4.638195297)
5(-1.168344569 -1.973246721 -3.265451322 -4.497056934 -4.779001625)
5(-1.361265278 -2.178361624 -3.353344043 -4.513302867 -4.907584506)
5(-1.48961679 -2.38472922 -3.439175988 -4.28946802 -4.70869368)
5(-1.64361062 -2.535437946 -3.626775416 -4.475328389 -4.572207562)
5(-1.72792948 -2.531872932 -3.440815619 -4.027004385 -3.635634016)
5(-1.746535499 -2.535074152 -3.365150454 -3.785163317 -3.865932975)
5(-1.756505979 -2.469659485 -3.241943764 -3.412662518 -3.061143768)
5(-1.689603437 -2.206265701 -2.826024985 -3.042095381 -0.7965320872)
5(-1.506931694 -1.954016672 -2.646444553 -2.688062921 0.5605097123)
5(-1.199372044 -1.421310403 -1.951259355 -2.255521606 -2.077469201)
5(-0.7331589579 -0.8932966832 -1.449754674 -1.799011505 -0.2599590997)
5(-0.1325720442 -0.3306125562 -0.7142760793 -1.52557103 0.3807298222)
5(0.6342529189 0.2642416024 -0.7209278277 -1.48869614 1.393285089)
5(1.36620953 0.6597290993 -1.244622602 2.428395851 3.302180453)
5(1.844212279 0.967935761 -1.030343429 34.44229578 -0.01064476395)
5(2.213420955 0.3730827038 -0.9448187091 -0.007529376734 -0.01191350169)
5(2.342644655 -0.329366517 0.463485793 -0.01009439753 3.831465641)
5(2.026126399 -1.469987689 4.038605232 -0.009336134688 0.4254171448)
5(0.9274040767 -1.175142863 -0.7242860892 -0.01095087983 -0.01804369749)
5(-0.3683554414 2.694584267 28.62016429 0.3013054973 -0.01914622226)
5(2.998772138 -0.8422259427 4.114064144 -0.01006651655 -0.02062343205)
5(-1.478336224 -1.066272781 0.2354993877 -0.008015344094 -0.01691873041)
5(-1.70747858 1.465876838 0.004199559627 -0.009609293971 -0.01008130693)
5(7.840302746 -0.00157657491 -0.01029834384 -0.005551761396 0.02546358529)
5(26.69227851 -0.002241072898 -0.002225657219 -0.009682358227 0.00841879222)
5(3.926018704 0.03565177019 -0.008874115296 -0.01702115494 -0.002521069738)
5(-0.002565508082 0.01593036183 0.01595542812 0.01731500745 0.0609714103)
5(0.001518266535 0.03457149391 0.001767744515 -0.00567460078 0.01159334441)
5(8.597018298 0.0111254771 -0.005716724146 0.03249833357 -0.004056569645)
5(28.99082641 0.007634207047 0.0003463333689 0.002173534395 -0.02892326448)
5(34.20347117 16.3953457 0.03175985426 0.04542590923 0.1804753457)
5(24.09208187 23.63562592 16.52590052 0.2315567433 1.549854937)
5(-0.01503608985 -0.02733102037 -0.04318909806 -0.05336789235 -0.100388951)
)


60
(
5(-0.0003685519381 -0.001027159056 0.003467411865 0.00691393489 0.06522909292)
5(-0.001657698474 -0.003940677034 -0.002949212732 -0.002767220313 0.01396790974)
5(-0.003737347833 -0.009979950007 -0.009307243599 -0.01459356829 -0.005065459647)
5(-0.007990591174 -0.02157423355 -0.02228052534 -0.03720191678 -0.02695545655)
5(-0.01678124339 -0.0426524929 -0.05047693321 -0.08347501281 -0.07604313766)
5(-0.03346564613 -0.07842772332 -0.1038447868 -0.1687574376 -0.1839407369)
5(-0.06004390844 -0.1349735898 -0.1890263585 -0.3109172716 -0.3801451068)
5(-0.09898651468 -0.2197245859 -0.3172388746 -0.5310051922 -0.6904895839)
5(-0.155517917 -0.34318023 -0.5046154914 -0.8592014937 -1.159960082)
5(-0.2391442366 -0.5215038683 -0.7815422742 -1.345714974 -1.871191638)
5(-0.3579079402 -0.7729630012 -1.184437715 -2.045829788 -2.929141079)
5(-0.5266832161 -1.11941611 -1.755983996 -3.019669538 -4.423830085)
5(-0.756637935 -1.589511618 -2.53533729 -4.333951355 -6.404802747)
5(-1.064645933 -2.21231959 -3.569384386 -6.063892225 -8.965208948)
5(-1.471847164 -3.025766358 -4.914608382 -8.266983774 -12.18195399)
5(-2.006212512 -4.071673258 -6.642056232 -11.01977381 -16.13183951)
5(-2.692810304 -5.388715108 -8.811386648 -14.39391901 -20.86633566)
5(-3.562995612 -7.02226405 -11.46666055 -18.40225759 -26.36312436)
5(-4.64939377 -8.993602394 -14.64151149 -23.06164329 -32.57048388)
5(-5.972159329 -11.3358589 -18.32968052 -28.31942551 -39.4372845)
5(-7.559644025 -14.05683385 -22.53163823 -34.06052777 -46.61676003)
5(-9.414204138 -17.1330525 -27.15763971 -40.17382835 -53.98403323)
5(-11.53160692 -20.51649715 -32.11472636 -46.39248192 -61.30876703)
5(-13.93590241 -24.16458061 -37.30388299 -52.47634316 -68.04372733)
5(-16.53689703 -27.92769452 -42.45160032 -58.25808325 -74.01684066)
5(-19.33203206 -31.7196296 -47.48994522 -63.46085655 -78.83182426)
5(-22.20820519 -35.33390138 -52.00824178 -67.72566339 -82.04321575)
5(-25.03587338 -38.72839476 -55.76801119 -70.6448624 -83.10387136)
5(-27.73075499 -41.62295846 -58.5912399 -71.95075515 -82.78568999)
5(-30.17595273 -43.71093404 -60.13235638 -71.55097264 -79.57822046)
5(-32.12328968 -44.85379985 -60.23015471 -69.19692521 -74.70461516)
5(-33.38299699 -44.85027004 -58.39051855 -64.76622763 -67.24311234)
5(-33.69927147 -43.33672779 -54.80343508 -58.18387694 -57.67388956)
5(-32.89389342 -40.09759302 -48.87474461 -49.53607036 -46.08452844)
5(-30.40018161 -35.10217786 -40.94563073 -38.72816216 -33.70735296)
5(-26.6549822 -27.78558533 -30.4437621 -26.12167396 -19.20350523)
5(-19.93915162 -18.2457506 -17.99147088 -11.77703825 -4.57320169)
5(-11.89681261 -6.908375752 -4.375856179 2.422936977 9.026027429)
5(-1.329919051 7.413578199 10.61071909 15.96252872 20.62783322)
5(12.22682724 21.79556809 26.09088364 28.23140832 28.51733464)
5(27.29165696 37.79099879 41.83565161 36.82968899 33.95118575)
5(44.96857742 49.71919414 51.51883792 39.49989005 32.70402738)
5(57.64384584 59.25796442 56.60677682 36.80377237 29.51157622)
5(68.64307051 66.51196378 54.90123226 33.73356053 22.51833579)
5(74.51750654 63.9537441 47.84813412 29.05287744 14.6695378)
5(76.26688018 56.04465403 33.74781737 21.70378417 5.837432903)
5(70.62763295 40.43808918 19.03091978 12.97693328 -0.01393990444)
5(56.10271186 21.37998657 8.160381033 4.845242365 -2.058555416)
5(28.82557476 -0.3956218958 0.2447919197 -0.9248613582 -6.032290159)
5(11.90879591 -13.53946913 -5.871725394 -5.660521333 -6.892831492)
5(-10.93940724 -16.84579898 -10.34509168 -8.117910015 -5.13203382)
5(-18.14128435 -18.19613807 -11.99944135 -10.3100635 -8.528467395)
5(-32.30317869 -21.5205299 -15.20310959 -11.04017199 0.05289386544)
5(-36.2462258 -20.72075744 -17.16691912 -11.82667858 -8.896217834)
5(-29.91996861 -24.75392516 -17.96516009 -13.02317359 -8.803296562)
5(-29.87509518 -24.02143317 -17.43719566 -13.12626042 -10.17574451)
5(-24.98351454 -21.85570185 -17.4755119 -12.95025997 -7.7618966)
5(-24.67291779 -19.24045782 -15.17419576 -11.12810642 -11.50150692)
5(-6.104166083 -14.38774232 -16.45240361 -16.03420162 -6.346632737)
5(-18.89020737 -20.92594766 11.33800718 -23.65984368 -22.7669466)
)


60
(
5(0.0002900035551 -6.83290508e-05 0.016889666 0.04168948649 0.2170232676)
5(-0.002201368619 -0.004871652393 0.004387308947 0.02560866912 0.1139729278)
5(-0.006736631823 -0.01546155943 -0.008683719954 0.008100733835 0.07752523777)
5(-0.01564976397 -0.03642650207 -0.03209459111 -0.0247504695 0.05533966516)
5(-0.03329295761 -0.07516135393 -0.08089055429 -0.0981781958 -0.008538077479)
5(-0.06544459269 -0.1422280025 -0.1751827941 -0.2506089275 -0.1958864896)
5(-0.1175652823 -0.2506438467 -0.3377388995 -0.5291324023 -0.6106468097)
5(-0.1967720844 -0.4186068026 -0.5978772391 -0.991876412 -1.330689197)
5(-0.3151391407 -0.6704137633 -0.9976986127 -1.71504818 -2.461228603)
5(-0.4893541158 -1.038721318 -1.598538612 -2.800607572 -4.183850391)
5(-0.740580444 -1.565366605 -2.481242848 -4.368090366 -6.662625869)
5(-1.095767944 -2.298745206 -3.728636255 -6.540136148 -10.06009686)
5(-1.587397703 -3.299257782 -5.43393804 -9.440058457 -14.49837851)
5(-2.249888649 -4.634189046 -7.692316872 -13.19255576 -20.08501823)
5(-3.132682797 -6.377327095 -10.6217556 -17.91215212 -26.9329879)
5(-4.285889308 -8.613702867 -14.3238272 -23.72140907 -35.13064006)
5(-5.778354244 -11.41450281 -18.91709638 -30.70380742 -44.73959282)
5(-7.658870156 -14.86864864 -24.45248233 -38.87561737 -55.62908987)
5(-9.994934786 -19.02585278 -31.00902026 -48.21877439 -67.77776327)
5(-12.83574453 -23.92328426 -38.54372186 -58.65610566 -80.9392237)
5(-16.20183985 -29.571953 -47.03505952 -69.98544585 -94.88079696)
5(-20.18396472 -35.94751483 -56.33534423 -81.93540456 -109.0529122)
5(-24.68426839 -42.96452994 -66.30907747 -94.24162161 -123.0577471)
5(-29.73027321 -50.4765983 -76.66860231 -106.4064247 -136.3418602)
5(-35.19918364 -58.29172663 -87.09893509 -118.0397186 -148.3629141)
5(-41.06921421 -66.2076165 -97.20010202 -128.7573912 -158.1346071)
5(-47.10187585 -73.897014 -106.4953693 -137.6796148 -165.7955857)
5(-52.99254886 -81.11138029 -114.5007531 -144.4935929 -169.7905645)
5(-58.85356116 -87.34102034 -120.7186573 -148.3646075 -170.6243625)
5(-63.94955857 -92.2179459 -124.8156792 -149.1767353 -166.9332499)
5(-68.34932149 -95.45416736 -126.0125519 -146.1773457 -159.177482)
5(-71.36261307 -96.40886451 -123.7717673 -139.2085324 -146.8073188)
5(-72.7444357 -94.517468 -117.9512645 -128.0741848 -129.4493323)
5(-72.05754854 -89.63389756 -108.0973866 -112.0101203 -107.8569294)
5(-68.47088204 -80.97940419 -93.49979204 -91.29842599 -82.09080847)
5(-60.39093161 -68.19710258 -74.40639521 -66.35934051 -54.38468721)
5(-50.22055945 -50.63032553 -50.50820804 -37.57402101 -21.92177416)
5(-36.1773021 -28.61203479 -21.95018397 -5.961386508 9.017997623)
5(-17.42822166 -2.619916818 10.73919639 27.14866656 40.65452373)
5(6.567232932 27.7220485 45.15262272 59.56420561 68.62600364)
5(35.9752806 60.48131382 78.38232446 87.9919619 88.97505403)
5(63.50480925 91.63893527 109.2869555 109.2697408 99.4669217)
5(94.05460649 119.7895659 132.7786103 121.2737198 100.9827113)
5(119.2703331 140.5688708 144.9992568 121.994559 95.92781758)
5(138.3116239 151.9333392 144.3577713 111.3353238 77.25393966)
5(144.3231098 146.6421332 128.2881299 92.40540067 58.63358491)
5(136.9721986 127.540162 101.9330918 66.17058988 40.15583747)
5(115.0884809 96.29709427 71.06508131 40.0664517 21.2701406)
5(82.16282214 60.49273098 39.2104941 18.36367792 6.858935772)
5(38.99105681 21.52763289 10.00042513 1.292865875 -3.290935839)
5(-3.530778728 -9.003836256 -12.64414034 -11.16038717 -12.53909815)
5(-40.78044863 -32.17144524 -28.99205219 -20.31156469 -16.40621444)
5(-67.68118885 -49.79449364 -39.46176363 -26.09574633 -22.79147716)
5(-77.24736588 -62.57404749 -46.63584981 -31.44648696 -13.97707662)
5(-92.21989719 -67.02868508 -50.45883728 -36.15012499 -27.19761127)
5(-84.02484302 -69.86016062 -52.18992345 -38.15259492 -28.72986835)
5(-81.77829429 -68.47304202 -51.24672096 -39.88725603 -32.23879065)
5(-73.35600999 -63.70844294 -50.31241128 -39.29396487 -34.10390106)
5(-69.33532143 -61.95482529 -53.92025859 -44.04188894 -31.66558864)
5(-65.84117997 -63.64029062 -38.68424554 -60.01422855 -56.44988774)
)


60
(
5(0.00199986056 0.003722020164 0.045707419 0.1228095175 0.5003778258)
5(-0.001309434625 -0.0006356996622 0.02993491285 0.110137212 0.3581794755)
5(-0.007641861375 -0.0119302044 0.01680166041 0.1059426154 0.334209295)
5(-0.02033959932 -0.03698863043 -0.005586274694 0.08941953896 0.3510113584)
5(-0.04508783736 -0.08651851127 -0.05909864305 0.01752486798 0.3102529251)
5(-0.09031624142 -0.1768050847 -0.1779742058 -0.1787870463 0.05011520727)
5(-0.1658518846 -0.3301134222 -0.4078124114 -0.5905779701 -0.626601601)
5(-0.2845820386 -0.577364002 -0.8049813996 -1.325085146 -1.868087622)
5(-0.4654341609 -0.9592504828 -1.441934063 -2.510951134 -3.842297922)
5(-0.7356410099 -1.531236411 -2.418933916 -4.309871052 -6.80381602)
5(-1.130931376 -2.359556386 -3.859478974 -6.899794497 -10.99085263)
5(-1.693981601 -3.526995766 -5.900447194 -10.46204387 -16.62742058)
5(-2.476568 -5.124829253 -8.682552549 -15.17524534 -23.8468051)
5(-3.542528 -7.260159779 -12.35136052 -21.20537527 -32.75161854)
5(-4.965130065 -10.04445189 -17.0636388 -28.68960483 -43.53677827)
5(-6.82713181 -13.59655264 -22.97073089 -37.77389509 -56.21890397)
5(-9.215938747 -18.03872535 -30.20439795 -48.57009998 -70.85712617)
5(-12.23430836 -23.47231724 -38.85394241 -61.06361895 -87.38556824)
5(-15.95430381 -29.97966899 -48.98128706 -75.27972497 -105.5426431)
5(-20.46089058 -37.60445876 -60.55686346 -91.01456589 -125.2205285)
5(-25.81849648 -46.36982119 -73.54526245 -108.1094752 -145.9435383)
5(-32.03544279 -56.23056378 -87.71039766 -126.1434416 -167.1094053)
5(-39.10818511 -67.03660383 -102.8661871 -144.7907537 -188.1873483)
5(-47.02314232 -78.64211345 -118.608906 -163.4411377 -208.4716632)
5(-55.65817588 -90.81457427 -134.6111681 -181.4934785 -227.6072473)
5(-64.79187023 -103.2429472 -150.2719583 -198.270587 -243.6839464)
5(-74.26282597 -115.4296371 -165.0118979 -213.0595703 -256.4534398)
5(-83.76555274 -127.0116736 -178.0579764 -224.9010788 -265.5765688)
5(-93.0102932 -137.4663669 -188.8059933 -232.9921565 -268.4346273)
5(-101.4849143 -146.1365242 -196.5184838 -236.7274618 -267.1962413)
5(-108.7731463 -152.3990927 -200.3463088 -235.1714657 -258.0860379)
5(-114.4091353 -155.6140303 -199.4217221 -227.7827918 -243.4910603)
5(-117.6942121 -155.0370036 -193.4544917 -214.1271595 -220.8324478)
5(-117.951984 -150.1450333 -181.3934913 -193.1483109 -191.5982742)
5(-114.6717968 -140.0092683 -162.725461 -165.1798023 -153.454522)
5(-106.8176738 -124.1055991 -136.694807 -130.2723643 -111.3478655)
5(-93.94286759 -101.1732573 -103.1093235 -88.05814688 -63.04993337)
5(-75.75238116 -71.52147034 -62.03261724 -39.59425983 -7.59529369)
5(-51.07728008 -34.61155206 -14.49717846 13.51553759 44.14957863)
5(-19.4600396 8.952498406 37.54514701 69.02092002 100.6916452)
5(17.92173352 56.00434568 93.04759069 122.4359405 140.9775541)
5(59.997342 105.3821029 147.1366702 168.3472551 172.9334474)
5(103.6723889 153.5390744 193.824872 201.9417013 193.1888644)
5(145.481122 195.1692529 227.3819276 220.0053678 196.0733579)
5(178.5481522 222.8210081 242.2735291 218.8201194 183.5054766)
5(198.9499671 232.0571455 236.2004214 199.3943103 150.8182459)
5(203.709062 220.8977392 207.445261 164.8182128 117.4660016)
5(184.5226183 185.0958394 166.1885307 119.7062145 85.24029007)
5(158.4551071 131.7786087 111.5533445 74.13570564 46.7836927)
5(92.73877599 73.09971018 53.61307825 33.48601836 25.86537134)
5(30.79635239 16.90077713 5.671498259 3.11022431 8.710746758)
5(-20.21463947 -35.382015 -32.42150131 -24.43659676 -21.91387752)
5(-78.80367158 -76.71083957 -59.69208416 -42.87906026 -29.30574521)
5(-116.2075192 -106.2819617 -78.44056105 -56.96027346 -33.21307054)
5(-153.4551472 -123.4233202 -91.03780968 -67.43296948 -44.38715837)
5(-151.0058719 -135.0379359 -100.0161562 -71.83390082 -57.73106272)
5(-164.6657124 -136.1211641 -104.9816796 -80.90662942 -63.10856195)
5(-164.3142054 -137.3422151 -105.4846999 -82.42774718 -67.70256097)
5(-155.2923002 -137.1267154 -113.6289561 -85.58719692 -75.76519786)
5(-139.9491869 -109.6411768 -131.3202222 321.4355131 233.1168645)
)


60
(
5(0.005206902967 0.01182688698 0.0959723571 0.2677003817 0.9421497189)
5(0.001999545634 0.01169746116 0.08329546397 0.2750027478 0.793041814)
5(-0.004593506934 0.005888621736 0.08177497631 0.3100163527 0.8204279398)
5(-0.01871869771 -0.01483062395 0.07779213078 0.3425682924 0.9169654618)
5(-0.04716608139 -0.06438405957 0.04143145199 0.3064492266 0.9337461597)
5(-0.1006806069 -0.1653344893 -0.08062950916 0.09046595247 0.6010148377)
5(-0.1939696294 -0.350684376 -0.3626895828 -0.4470029729 -0.3726921893)
5(-0.3464948469 -0.666739068 -0.891541656 -1.467737112 -2.214170776)
5(-0.5860618476 -1.172628089 -1.775015361 -3.153859864 -5.145969531)
5(-0.9513158999 -1.94661249 -3.156962575 -5.731057771 -9.496740677)
5(-1.493138346 -3.088603892 -5.207431491 -9.430649067 -15.55103533)
5(-2.272242633 -4.707483498 -8.111419794 -14.48807318 -23.57006906)
5(-3.36627508 -6.933512955 -12.05522994 -21.10790095 -33.69052352)
5(-4.854660704 -9.910095665 -17.21720367 -29.49771091 -46.06933694)
5(-6.851984003 -13.78176356 -23.7944468 -39.81871587 -60.79213156)
5(-9.463008557 -18.70345801 -31.9556893 -52.23765879 -77.96416702)
5(-12.80712634 -24.81865025 -41.89479922 -66.83472986 -97.6183152)
5(-17.0009105 -32.27314258 -53.69338018 -83.61981039 -119.6196499)
5(-22.16723954 -41.15892463 -67.38996583 -102.6598211 -143.7987552)
5(-28.39340589 -51.5302463 -83.01021008 -123.6838004 -169.868579)
5(-35.75411556 -63.39799966 -100.4602093 -146.4883104 -197.434817)
5(-44.32789026 -76.73078753 -119.5039663 -170.6589456 -225.7526573)
5(-53.9993483 -91.37798288 -139.8396709 -195.6561085 -254.3467346)
5(-64.82360626 -107.1830062 -161.127138 -220.8782354 -282.3634442)
5(-76.62870594 -123.8279207 -182.8849672 -245.7100372 -308.4993004)
5(-89.18494653 -140.8285014 -204.4520934 -269.2683894 -331.9936927)
5(-102.3134933 -157.7781238 -225.0106063 -290.5820582 -352.0175928)
5(-115.5420458 -174.0982518 -243.6823086 -308.5670918 -366.9247851)
5(-128.6651106 -189.130428 -259.7137941 -322.3301659 -375.5143246)
5(-140.679611 -202.2612239 -272.1544197 -330.6191273 -377.0126415)
5(-151.6956945 -212.7124842 -279.9708075 -332.5339124 -370.6773811)
5(-160.7756436 -219.3326716 -282.0781607 -327.2975836 -354.384796)
5(-166.9847023 -221.5287064 -277.844677 -313.8267661 -331.0432413)
5(-169.8111533 -218.2585999 -266.2573307 -291.0477362 -295.8593181)
5(-168.1103773 -208.8010572 -245.7550869 -258.4863161 -250.561012)
5(-161.4638154 -192.0968648 -216.0408885 -215.534322 -195.4779341)
5(-148.9065216 -166.6669065 -176.6163585 -162.1028964 -131.2501126)
5(-129.0555004 -132.627132 -126.866759 -99.33896876 -59.40236946)
5(-102.4360503 -90.07864003 -67.03900339 -27.81536004 19.67957241)
5(-68.03868875 -38.052148 2.346216057 49.97655368 97.27671831)
5(-26.88508429 21.62023129 77.88534673 128.9695513 172.171311)
5(21.51141994 87.53361188 155.2786753 203.9875051 241.6856188)
5(75.14154167 155.1872766 228.6868566 267.5585127 282.4972315)
5(129.6511944 217.301947 289.342586 313.723809 306.5106513)
5(180.4252205 268.7963219 327.4538797 334.7523087 304.0355772)
5(213.5907037 300.2064906 341.0109679 327.6714195 283.9338145)
5(237.5106439 302.9081473 324.910309 294.9184256 241.3719358)
5(235.8818223 277.6312619 278.3707559 240.2273768 186.4409448)
5(211.8665502 224.1680093 209.9637925 170.0936487 129.1843365)
5(165.1360286 154.6469784 130.0454872 103.925985 73.39557003)
5(100.4377424 74.01285673 49.96724077 43.4364208 25.92227259)
5(27.30790503 -8.581362868 -20.15492539 -5.337275973 -10.23656467)
5(-52.48880244 -79.99432093 -74.29952725 -47.06979523 -12.34938226)
5(-114.4838281 -136.3713389 -118.0141453 -79.43616025 -62.14711514)
5(-171.0320328 -179.1852618 -148.6501035 -105.060054 -79.47844995)
5(-207.1628059 -209.3841253 -169.4475172 -124.5816908 -89.28717315)
5(-234.1091755 -225.4454411 -188.5246897 -139.3487952 -104.769371)
5(-250.2212384 -236.580359 -193.5599136 -149.7800212 -115.2363264)
5(-247.4996312 -232.6555714 -200.6001875 -165.2949566 -118.6759683)
5(-215.7846106 -216.2241416 -207.194384 -183.7600733 -168.4615822)
)


60
(
5(0.01041146332 0.0259966254 0.1735612188 0.4924816975 1.562285968)
5(0.008784195872 0.03516940066 0.1733791872 0.5398156891 1.445392334)
5(0.003866941965 0.04289191419 0.1989511144 0.6426826242 1.563202345)
5(-0.008171778064 0.03646993035 0.2341563866 0.7578958528 1.798031409)
5(-0.03502255704 -0.0007175910225 0.2390087368 0.7900084202 1.895615606)
5(-0.09022618617 -0.09735961665 0.1360709508 0.5789038412 1.485966924)
5(-0.1933238903 -0.2992883139 -0.1807752436 -0.07311283273 0.1892776491)
5(-0.3725555408 -0.6700573335 -0.8347144944 -1.38743692 -2.313607842)
5(-0.6638668423 -1.291074674 -1.969717074 -3.602344804 -6.28554927)
5(-1.120103129 -2.266800394 -3.775549282 -6.993534136 -12.10955937)
5(-1.805961643 -3.721470595 -6.46210132 -11.84927469 -20.11310726)
5(-2.808604887 -5.803986721 -10.26407521 -18.44146456 -30.58190436)
5(-4.219185674 -8.672833293 -15.40068056 -27.00890083 -43.64750882)
5(-6.158040633 -12.50175477 -22.09713734 -37.77678707 -59.48422726)
5(-8.742113948 -17.47912092 -30.57143483 -50.92893623 -78.13658424)
5(-12.11897002 -23.77805354 -41.02791855 -66.62630827 -99.79349132)
5(-16.43772945 -31.58029699 -53.64041714 -84.95569802 -124.3054753)
5(-21.84116656 -41.0278018 -68.51757622 -105.9964714 -151.7067359)
5(-28.47237508 -52.25246791 -85.75249901 -129.6696486 -181.7844815)
5(-36.41220301 -65.32371735 -105.3033921 -155.8336254 -214.2037452)
5(-45.81472165 -80.26680153 -127.0855733 -184.200771 -248.5657397)
5(-56.65405352 -97.02127525 -150.8952831 -214.3288742 -284.023319)
5(-68.97661146 -115.4619136 -176.4150526 -245.7057914 -320.1251482)
5(-82.67883137 -135.3570079 -203.2322384 -277.7089651 -355.8772614)
5(-97.70415276 -156.3753095 -230.7702943 -309.5240488 -390.378516)
5(-113.6966126 -178.116179 -258.2838561 -340.1863428 -421.71197)
5(-130.4919741 -199.9637399 -284.9123853 -368.6293681 -449.2159339)
5(-147.5836156 -221.3605243 -309.8684832 -393.5536966 -471.2716198)
5(-164.762151 -241.5133863 -331.9984868 -413.8588632 -486.7554229)
5(-181.031317 -259.6843586 -350.2042208 -428.3452074 -494.2388985)
5(-196.1128375 -274.8206244 -363.3834458 -435.6255766 -492.2365108)
5(-209.0447081 -286.0760909 -370.4709826 -434.3620599 -479.4007641)
5(-219.2812254 -292.6396764 -370.0285853 -423.4569251 -455.2034706)
5(-225.9591105 -292.9726199 -360.7638904 -401.7029036 -420.5666641)
5(-228.3070322 -286.2173286 -341.4380864 -367.9245932 -369.299018)
5(-224.9311581 -271.2906039 -311.221239 -321.3561921 -305.1144968)
5(-214.6586843 -247.194222 -269.2044561 -261.7969399 -228.915087)
5(-198.1443868 -213.4130078 -214.2588364 -188.6474397 -140.6515013)
5(-173.3981522 -168.2792696 -146.4662875 -102.9535965 -39.864091)
5(-141.2981154 -111.3835076 -66.59395256 -7.06393785 64.72016115)
5(-100.5486161 -44.92397747 24.32713959 95.26285267 169.769964)
5(-50.93231616 30.52714836 121.9473823 199.2913039 269.2185224)
5(3.540327687 111.1390835 220.8003657 296.1877785 350.445448)
5(63.0196621 189.6863519 308.6488734 376.6078524 408.9840865)
5(122.807531 262.0737824 377.8481072 430.8180501 438.1692893)
5(174.0269194 317.629888 420.587157 450.3082452 429.8989976)
5(213.3621455 346.7639892 429.5692154 431.2021548 395.4585708)
5(241.3281713 344.1479576 398.2979006 378.6739208 333.0942768)
5(247.3885895 309.9782973 330.243675 297.8934748 248.8344966)
5(223.0960029 250.9912599 235.7803576 201.2660642 159.5914412)
5(176.3992362 164.1173987 127.8944031 107.3982964 98.18388328)
5(113.4337798 76.02710738 21.95749016 23.96598178 24.18109918)
5(24.92499233 -32.92176585 -64.47365691 -49.28952883 -28.24763005)
5(-57.2124763 -119.7814433 -142.6784554 -99.88507829 -72.24684647)
5(-134.0090274 -188.5949073 -201.5823442 -151.1177987 -106.7886327)
5(-192.9154438 -248.7061885 -251.4153298 -190.7879637 -105.4891469)
5(-244.3849207 -282.0464792 -278.9524258 -221.9600639 -167.1620406)
5(-259.2406551 -315.1269596 -298.5976708 -241.404359 -180.955695)
5(-290.2613597 -321.9738129 -307.5988844 -265.9168443 -197.6524854)
5(-239.7331369 -289.7208231 -326.7490693 -278.1758202 -252.8021454)
)


60
(
5(0.01821912224 0.0480221934 0.2848199002 0.8108940986 2.375753191)
5(0.02016298423 0.07298658022 0.3089904477 0.9216194306 2.336114652)
5(0.02033979019 0.1037956815 0.3793133708 1.123644914 2.595864933)
5(0.0143589759 0.123365809 0.4769117571 1.35323484 2.976746798)
5(-0.004590047035 0.1125589227 0.5468023542 1.479509234 3.182832534)
5(-0.05410868579 0.03554190747 0.4852806721 1.296187587 2.701943134)
5(-0.1586653539 -0.1688848807 0.1510803537 0.5443957476 1.060189991)
5(-0.3556461053 -0.5818029725 -0.6183526209 -1.059077753 -2.121519206)
5(-0.6937117332 -1.309410136 -2.005937976 -3.80795392 -7.169822222)
5(-1.235523113 -2.482491124 -4.243293776 -8.033747574 -14.48489188)
5(-2.070372107 -4.256967978 -7.584486352 -14.05166596 -24.46918324)
5(-3.298444757 -6.810010711 -12.30553259 -22.18094414 -37.37354601)
5(-5.042279302 -10.33322246 -18.65266777 -32.68070781 -53.36164832)
5(-7.438104576 -15.0416583 -26.88631638 -45.78825954 -72.55760744)
5(-10.64102011 -21.13339751 -37.23595151 -61.69045037 -95.07450739)
5(-14.81820522 -28.81835738 -49.935655 -80.5630335 -120.9702365)
5(-20.13738489 -38.28042273 -65.16547591 -102.5036711 -150.270179)
5(-26.77555412 -49.71554021 -83.05406767 -127.5877875 -182.8759624)
5(-34.87202429 -63.26164621 -103.6870294 -155.72781 -218.6408914)
5(-44.57664971 -78.98798902 -127.0217433 -186.8132605 -257.1555833)
5(-55.9881789 -96.93913022 -153.0209731 -220.5469222 -298.0562317)
5(-69.14447544 -117.0147156 -181.4342475 -256.4979328 -340.6955222)
5(-84.08283489 -139.1628003 -211.9757433 -294.1526612 -384.1539599)
5(-100.7738005 -163.1466427 -244.1485659 -332.7849934 -427.7196494)
5(-118.858496 -188.550958 -277.3916267 -371.7145438 -469.9407326)
5(-138.4686237 -214.8702822 -310.9862581 -409.856893 -510.4411904)
5(-159.052538 -241.7382025 -344.055043 -445.8920693 -546.2369557)
5(-180.4202042 -268.3987225 -375.6529577 -478.4975508 -576.5027599)
5(-201.7636581 -294.0183704 -404.2542996 -506.4852297 -600.6130178)
5(-222.1129303 -317.6428206 -428.8985134 -528.4987878 -614.8323999)
5(-241.556464 -338.4457567 -448.4401763 -542.4307 -620.6762875)
5(-259.6517007 -355.4175453 -461.5198545 -547.2308943 -614.9117664)
5(-274.7844431 -367.165207 -466.6423972 -541.5967269 -592.6872567)
5(-286.0242202 -372.5789472 -462.3876105 -523.980395 -557.7756256)
5(-293.1019926 -370.5994552 -447.5652381 -492.9518088 -508.2384017)
5(-295.1281506 -359.9924049 -420.2556882 -447.4207287 -441.1817092)
5(-291.1308863 -340.0176675 -379.5988226 -386.1572514 -357.2275221)
5(-280.1900848 -309.003855 -324.5868444 -307.8240787 -256.0585738)
5(-262.2207321 -266.4421625 -254.6197861 -212.694679 -141.8941988)
5(-235.7773906 -212.1190177 -169.1790139 -103.2015176 -11.94393326)
5(-202.1908695 -146.0767918 -68.92240308 17.67843556 124.0439188)
5(-160.1994275 -69.0956692 42.04787139 146.4559722 258.1536126)
5(-110.6175772 16.62038549 156.5451774 274.1724679 382.9639781)
5(-53.76339372 105.4958585 268.9881547 391.383711 478.64476)
5(8.432260128 191.2602903 369.4689525 485.3571283 551.8349598)
5(72.08989205 267.5874471 445.6654264 542.3741183 569.3077185)
5(131.0869053 326.078777 486.5674759 554.9177557 559.162126)
5(179.7263998 355.0996937 483.4123928 521.8743346 490.4646742)
5(220.1021777 354.4221279 438.2623846 444.3146295 412.0422185)
5(235.686662 321.4924546 353.644517 337.5586024 295.837446)
5(219.2103503 256.5072537 241.8642794 214.4088454 179.3962822)
5(180.4326993 166.6530865 117.402184 94.96117811 77.19152443)
5(124.6959097 60.06552938 5.035590987 -21.82199266 -10.45852343)
5(51.51903589 -38.61002381 -115.3404382 -112.307274 -65.20688132)
5(-29.88280096 -127.0615318 -195.02594 -195.7688401 -128.2693838)
5(-111.6899311 -211.7530416 -271.4447399 -264.2546191 -203.6184538)
5(-173.7870113 -273.146071 -337.1294711 -313.1682095 -220.843332)
5(-225.6256935 -320.884715 -371.0897153 -352.8749852 -285.0329224)
5(-255.3483793 -341.7616883 -394.0688143 -369.6512471 -331.4220304)
5(-209.170609 -245.9772179 -237.195533 -372.5269911 -364.2933295)
)


60
(
5(0.02919270196 0.08006414612 0.4345134753 1.233292576 3.395345958)
5(0.03734226068 0.1286535166 0.4973829371 1.432486161 3.477981246)
5(0.04628515345 0.1936705327 0.6330022272 1.763935309 3.925775843)
5(0.05165518119 0.2521491982 0.8176144071 2.140556674 4.499200462)
5(0.047159044 0.2817195869 0.9773079169 2.391953207 4.823173448)
5(0.01305655265 0.2384228866 0.9760847883 2.254200059 4.272602674)
5(-0.08527241381 0.04595522909 0.6359705342 1.405663508 2.269645597)
5(-0.29318491 -0.3995848061 -0.2435006237 -0.4870468398 -1.598035836)