/*--------------------------------*- C++ -*----------------------------------*\
| =========                 |                                                 |
| \\      /  F ield         | OpenFOAM: The Open Source CFD Toolbox           |
|  \\    /   O peration     | Version:  2.3.1                                 |
|   \\  /    A nd           | Web:      www.OpenFOAM.org                      |
|    \\/     M anipulation  |                                                 |
\*---------------------------------------------------------------------------*/
FoamFile
{
    version     2.0;
    format      ascii;
    class       dictionary;
    location    "constant";
    object      rH2O2;
}
// * * * * * * * * * * * * * * * * * * * * * * * * * * * * * * * * * * * * * //

rH2O2_table
60
(

60
(
5(0.1440155597 0.09938200127 0.3927310838 0.3111530709 0.9057699003)
5(0.06001096515 0.02546335888 0.1226635053 0.1029901709 0.1830702658)
5(0.5091411661 0.02737629586 0.05042599444 0.03761892353 0.004444837822)
5(2.366622584 0.02215378086 0.0380619862 0.01379451962 0.03680636242)
5(2.615681588 0.01500295812 0.02826056382 0.01913688067 0.01916529281)
5(1.621047456 0.01012507601 0.01012266221 0.0152723023 0.01177893876)
5(0.008795359118 0.007078599856 0.009244351788 0.008547966103 0.02097317765)
5(0.003891902281 0.005403273529 0.01084063551 0.008211272831 0.004834793094)
5(1.287807519 0.004300673285 0.01072655339 0.00684711832 0.00708417421)
5(1.956405871 0.01046609281 0.01127122047 0.005447927755 0.007042289814)
5(1.872605787 0.01348518377 0.007984430933 0.004948476867 0.005825934099)
5(0.3926420653 0.0009829091447 0.003660807532 0.002478816297 0.00459689344)
5(0.0002091947267 -0.0001068124291 0.00112762729 0.00150015095 0.003088186754)
5(-0.0004372861392 -0.001216389472 -0.0002953087856 -0.0002917543371 0.001347095618)
5(-0.001318361567 -0.00231016548 -0.001846586763 -0.00168210582 -0.0002364941107)
5(0.0086952647 0.009418331566 9.368254796e-05 -0.0009216062223 -0.001308832475)
5(0.008103187203 0.005612633007 0.0005593499829 -0.003726679959 -0.003998896431)
5(0.0002930949846 0.001539166483 -0.005898489184 -0.006573121318 -0.006045678496)
5(-0.003793899855 -0.002980473713 -0.007359575054 -0.00775011334 -0.004476828808)
5(-0.00422981538 -0.006382968705 -0.008633015796 -0.009748138709 -0.005474206041)
5(-0.004301354376 -0.006060234245 -0.00864578616 -0.01003288253 -0.009052085536)
5(-0.0042760984 -0.006265129589 -0.007848675211 -0.007801785602 -0.007551531)
5(-0.004473322543 -0.006335345938 -0.007915509346 -0.008747457393 -0.008374572839)
5(-0.004208519616 -0.00675539114 -0.008732405027 -0.00837442357 -0.007174145235)
5(-0.003372373392 -0.002662954937 -0.009259802529 -0.00886027186 -0.007093144442)
5(-0.00363896316 0.005802294882 -0.01053809758 -0.01036013248 -0.006878102026)
5(-0.005656238211 0.00198399812 -0.01099676191 -0.01206037488 -0.007953864727)
5(-0.006955559915 -0.01085235945 -0.01386414382 -0.01462347038 -0.009903434922)
5(-0.009191710692 -0.01378297015 -0.01622958109 -0.01720819268 -0.01266674739)
5(-0.01210834644 -0.01735624353 -0.01920478783 -0.0193825345 -0.01552844281)
5(-0.01525371491 -0.0205214793 -0.02288194198 -0.02307161497 -0.01803566423)
5(-0.01822668081 -0.0229249149 -0.02461866598 -0.02315951409 -0.01641663777)
5(-0.01995164677 -0.02440076907 -0.02648346905 -0.02344585803 -0.01896073611)
5(-0.02168619888 -0.02570147107 -0.0278850349 -0.0221363051 -0.02021703239)
5(-0.02274183688 -0.02597386479 -0.02666399959 -0.02111229385 -0.112059428)
5(-0.02302341687 -0.02680648837 -0.02808024959 -0.01909874741 -0.1322994608)
5(-0.02283624189 -0.02387412946 -0.02179479645 -0.01649061091 -0.01166166572)
5(-0.02224890813 -0.02319266327 -0.02017236637 -0.01646104643 -0.01044291515)
5(-0.02316521637 -0.02162001674 -0.02005390715 -0.01396077349 -0.01490170871)
5(-0.02236205945 -0.02047749308 -0.02021761787 -0.01381987922 -0.01675847676)
5(-0.02097818681 -0.01865129333 -0.01595279253 -0.0898992161 -0.03371348776)
5(-0.01995538929 -0.01869842925 -0.02618427382 -0.4857301031 -0.0004714246712)
5(-0.0195105498 -0.01581482686 -0.01246622681 -0.0005067387381 -0.0006000066352)
5(-0.02020611016 -0.01537259352 -0.01832696803 -0.0007613310551 -0.2976605502)
5(-0.0202988792 -0.01398057268 -0.02592380904 -0.001022291142 -0.0562989476)
5(-0.01948995333 -0.01543823433 -0.01197513651 -0.001259323161 -0.001660454979)
5(-0.01722806439 -0.02497385624 -0.3577716978 -0.03074716763 -0.002260970733)
5(-0.1998563376 -0.01180335484 -0.0718799823 -0.002278208129 -0.002951490118)
5(-0.0311469296 -0.01217752377 -0.008283396395 -0.003190620703 -0.00376640517)
5(-0.01696020213 -0.01695033827 -0.002968177798 -0.004245877114 -0.005024313836)
5(-0.1528498991 -0.00309090678 -0.004279332904 -0.005547315945 -0.006449344427)
5(-0.2809397412 -0.004110628685 -0.005436397263 -0.007282465941 -0.008663646345)
5(-0.02860717816 -0.004792324254 -0.007109916738 -0.009332843953 -0.01103045216)
5(-0.004662651954 -0.006543236874 -0.00884001461 -0.01180274193 -0.01384834329)
5(-0.005928699683 -0.008032000404 -0.01139119892 -0.01471476619 -0.01763549557)
5(0.07334004103 -0.0105381236 -0.01431331628 -0.01815927053 -0.02184967611)
5(0.3017857081 -0.01325880831 -0.01783030716 -0.02262656102 -0.02693295595)
5(0.4003160108 0.09641404378 -0.02183700754 -0.02737428942 -0.03168693136)
5(0.3074233735 0.1594092219 0.0549575541 -0.03097519619 -0.03981089276)
5(-0.0205477641 -0.02807715153 -0.03695914034 -0.04756210536 -0.05399655112)
)


60
(
5(0.2795230398 0.2669560969 0.888232403 0.9977218615 2.275581285)
5(0.1576148744 0.1944463724 0.4297827216 0.5574263507 0.9774702853)
5(0.1058141293 0.1545622313 0.2672827643 0.3826077405 0.5469589413)
5(0.08342364167 0.131640096 0.2129172256 0.3131148129 0.4198335939)
5(0.0750212336 0.1183579559 0.1990148506 0.2829123936 0.3923968617)
5(0.07126429384 0.1090967025 0.1900390151 0.2600748043 0.3725716296)
5(0.06669467087 0.1002149958 0.1734284473 0.2314082789 0.3249205968)
5(0.06065553852 0.09052316183 0.1526984842 0.1973315979 0.2627774273)
5(0.05412429291 0.07934887311 0.1293560396 0.1587767123 0.1970745242)
5(0.04738366309 0.06616307362 0.104102238 0.1156628125 0.128316738)
5(0.03929802573 0.04989923679 0.07473413545 0.06574520693 0.05257530107)
5(0.02929251034 0.02975792023 0.03933933965 0.008144959028 -0.03210108529)
5(0.01648715103 0.005292193071 -0.002804680341 -0.05659265648 -0.1237805727)
5(0.0006670073281 -0.02380305453 -0.05117625728 -0.1278799579 -0.2192898255)
5(-0.01843270376 -0.05727327461 -0.105033676 -0.203152087 -0.3161977182)
5(-0.04091505227 -0.09513616147 -0.1638737223 -0.2809536912 -0.4115094441)
5(-0.06673534318 -0.1365143762 -0.2261346468 -0.3588441379 -0.5015717781)
5(-0.09567033377 -0.1803818783 -0.289431581 -0.4329425403 -0.5826353627)
5(-0.1270587079 -0.2251058679 -0.3513454848 -0.5011458795 -0.6501925918)
5(-0.1602141668 -0.2698961787 -0.4095168654 -0.5594073946 -0.7012199953)
5(-0.193930272 -0.3118628292 -0.4604591102 -0.6029834697 -0.7299457231)
5(-0.2267144314 -0.3492896285 -0.500145042 -0.6298008051 -0.736331348)
5(-0.257440691 -0.3790837831 -0.5273632413 -0.6367816434 -0.7187025103)
5(-0.2836785509 -0.3997892142 -0.5398287448 -0.6227831028 -0.67875316)
5(-0.3031151705 -0.4105802087 -0.5358870157 -0.5930449024 -0.6185361738)
5(-0.3167330756 -0.4103460707 -0.5194780238 -0.5479381931 -0.5435302006)
5(-0.3213070957 -0.3980284244 -0.4867516715 -0.4901117517 -0.460224419)
5(-0.3178971651 -0.3768531859 -0.4428012604 -0.4252886624 -0.3776101469)
5(-0.3049398978 -0.3477906985 -0.3929418239 -0.3584765661 -0.3010978565)
5(-0.286842477 -0.3135125232 -0.3403829316 -0.2983619811 -0.2359242696)
5(-0.2614551131 -0.2771036865 -0.2899799982 -0.2466598063 -0.1888272111)
5(-0.2342609328 -0.2425113461 -0.2459754992 -0.2086316052 -0.1592380774)
5(-0.2083122293 -0.2152590284 -0.2154049689 -0.1830247077 -0.1407859259)
5(-0.1870901609 -0.1954746908 -0.1952153807 -0.168832987 -0.1386805598)
5(-0.169002329 -0.1811406636 -0.1829097215 -0.1634494711 -0.139598644)
5(-0.1592817686 -0.1755058939 -0.1783845897 -0.1651475852 -0.1427512243)
5(-0.1511185866 -0.1723759112 -0.1776933328 -0.1616424897 -0.1456633004)
5(-0.1539953015 -0.1735052464 -0.1764656251 -0.1577003232 -0.1436258838)
5(-0.1562381898 -0.1722472976 -0.1750779602 -0.1574101573 -0.1363159642)
5(-0.1591051645 -0.1720875135 -0.1724894967 -0.1491743418 -0.1299189918)
5(-0.1593097577 -0.160749686 -0.1595456222 -0.1417785667 -0.1184231732)
5(-0.1677795369 -0.1634921876 -0.150725675 -0.124514455 -0.1060487827)
5(-0.1678154854 -0.1550546962 -0.135537227 -0.1007729933 -0.09554695989)
5(-0.1592487167 -0.1365681455 -0.123579861 -0.08947224903 -0.0819590289)
5(-0.1559123206 -0.1283654467 -0.1086425522 -0.07627540227 -0.0734221732)
5(-0.1433030337 -0.1178407779 -0.1008382536 -0.06310191987 -0.06352991703)
5(-0.154614233 -0.1053365829 -0.07994665742 -0.0554253114 -0.05651445763)
5(-0.1421849709 -0.08585963238 -0.06759031132 -0.04769358527 -0.05179636483)
5(-0.1519455826 -0.07639159773 -0.05654180765 -0.03921026416 -0.04828057114)
5(-0.13139318 -0.06350025873 -0.04888858576 -0.03027899244 -0.04751960069)
5(-0.1311347919 -0.05760667111 -0.04044622095 -0.0240323055 -0.05386099906)
5(-0.1250573529 -0.04614888288 -0.03108003237 -0.01930281317 -0.04730233177)
5(-0.1331092693 -0.04058574058 -0.0288521021 -0.01680844232 -0.04651090369)
5(-0.114899686 -0.02900743457 -0.02045352659 -0.01122816196 -0.04386058696)
5(-0.1045949734 -0.02499104215 -0.01679042897 -0.009857697304 -0.04284556097)
5(-0.0827009627 -0.01904538642 -0.01265170368 -0.007968065848 -0.05206882609)
5(-0.07879075591 -0.01376537673 -0.009831252511 -0.006689424996 -0.058745846)
5(-0.0624311504 -0.01128395146 -0.007580379426 -0.005030057348 -0.05935268098)
5(-0.105827081 -0.01001114145 -0.006464849982 -0.004811939633 -0.08574172212)
5(-0.05100519392 -0.05843163654 0.09736866315 -0.07532412252 -0.08480655047)
)


60
(
5(0.4811260767 0.5415113482 1.625476993 2.108238233 4.238404934)
5(0.3166951597 0.4372448491 0.9392758935 1.348216836 2.262466403)
5(0.2368197083 0.3703711572 0.6640761956 1.001744317 1.484175801)
5(0.1991549258 0.3256840254 0.5545910361 0.8307390762 1.169972869)
5(0.1833286451 0.2958852447 0.5061016417 0.7272216586 1.015012637)
5(0.1746694759 0.2719585252 0.4649075702 0.6356853241 0.8763053692)
5(0.1633713786 0.2462920125 0.410890706 0.5351564291 0.7065243088)
5(0.1484161986 0.2169825198 0.3468332231 0.4251852822 0.5220554794)
5(0.1309813837 0.1823857133 0.2760594533 0.3066371922 0.3334369809)
5(0.1106861391 0.1409465925 0.1978318333 0.1776755219 0.1388368667)
5(0.08572529138 0.09114279379 0.108949453 0.03580501796 -0.06804963368)
5(0.05473500253 0.03179668467 0.007131220922 -0.1189840619 -0.2864361566)
5(0.0166034913 -0.03754841283 -0.1074009548 -0.2848236092 -0.5107302895)
5(-0.02916140401 -0.1166367725 -0.2326727031 -0.4581115133 -0.7342969062)
5(-0.08263769136 -0.2047178339 -0.3666217059 -0.6346620895 -0.9513731158)
5(-0.143720271 -0.3003403255 -0.5061834947 -0.809688184 -1.156150678)
5(-0.2118536614 -0.4014375658 -0.6485357797 -0.9780678062 -1.341519035)
5(-0.2857776809 -0.5052919058 -0.7880243386 -1.133439602 -1.49961145)
5(-0.363786226 -0.6089018031 -0.9207047728 -1.269626708 -1.624854637)
5(-0.4436476916 -0.7081563331 -1.039087814 -1.380502571 -1.709904372)
5(-0.5224615516 -0.7994413016 -1.138722233 -1.458957887 -1.75035359)
5(-0.59690348 -0.8771192135 -1.212147531 -1.497272709 -1.740842644)
5(-0.6633027123 -0.9360715447 -1.257433095 -1.497594264 -1.685885251)
5(-0.7160769897 -0.973028905 -1.269582919 -1.456984461 -1.58554965)
5(-0.7539115061 -0.9851431465 -1.247071982 -1.378434887 -1.447253362)
5(-0.7728871542 -0.9709339422 -1.190326115 -1.264900204 -1.277135735)
5(-0.770756584 -0.9290681918 -1.101267454 -1.125241419 -1.088885865)
5(-0.7463384662 -0.8656192857 -0.991168305 -0.9693220648 -0.8964253547)
5(-0.7031533287 -0.7806861716 -0.862116748 -0.805653718 -0.707146795)
5(-0.6399293727 -0.6834901347 -0.725539978 -0.649527096 -0.5365788858)
5(-0.5675495583 -0.5819636357 -0.5938067799 -0.5092952978 -0.4015135456)
5(-0.4879556362 -0.4811164496 -0.4740609805 -0.3927362431 -0.2962042837)
5(-0.407724872 -0.3910048565 -0.3778613618 -0.3063080036 -0.2306425816)
5(-0.3359240909 -0.3217006043 -0.3034447499 -0.2517721642 -0.1900014395)
5(-0.2771020934 -0.2678198213 -0.2517959925 -0.2222501097 -0.1807092039)
5(-0.2308367681 -0.2346033744 -0.2278084203 -0.2090594595 -0.183011739)
5(-0.1937577008 -0.2175073567 -0.2178452145 -0.2065204438 -0.187823566)
5(-0.1952915632 -0.211894269 -0.2192696672 -0.2107746069 -0.1990121845)
5(-0.1870094118 -0.2102321302 -0.2258929591 -0.2160269496 -0.2096144215)
5(-0.1954613923 -0.2094596825 -0.2251786894 -0.2157462183 -0.2030918806)
5(-0.2101537502 -0.216305779 -0.2267123439 -0.2103433242 -0.2037614807)
5(-0.2105786584 -0.2195429192 -0.2230522408 -0.2036120317 -0.1841129056)
5(-0.2273000867 -0.2157220725 -0.2143587236 -0.1894286751 -0.176202724)
5(-0.2276946905 -0.2106094394 -0.1996385983 -0.166093903 -0.1607643174)
5(-0.234434675 -0.1924698592 -0.17928003 -0.1478410305 -0.1515936741)
5(-0.2231657425 -0.1769524646 -0.169098411 -0.1289494547 -0.1284572902)
5(-0.2230489065 -0.1671234727 -0.1501477874 -0.1096086934 -0.125493149)
5(-0.2173208412 -0.1540397175 -0.131355664 -0.09533910569 -0.1101916404)
5(-0.2210896023 -0.1343958425 -0.1099256576 -0.08163719739 -0.1044055916)
5(-0.2130797006 -0.1228508299 -0.09602000877 -0.06639727568 -0.1029397187)
5(-0.2111626834 -0.1063405003 -0.07975288138 -0.05684253054 -0.08716802809)
5(-0.1913568252 -0.09066252086 -0.06613189075 -0.04626967949 -0.09379351757)
5(-0.1760488422 -0.07252101477 -0.05520630851 -0.03890839298 -0.08542723707)
5(-0.1818392921 -0.06429484099 -0.0447456732 -0.02853241432 -0.0878185267)
5(-0.1630020109 -0.05221829395 -0.03596461922 -0.02392727335 -0.08314563884)
5(-0.1922609661 -0.04301478557 -0.02898591141 -0.0188300311 -0.08655214868)
5(-0.1679302669 -0.03539109425 -0.02501962734 -0.01568737629 -0.0872979882)
5(-0.1593333215 -0.02832758026 -0.01898886595 -0.01290741943 -0.09032663216)
5(-0.1487734413 -0.02592996939 -0.01573842166 -0.01040173055 -0.1169853514)
5(-0.1025588019 -0.1025676209 0.1160488357 -0.1089925303 -0.1264364924)
)


60
(
5(0.7568853387 0.9474146167 2.61698881 3.665880057 6.837328186)
5(0.5471241313 0.803077934 1.663671307 2.480213294 4.021247621)
5(0.4349229793 0.6963956608 1.243434275 1.888571308 2.788207049)
5(0.3752254036 0.6149620945 1.047872674 1.554891125 2.190996215)
5(0.3459596564 0.5544458515 0.9336683297 1.323818138 1.823530298)
5(0.3261763613 0.5019309051 0.8297484312 1.117161638 1.497554014)
5(0.3013614368 0.445623854 0.7105885038 0.9039324991 1.14778619)
5(0.2699727971 0.3819080561 0.5778653858 0.681176013 0.7893770108)
5(0.2330662255 0.3083022705 0.434394904 0.4478957845 0.4302498867)
5(0.1898718902 0.222802471 0.2785584879 0.2006458264 0.06449909338)
5(0.1377800633 0.123154239 0.1061615633 -0.06319869785 -0.3141975602)
5(0.07464749007 0.008358950948 -0.08445503581 -0.3427533402 -0.7027224664)
5(-0.0005030467243 -0.1215513316 -0.2918135597 -0.6343983723 -1.091297371)
5(-0.08788640692 -0.2655944123 -0.5125358604 -0.9320463486 -1.469459781)
5(-0.1873846857 -0.4219366463 -0.7426715982 -1.228445763 -1.828319025)
5(-0.2982509865 -0.5884177788 -0.977900496 -1.516128651 -2.158312878)
5(-0.4189087893 -0.7605468538 -1.211186492 -1.786746085 -2.448682779)
5(-0.5471401526 -0.9333943286 -1.434545604 -2.029121836 -2.690450359)
5(-0.6793297535 -1.102963624 -1.642508757 -2.23803649 -2.872864859)
5(-0.8123103872 -1.262578283 -1.824138331 -2.401692812 -2.989706557)
5(-0.9409970128 -1.404370837 -1.973732901 -2.514585947 -3.034969697)
5(-1.058395851 -1.524517941 -2.081370417 -2.564158363 -3.002831194)
5(-1.160723888 -1.61186192 -2.140081706 -2.553011437 -2.901640284)
5(-1.243285408 -1.662574592 -2.144318027 -2.479722323 -2.73102031)
5(-1.296278044 -1.672647545 -2.09922845 -2.34669994 -2.503441132)
5(-1.319091053 -1.642918603 -2.00030727 -2.160510369 -2.225750523)
5(-1.307045639 -1.570955654 -1.852441026 -1.930861086 -1.916867659)
5(-1.26188165 -1.460066462 -1.665311631 -1.672024991 -1.594902243)
5(-1.180713538 -1.316282055 -1.449475969 -1.399402351 -1.279751131)
5(-1.071120728 -1.149346662 -1.219492279 -1.131021615 -0.9853335478)
5(-0.9417649402 -0.9703012036 -0.991132397 -0.8823458499 -0.7288947899)
5(-0.7996660135 -0.7935516784 -0.7769127913 -0.6670605015 -0.5221060088)
5(-0.6554835025 -0.6303999047 -0.5984633062 -0.4935159612 -0.3709756984)
5(-0.5243200217 -0.4901392671 -0.4534888889 -0.3705037669 -0.2740516287)
5(-0.4083193239 -0.3799641205 -0.3482791253 -0.2905162229 -0.2149997863)
5(-0.3210054271 -0.3018984425 -0.2824595623 -0.2469390856 -0.2037803559)
5(-0.2613456034 -0.2555576174 -0.2465127677 -0.2315295528 -0.2058752197)
5(-0.2214410879 -0.233545402 -0.2397252445 -0.231968108 -0.2172989242)
5(-0.209588602 -0.2299920066 -0.2430545447 -0.239781746 -0.2390220334)
5(-0.214063731 -0.2368976687 -0.2510429877 -0.2495750946 -0.2534039563)
5(-0.2200584654 -0.2446637053 -0.2611533761 -0.2567301966 -0.2612464255)
5(-0.2428408991 -0.2515803591 -0.2652459451 -0.2540016767 -0.254429008)
5(-0.2542476265 -0.2572689734 -0.2602221622 -0.2454582862 -0.2583600972)
5(-0.271884203 -0.2581566108 -0.2534167063 -0.2300505339 -0.250040319)
5(-0.2727841204 -0.2522396226 -0.2466772397 -0.2116661528 -0.2288041545)
5(-0.2816933698 -0.2405877054 -0.2278654265 -0.1899257298 -0.1949534581)
5(-0.2747762644 -0.2285413302 -0.2114580737 -0.1703400281 -0.1933053188)
5(-0.2848952989 -0.2112456204 -0.190708702 -0.1478219743 -0.1660067566)
5(-0.2662670511 -0.1932783691 -0.168228631 -0.1269721466 -0.1695888445)
5(-0.2731051162 -0.1773069721 -0.1451762133 -0.1078832177 -0.1645090199)
5(-0.2748284765 -0.1591477392 -0.1239963554 -0.09167509708 -0.1704709486)
5(-0.2771515884 -0.1370401822 -0.1061168575 -0.07856333208 -0.1414004924)
5(-0.25786823 -0.1214703408 -0.09144279378 -0.06587891918 -0.1438630355)
5(-0.2726902968 -0.1066988119 -0.077582416 -0.05524234732 -0.1265267134)
5(-0.2340025372 -0.09063626757 -0.06245237959 -0.04278558087 -0.1263633661)
5(-0.2690061508 -0.07656636928 -0.0510110319 -0.03314599436 -0.1310029086)
5(-0.2276079298 -0.06654992962 -0.04417882826 -0.02946879721 -0.1299397793)
5(-0.2130442819 -0.05649580709 -0.0369891214 -0.02433246943 -0.1386640307)
5(-0.1898888053 -0.04448453765 -0.02942559616 -0.02010632867 -0.1511116405)
5(-0.1628943038 -0.06925072941 -0.4801456935 -1.40266461 -1.08820751)
)


60
(
5(1.111573607 1.497833875 3.870609336 5.691785048 10.11256625)
5(0.8547503061 1.301818606 2.605583233 3.962403143 6.283469764)
5(0.7041829096 1.137776595 2.001161133 3.041864158 4.462127555)
5(0.6138943858 1.000509364 1.682992452 2.480200273 3.479673503)
5(0.5627335199 0.892263399 1.471133333 2.068341434 2.823228091)
5(0.5241973488 0.7959665465 1.275716697 1.702291091 2.244347055)
5(0.4778764354 0.6938183345 1.065926222 1.339125074 1.658724567)
5(0.4218750679 0.5812934926 0.84138921 0.970721928 1.076503327)
5(0.3570748684 0.4546980943 0.6037489515 0.5925943893 0.5011189621)
5(0.2818319434 0.3110804278 0.350178346 0.1993252869 -0.07757899212)
5(0.1929913665 0.1483982409 0.07575539691 -0.2122124335 -0.6656942415)
5(0.08840556417 -0.03441017934 -0.2208709785 -0.6407415378 -1.257830588)
5(-0.03300569736 -0.2366550772 -0.5373825012 -1.079261976 -1.84005039)
5(-0.1711305821 -0.4568439439 -0.8677863847 -1.520380156 -2.397663257)
5(-0.3250636584 -0.6916787702 -1.207200793 -1.953500555 -2.91813532)
5(-0.4933953976 -0.9375646158 -1.547552263 -2.368085681 -3.388891495)
5(-0.6737516085 -1.188205448 -1.881528719 -2.751783319 -3.795807114)
5(-0.8619481723 -1.437428207 -2.198213053 -3.091875744 -4.127769915)
5(-1.053804381 -1.678248409 -2.486832301 -3.382400039 -4.373521875)
5(-1.243484345 -1.902110778 -2.737348028 -3.606388912 -4.524879515)
5(-1.424737997 -2.10064403 -2.939618431 -3.754716872 -4.574422116)
5(-1.590750391 -2.264971491 -3.081629818 -3.820542084 -4.520223845)
5(-1.732144931 -2.384203485 -3.156577667 -3.799248908 -4.369385067)
5(-1.841787901 -2.452003604 -3.160338831 -3.69125526 -4.120864762)
5(-1.911874039 -2.463924222 -3.090382888 -3.502632097 -3.795184056)
5(-1.940677185 -2.415775526 -2.947092601 -3.240743876 -3.403467889)
5(-1.919821998 -2.315261869 -2.738786219 -2.917632792 -2.963424145)
5(-1.849742073 -2.157973307 -2.474560058 -2.550637358 -2.502356658)
5(-1.733388557 -1.953979957 -2.169266122 -2.159670706 -2.036989473)
5(-1.578728007 -1.714979489 -1.841062172 -1.767743271 -1.598488309)
5(-1.390934385 -1.45706989 -1.509023667 -1.392374922 -1.20390887)
5(-1.183548554 -1.195729395 -1.192073949 -1.056766191 -0.8655820742)
5(-0.9724531768 -0.9479577445 -0.9092024191 -0.7748721949 -0.6095597079)
5(-0.7722964195 -0.7277542199 -0.6737161576 -0.5572622763 -0.4201774642)
5(-0.5949020156 -0.5441893127 -0.4937871146 -0.4032531232 -0.3014057913)
5(-0.4468033707 -0.4051270846 -0.3691054933 -0.3078885941 -0.242650061)
5(-0.335200991 -0.3127188156 -0.2916192535 -0.2584598805 -0.2235213994)
5(-0.2671526143 -0.2590724262 -0.2540312429 -0.2419239325 -0.2277448265)
5(-0.2273608254 -0.2357734211 -0.2454921262 -0.2474186532 -0.2507161316)
5(-0.215957346 -0.2345912923 -0.2550660154 -0.2632536905 -0.2758900134)
5(-0.2208444258 -0.2459649289 -0.2718656914 -0.2775637961 -0.2802905897)
5(-0.238509207 -0.2622534318 -0.2858923638 -0.2857245823 -0.2958653591)
5(-0.2555587394 -0.2762978407 -0.2924374433 -0.2885800211 -0.2969837091)
5(-0.2808979156 -0.2835130358 -0.2926234725 -0.2794844186 -0.2916706183)
5(-0.2931775193 -0.2841031903 -0.2845987577 -0.2651253327 -0.2933477883)
5(-0.2985030169 -0.2784633568 -0.2759225118 -0.244742512 -0.2885839767)
5(-0.3118147088 -0.2673350162 -0.2594193211 -0.2258535621 -0.2723326725)
5(-0.3197549481 -0.2539302104 -0.2350390701 -0.197059943 -0.256058163)
5(-0.3169867777 -0.2396473879 -0.2102615021 -0.1761248251 -0.2439132591)
5(-0.319489324 -0.2235297273 -0.1914293655 -0.1561734059 -0.2067482216)
5(-0.3231864881 -0.2071242034 -0.1717892677 -0.1382747786 -0.1994589385)
5(-0.3384856867 -0.1839823991 -0.1523094751 -0.1212989036 -0.2078544639)
5(-0.336507292 -0.1686895611 -0.1361872055 -0.09878023883 -0.2079870815)
5(-0.3411633819 -0.1551236056 -0.1181195678 -0.08445851927 -0.1964394715)
5(-0.3175743919 -0.1392485186 -0.1027038287 -0.07165802952 -0.1852678355)
5(-0.3239569101 -0.1219143549 -0.08662328923 -0.05908748275 -0.1838375479)
5(-0.3086013316 -0.1098726543 -0.07415285176 -0.05138745887 -0.1760990948)
5(-0.277016121 -0.09134698003 -0.06230764795 -0.04322042003 -0.185490545)
5(-0.2553219835 -0.07667628752 -0.05238791423 -0.0362878503 -0.2268879537)
5(-0.2380476519 -0.2310329928 -0.08960152132 -0.2077235568 -0.2039495101)
)


60
(
5(1.547551602 2.201671221 5.389387278 8.202155995 14.10598425)
5(1.241960134 1.936497262 3.764270502 5.801049445 9.065093328)
5(1.043495505 1.693767816 2.935251732 4.461817776 6.516036255)
5(0.9145190798 1.481386512 2.457399419 3.60610424 5.057931554)
5(0.8333750267 1.307492027 2.11422665 2.962274629 4.027677435)
5(0.7670783539 1.150966224 1.799377485 2.394942294 3.127946402)
5(0.6908835756 0.9883705095 1.474957975 1.846066968 2.248900847)
5(0.6015947866 0.8133398219 1.137593205 1.300041737 1.391397571)
5(0.5002615001 0.6206972279 0.7866263338 0.7483526957 0.5543462146)
5(0.3844495407 0.4070343635 0.4175613241 0.1826573208 -0.2775708948)
5(0.2505397691 0.1697749877 0.02480750792 -0.4010677687 -1.111542109)
5(0.09632962328 -0.09187751721 -0.3933716096 -1.000566885 -1.939756223)
5(-0.07918952871 -0.3766371204 -0.8325078505 -1.607039224 -2.741979698)
5(-0.2754990057 -0.6821760892 -1.285963185 -2.209680656 -3.502621101)
5(-0.4907170964 -1.00408591 -1.745564037 -2.795699852 -4.203198014)
5(-0.7225397848 -1.336634159 -2.202754497 -3.352120026 -4.831757599)
5(-0.9677234019 -1.673081946 -2.64636348 -3.861565293 -5.366691881)
5(-1.221423255 -2.003962796 -3.062473861 -4.311341058 -5.799054371)
5(-1.476981834 -2.321213362 -3.439348017 -4.687446848 -6.114074669)
5(-1.72632523 -2.615312355 -3.763767691 -4.977629829 -6.306162183)
5(-1.963942432 -2.873472017 -4.022806028 -5.169980291 -6.364135733)
5(-2.178459506 -3.086231871 -4.205972724 -5.25395768 -6.282835777)
5(-2.361435922 -3.241417571 -4.300600221 -5.225335605 -6.077830828)
5(-2.500980029 -3.330982452 -4.304273682 -5.086958079 -5.754816203)
5(-2.592457224 -3.349878376 -4.215703899 -4.845296878 -5.327883542)
5(-2.626702437 -3.295367907 -4.034903685 -4.508224981 -4.812767661)
5(-2.601283382 -3.162590043 -3.766927164 -4.09076964 -4.234832431)
5(-2.512072265 -2.961488093 -3.427813721 -3.612723528 -3.622822984)
5(-2.363849342 -2.699080802 -3.030354133 -3.097124205 -2.998313498)
5(-2.162569284 -2.389048872 -2.597071978 -2.57011523 -2.39858645)
5(-1.916774961 -2.047059712 -2.153291908 -2.061100297 -1.844132211)
5(-1.644752518 -1.695874053 -1.722158645 -1.588345294 -1.35829007)
5(-1.362628029 -1.354808044 -1.329742903 -1.178128794 -0.9609726645)
5(-1.088259225 -1.044067646 -0.9864695841 -0.8444598063 -0.6604830953)
5(-0.8389765859 -0.776527425 -0.7095310195 -0.5925177515 -0.4445206953)
5(-0.6210565612 -0.5621967856 -0.5042243487 -0.4171963652 -0.3156227037)
5(-0.4577930718 -0.4055094715 -0.3679950291 -0.3106541184 -0.2540586356)
5(-0.3349585193 -0.3031209831 -0.2897948112 -0.2610370371 -0.2385379432)
5(-0.2634152491 -0.2486075999 -0.2547127713 -0.2503159177 -0.2482847427)
5(-0.223163277 -0.2295780873 -0.250577434 -0.2575143591 -0.2693470023)
5(-0.2149795878 -0.2332703332 -0.2639983898 -0.2757399121 -0.3114891959)
5(-0.222492119 -0.2492742654 -0.2860049023 -0.2972871748 -0.3166290555)
5(-0.2342666114 -0.2683037337 -0.3036937955 -0.3111942495 -0.3434626523)
5(-0.2600576043 -0.2850081684 -0.3153149456 -0.3135770183 -0.3328763141)
5(-0.2905035757 -0.2971661543 -0.31850419 -0.3088345366 -0.347658776)
5(-0.3078897223 -0.3032404003 -0.3151303484 -0.2934903904 -0.3412947486)
5(-0.3419568622 -0.3019322855 -0.3026053002 -0.2760191908 -0.3228527068)
5(-0.3349068891 -0.2933067673 -0.2772837124 -0.2552548995 -0.3312721353)
5(-0.3505352297 -0.2825594047 -0.2649146757 -0.2304922449 -0.3127528665)
5(-0.3771599975 -0.2680668279 -0.2427519918 -0.2060780285 -0.2926993461)
5(-0.3656927203 -0.2520573791 -0.2207564296 -0.1830412345 -0.2580112311)
5(-0.3764901715 -0.2344155845 -0.2025934189 -0.1636534135 -0.2738093668)
5(-0.3641344262 -0.2158317691 -0.1851930802 -0.1450534943 -0.2610511382)
5(-0.3629025755 -0.199313689 -0.1658489145 -0.1271833381 -0.2494524093)
5(-0.3590767117 -0.1853284504 -0.1485625873 -0.1094104108 -0.2361172537)
5(-0.3780135342 -0.1699393213 -0.1312396437 -0.09510055452 -0.2733673939)
5(-0.3510817656 -0.1591364542 -0.1144401715 -0.08149736165 -0.2311189621)
5(-0.3763208073 -0.1382823348 -0.1013348104 -0.07177413717 -0.2715860329)
5(-0.3283667918 -0.1229644086 -0.08605613109 -0.06019423193 -0.2808096895)
5(-0.3401095533 -0.3061496794 -0.112607452 -0.2745924282 -0.2510594399)
)


60
(
5(2.066784684 3.06023997 7.175613822 11.2079964 18.84375201)
5(1.70889724 2.705707152 5.134223442 8.008648397 12.39200439)
5(1.455918292 2.364778684 4.039227873 6.161205642 8.983930855)
5(1.27654083 2.055508103 3.365706027 4.943112314 6.927786187)
5(1.155600746 1.797385695 2.860535578 4.013392146 5.446283066)
5(1.052439076 1.564520494 2.399742402 3.202151376 4.158233656)
5(0.9372843514 1.326855651 1.938343908 2.431911316 2.928854443)
5(0.8062716469 1.07587071 1.468350349 1.677189219 1.745946492)
5(0.6600050432 0.8049563147 0.9862749532 0.9239185315 0.6029275377)
5(0.4953418544 0.5097895273 0.4853095397 0.1600426236 -0.521662829)
5(0.3083031276 0.1874512052 -0.04110394696 -0.6193148418 -1.635102045)
5(0.09693520618 -0.1629488689 -0.5947591786 -1.4113388 -2.72799222)
5(-0.1399493049 -0.5394931327 -1.169868533 -2.204576097 -3.778807687)
5(-0.4009335794 -0.9388524529 -1.75874944 -2.98670812 -4.762183198)
5(-0.6836871275 -1.354981507 -2.350029258 -3.74130037 -5.665246882)
5(-0.9849376344 -1.78224804 -2.933959224 -4.452479984 -6.46365441)
5(-1.300218532 -2.210537183 -3.495363474 -5.101510295 -7.142812926)
5(-1.623041104 -2.630320904 -4.019673478 -5.671304737 -7.685330754)
5(-1.945721403 -3.029202942 -4.491042282 -6.145239758 -8.083701305)
5(-2.259436508 -3.397170614 -4.896650425 -6.511318719 -8.315782687)
5(-2.555631004 -3.721761088 -5.220758869 -6.754244605 -8.390073478)
5(-2.821245325 -3.986025776 -5.448794304 -6.864451322 -8.295888663)
5(-3.047704503 -4.180607354 -5.570329331 -6.837936409 -8.038618563)
5(-3.222025994 -4.295599495 -5.579529003 -6.673652512 -7.638755276)
5(-3.33314806 -4.321617029 -5.473462009 -6.381057433 -7.106739477)
5(-3.378101503 -4.257311654 -5.256102076 -5.970822552 -6.473492512)
5(-3.347509668 -4.101709468 -4.933282272 -5.459878789 -5.745721994)
5(-3.241734566 -3.85911493 -4.52028058 -4.868628175 -4.972501887)
5(-3.068922402 -3.540953122 -4.033298032 -4.224859488 -4.182214393)
5(-2.817048411 -3.160925384 -3.496118291 -3.558987506 -3.406592926)
5(-2.521289134 -2.737076251 -2.935523607 -2.900470509 -2.674209537)
5(-2.180985537 -2.294697933 -2.38277699 -2.279709683 -2.032027227)
5(-1.830657918 -1.859503996 -1.864741028 -1.722396532 -1.466915809)
5(-1.481154607 -1.449122728 -1.399810716 -1.250736702 -1.022431582)
5(-1.15124899 -1.083660968 -1.01224167 -0.8766574488 -0.6836771569)
5(-0.8629501637 -0.7818818281 -0.7108724854 -0.5976946377 -0.4587489385)
5(-0.6277731243 -0.5500754212 -0.4936369409 -0.4110321644 -0.3183275592)
5(-0.4491998852 -0.386603373 -0.3511253129 -0.3056445312 -0.2597755105)
5(-0.3238958418 -0.2851461938 -0.2728013194 -0.2603429491 -0.2540736289)
5(-0.2542156881 -0.2325635291 -0.2446813933 -0.2507078087 -0.2641867641)
5(-0.2134343387 -0.2163155856 -0.2492751339 -0.2670866158 -0.2990475933)
5(-0.2080239758 -0.2254022252 -0.2693293092 -0.2936075219 -0.347293406)
5(-0.2246812833 -0.2461883117 -0.2929008644 -0.3204514622 -0.3662240156)
5(-0.2394677857 -0.2696642949 -0.3144205606 -0.3366748997 -0.3935325102)
5(-0.2663293587 -0.2904460958 -0.3316235959 -0.3406883129 -0.3951237286)
5(-0.2960216784 -0.3074268701 -0.33987115 -0.3348716116 -0.3981126977)