/*--------------------------------*- C++ -*----------------------------------*\
| =========                 |                                                 |
| \\      /  F ield         | OpenFOAM: The Open Source CFD Toolbox           |
|  \\    /   O peration     | Version:  2.3.1                                 |
|   \\  /    A nd           | Web:      www.OpenFOAM.org                      |
|    \\/     M anipulation  |                                                 |
\*---------------------------------------------------------------------------*/
FoamFile
{
    version     2.0;
    format      ascii;
    class       dictionary;
    location    "constant";
    object      rH;
}
// * * * * * * * * * * * * * * * * * * * * * * * * * * * * * * * * * * * * * //

rH_table
60
(

60
(
5(-0.1924851973 -0.07953076863 -0.996983801 -0.793205892 -5.04681152)
5(-0.03463834556 -0.009925437764 -0.1663881129 -0.165162502 -0.451180582)
5(-16.42611179 0.004610889008 0.03519364045 0.00811583683 0.001441640163)
5(-46.02699131 0.008755260203 0.08830175867 0.05497801816 0.217436061)
5(-33.67159554 -0.0008020760689 0.02194745685 0.01173699613 0.1159707242)
5(-15.17563449 -0.01354411181 -0.01006255682 -0.05810283115 -0.05235093417)
5(-0.01763115172 -0.01878802435 -0.06588768158 -0.06123566147 -0.2625496931)
5(-0.0075293621 -0.02222275776 -0.09574796853 -0.09320363115 -0.05420842543)
5(-8.495375596 -0.03103055169 -0.258974799 -0.1060788991 -0.1170654385)
5(-8.279406392 -0.4606806508 -0.3584657877 -0.1656840815 -0.1979079545)
5(-5.910837898 -0.6673975023 -0.321104881 -0.2741649225 -0.2637298389)
5(-3.479727935 -0.08687768572 -0.227961461 -0.2335652442 -0.4248825445)
5(-0.04086621967 -0.115422366 -0.2196131012 -0.3548715966 -0.4871465607)
5(-0.07004539433 -0.1472823113 -0.2765282695 -0.3342739098 -0.5220924262)
5(-0.06738956456 -0.1587289095 -0.2954697643 -0.4364119988 -0.5543595911)
5(-0.395696682 -0.5802372522 -0.5264107472 -0.639019232 -0.6895468365)
5(-0.3473260862 -0.4526114708 -0.5733960621 -0.5798322307 -0.741503683)
5(-0.1937793354 -0.3418150518 -0.4199721661 -0.572070607 -0.770472921)
5(-0.1127396748 -0.2525958686 -0.4121527409 -0.5480222037 -0.6843329584)
5(-0.1241858758 -0.2223535173 -0.4120930964 -0.5562313858 -0.5575521603)
5(-0.1158803764 -0.178945354 -0.3454910654 -0.4511517542 -0.5285192618)
5(-0.1052790365 -0.1571262091 -0.2466419039 -0.3037104266 -0.3636031981)
5(-0.09037064336 -0.1241705757 -0.1639377987 -0.224298332 -0.2667629519)
5(-0.06449184146 -0.07970277096 -0.1158125432 -0.1007632234 -0.09356690453)
5(-0.01916611856 0.1103171967 -0.02537611785 0.02871688902 0.09680490295)
5(0.005924159539 0.4160673793 0.08988819837 0.1592168766 0.1611140595)
5(0.01450060662 0.3918725129 0.1443456958 0.2436853546 0.2194927253)
5(0.03492313516 0.0858699363 0.2015825619 0.2992146131 0.2637202485)
5(0.05853207178 0.1145952602 0.2142790764 0.2748622822 0.3103580931)
5(0.0725905425 0.1472335488 0.2403825531 0.1742177495 0.2014912721)
5(0.09168927844 0.1756251764 0.2569653203 0.3063792508 0.03290655633)
5(0.1071930477 0.1767853572 0.1634182662 0.2195639959 -0.2511943404)
5(0.1011661111 0.1962516507 0.07837470006 0.08941189366 -0.3860612336)
5(0.1443295221 0.2162581121 0.01223685626 -0.008470373254 -0.3625742819)
5(0.2035345907 0.1773477347 -0.1061104559 -0.1085379515 -4.410657261)
5(0.2765092457 0.2861915053 0.1421845043 -0.164570317 -6.472151542)
5(0.3622097473 0.2830512297 0.08759808235 -0.1552912269 -0.9799938797)
5(0.415539051 0.4007839148 0.01632340835 -0.6017309553 -2.975273231)
5(0.5337267649 0.5513137843 -0.5650248616 -0.7810592552 -5.053155851)
5(0.7992407653 0.6449545811 0.5039547308 -0.7801917686 -2.611547601)
5(1.012896777 0.3636755398 1.395709353 -8.66876499 -6.090392274)
5(1.222104456 -0.1308633511 0.4117162019 -70.52904051 -0.001129622445)
5(1.169217777 0.2014241976 -0.7972980254 -0.0009055784511 -0.002345972112)
5(0.7758760253 0.9227506903 -3.963828622 -0.002774938986 -6.985667329)
5(0.18582299 1.57332432 -12.96607537 0.0003601865858 -0.8058079024)
5(-0.3211264434 -0.7705523867 -3.617001648 -0.002481710363 -0.002667862063)
5(-0.4026158668 -10.81337729 -60.94670474 -0.6111512303 -0.002201821845)
5(-10.76301165 -2.473103167 -8.684281699 -0.006059000008 -0.003270956865)
5(-2.394242339 -2.289780293 -0.5140674377 -0.01206075827 -0.01056627732)
5(-2.717402204 -3.337394965 -0.02663624071 -0.004455237205 -0.01917642089)
5(-25.42962387 -0.003151024189 0.002422783539 -0.01625733423 -0.07660335339)
5(-65.70159239 -0.003571850833 -0.009445126379 -0.009532373882 -0.04980266094)
5(-9.512112559 -0.08033571817 0.006273985565 0.007486359884 -0.0181454475)
5(0.003341902814 -0.03727324017 -0.03902909181 -0.04652003477 -0.1133446548)
5(0.0009315329373 -0.06855794139 -0.009479850922 0.0004761550255 -0.02800576364)
5(-19.10668752 -0.01928158369 0.009742510482 -0.06526430122 0.009857422181)
5(-63.4999857 -0.008586444653 0.007437563872 -0.006350987602 0.03822901567)
5(-73.84194136 -33.02475796 -0.03822661835 -0.1702262797 -0.6655076529)
5(-51.23157801 -47.1897453 -31.16348206 -0.08649463299 0.8478476345)
5(0.03655055695 0.05867157276 0.09248171014 0.1499739619 0.1854311586)
)


60
(
5(-0.5147154462 -0.4987044904 -3.560355528 -5.088933556 -19.62354798)
5(-0.2214398175 -0.4308761463 -1.531220883 -2.970490974 -7.143795861)
5(-0.1851684309 -0.5612122671 -1.176368384 -2.767777609 -4.491846584)
5(-0.2388810266 -0.8288047932 -1.522265738 -3.557216022 -5.063687832)
5(-0.4100584688 -1.224976141 -2.391925158 -4.920246102 -7.483380331)
5(-0.6428610748 -1.737087717 -3.527912823 -6.683512027 -10.88881436)
5(-0.9421718015 -2.346574721 -4.68454259 -8.496735212 -13.79577802)
5(-1.275559533 -3.039223178 -5.851144256 -10.30028198 -16.1115474)
5(-1.655839393 -3.804529877 -7.067001174 -12.13993152 -18.26218003)
5(-2.071683405 -4.630018173 -8.369978593 -14.0054897 -20.7295367)
5(-2.607781865 -5.502858763 -9.789033103 -15.84842992 -22.98224514)
5(-3.13372508 -6.389318592 -11.19932814 -17.52150777 -24.85722664)
5(-3.682338293 -7.223278667 -12.4663048 -18.85606206 -26.20160724)
5(-4.223760837 -7.955221204 -13.47223428 -19.68257091 -26.52378363)
5(-4.698379958 -8.508303851 -14.10681846 -19.84726069 -25.86037087)
5(-5.047864779 -8.811201472 -14.27573449 -19.25663635 -24.16624964)
5(-5.330357677 -8.820796836 -13.90120567 -17.80537813 -21.34868924)
5(-5.381647741 -8.450802656 -12.89881428 -15.47373703 -17.26791369)
5(-5.199915216 -7.678646145 -11.18797205 -12.21296737 -12.14233549)
5(-4.75181137 -6.462078068 -8.822736212 -8.096725227 -5.888094207)
5(-4.026492027 -4.774781862 -5.744232361 -3.254105877 0.8693990702)
5(-3.00869841 -2.635354648 -2.067528656 2.280329777 8.248525927)
5(-1.634461298 -0.1157504594 2.07754313 8.181617986 15.96627764)
5(0.1347747486 2.797237494 6.730947928 14.17366562 23.35544557)
5(2.027626957 5.831849344 11.43337769 20.15505987 30.40627558)
5(4.343041749 9.10479804 16.37165241 25.91207436 36.79865631)
5(6.78472587 12.32397339 21.0087486 31.20730574 42.08164578)
5(9.278633455 15.7726434 25.28888976 35.65444867 45.58167766)
5(11.85109905 19.08854446 29.25448831 39.13887568 49.08562334)
5(14.623832 21.96288024 32.596954 41.88942685 49.97283966)
5(17.25789171 24.65314757 35.68142229 43.72798432 50.70403911)
5(19.82105563 27.25827142 37.58909103 44.7586103 49.63050882)
5(22.24771756 29.39289048 39.67735567 45.11559033 47.735385)
5(24.82831031 31.2872747 40.69570896 45.24521538 44.80922832)
5(26.88580848 33.87773548 42.43434227 44.74512586 42.82571964)
5(30.64647876 36.13372396 43.47630999 44.4396006 38.66970256)
5(32.49977549 38.9119651 45.31501363 43.15125592 34.9584033)
5(37.62588618 44.01689853 49.21371309 44.06650188 32.30675903)
5(43.34585073 45.98448261 52.58405042 45.48386188 29.82342101)
5(48.02100629 53.05391891 55.23270992 45.38241925 27.19413213)
5(53.62571682 53.93184924 51.44846155 45.78317918 19.9499066)
5(53.55241715 61.92806875 53.86530609 46.93942308 14.81542528)
5(61.13360276 63.58999786 51.49343614 44.63237322 6.190196589)
5(61.29574409 52.52951062 48.9206668 30.45372155 0.3274508164)
5(54.76718111 47.21859189 40.05088681 11.01327324 -4.472999573)
5(35.1611189 32.76149226 33.36995779 -4.605526318 -5.277825313)
5(9.150950606 22.61665883 19.40927286 -13.62251616 -6.931025699)
5(-14.96168025 11.29884747 0.8675651832 -17.27818346 -10.65562243)
5(-20.15071485 10.14352135 -14.89112863 -19.02282958 -8.244747681)
5(-45.16257248 -3.805482776 -23.39932048 -17.28282183 -8.911902975)
5(-46.2057228 -24.70241648 -25.97411547 -16.4229734 -12.79122915)
5(-64.09090849 -37.09552723 -28.30007526 -13.67821251 -7.613481585)
5(-50.39354627 -34.99510684 -23.43883231 -12.74060328 -21.11096822)
5(-44.06825834 -36.73666049 -18.48075285 -10.47932964 -6.677009196)
5(-49.16273691 -23.56782598 -14.52649545 -7.629619091 -6.440506671)
5(-35.48535759 -19.13717502 -12.41450597 -6.720381103 -4.499759547)
5(-29.84229235 -16.18446371 -9.03467344 -6.638940158 -8.71214093)
5(-15.03361833 -15.0622112 -11.62204539 -11.0478592 -3.906790685)
5(-41.9145175 -20.62209023 -7.416975694 -4.006428345 -16.39009467)
5(-9.462369341 -10.03341944 -89.63351048 -10.65256419 -10.43947636)
)


60
(
5(-1.112647538 -1.534722953 -8.695465457 -15.20483906 -46.82104856)
5(-0.7204221627 -1.568619861 -5.347916242 -11.10423283 -24.46235903)
5(-0.7413746643 -2.180800053 -4.852637414 -10.98129708 -19.40891804)
5(-1.027727802 -3.090124499 -6.107032298 -13.21693586 -21.6762567)
5(-1.555194156 -4.282825331 -8.467000225 -16.85726101 -27.40602689)
5(-2.312540354 -5.755208905 -11.45934731 -21.18427869 -34.80560384)
5(-3.207114719 -7.438376886 -14.56625143 -25.58010831 -40.97805751)
5(-4.18505541 -9.269988188 -17.5539382 -29.80916343 -46.0204213)
5(-5.224047974 -11.23694654 -20.51021982 -33.89143352 -50.47833553)
5(-6.427052607 -13.2876208 -23.53463248 -37.81050573 -54.64968676)
5(-7.728613704 -15.36517925 -26.5675293 -41.350701 -58.16829705)
5(-9.139041937 -17.36208024 -29.38887368 -44.17750733 -60.46722794)
5(-10.44252799 -19.15398798 -31.70313481 -45.95148731 -60.94069694)
5(-11.6465645 -20.6022092 -33.27750578 -46.39217869 -59.29951705)
5(-12.70729497 -21.57220187 -33.86041986 -45.29107944 -55.67271843)
5(-13.54760764 -21.89917893 -33.32892739 -42.45771801 -49.73313586)
5(-13.87945192 -21.47323417 -31.48083606 -37.81451231 -41.59419926)
5(-13.7567092 -20.13774573 -28.27480454 -31.38594937 -31.41904102)
5(-13.08867834 -17.84070262 -23.55640606 -23.19412811 -19.30767729)
5(-11.76506377 -14.51503942 -17.43498468 -13.35227744 -5.507812515)
5(-9.789425314 -10.18023826 -9.892842375 -2.117079672 9.693116479)
5(-6.9361761 -4.831956814 -1.170854524 10.20079261 25.49973605)
5(-3.393507047 1.432812861 8.602761345 23.3646733 41.78157677)
5(0.7973931409 8.433690643 19.10331922 36.79220471 57.91869023)
5(5.634344189 15.96967517 30.12710954 50.23976827 73.56034712)
5(11.22411086 24.02001584 41.38152227 63.68013711 87.50309821)
5(17.2220803 32.23413677 52.4169003 75.79761693 100.7566792)
5(23.18320922 40.64761541 62.86116062 87.09779786 111.131135)
5(30.18727231 48.73051429 72.52596033 96.38509036 120.2008505)
5(36.64999249 56.36944674 81.77255898 104.6121612 126.1063828)
5(43.78067899 63.96367772 89.6014346 110.6678887 129.945625)
5(50.50963714 70.96695912 95.80552184 115.2616361 131.4547219)
5(57.36470334 76.90488005 101.3841143 118.7715554 129.9774328)
5(64.44033394 83.07738389 106.5784286 119.8412448 127.331818)
5(70.9697422 88.64741962 110.3121184 119.9057655 122.8500969)
5(74.46198197 94.5512091 114.6719143 120.0347381 120.1769823)
5(83.21228831 99.80669735 118.9328452 120.1369601 113.5296705)
5(93.01111723 106.6070779 123.3245556 120.647328 110.6179139)
5(104.0163984 116.1061471 126.7015401 120.9828846 103.9840968)
5(113.8725795 123.8045348 130.7901972 120.498071 95.61017269)
5(120.2854829 130.1720542 135.9869516 118.9597807 84.71544911)
5(136.7951571 138.7937548 134.1412711 114.2426336 72.15191534)
5(142.6772092 140.5860705 128.5269436 101.7004571 54.87718594)
5(146.9162933 135.8795611 118.5042027 81.11043158 32.1892024)
5(139.2481141 116.0974896 98.33843068 55.46438749 19.24302419)
5(123.5348471 95.71582438 74.57021824 26.68070755 2.156449813)
5(93.10468165 66.49685633 42.0127533 5.852898197 -12.84678134)
5(52.80117741 33.56361278 6.22515878 -11.37441247 -19.49051742)
5(4.749169615 -6.0993655 -22.71946101 -25.34306864 -23.59291032)
5(-35.66310266 -33.50117239 -39.65623789 -33.8804635 -25.94017699)
5(-71.4012963 -61.9467769 -49.3188006 -37.89640569 -23.13761909)
5(-96.42840353 -78.23207157 -52.59315332 -38.39031353 -25.09630269)
5(-111.1393435 -80.96576082 -53.50606571 -38.60747344 -20.19141454)
5(-130.0909425 -75.10169216 -50.43525283 -34.41235132 -36.94496485)
5(-110.5021226 -73.36149242 -46.85850083 -29.17211803 -19.00896395)
5(-119.4739845 -64.08176098 -42.49988614 -26.88288366 -18.78983331)
5(-101.2310272 -57.67855753 -41.32153669 -24.87891956 -15.78512454)
5(-89.62631351 -54.82208696 -38.72892239 -29.15212506 -16.5417946)
5(-71.64625666 -49.30924156 -29.50845767 -24.89667848 -29.37840337)
5(-52.59766842 -43.02969814 -111.2982199 -36.68480946 -32.20865725)
)


60
(
5(-2.104505143 -3.464461728 -17.15984243 -32.93632543 -88.7555874)
5(-1.593477108 -3.754188618 -12.02141965 -25.56456803 -54.1452356)
5(-1.841196069 -5.17646098 -11.74743241 -25.57907183 -46.22182228)
5(-2.512935593 -7.077795667 -14.40738677 -29.64851053 -49.76559968)
5(-3.655640628 -9.427064554 -18.81271081 -35.95002918 -58.93425821)
5(-5.204935915 -12.23724616 -24.15794737 -43.34259777 -70.27511567)
5(-6.950357654 -15.39379895 -29.63584734 -50.76283014 -79.74324435)
5(-8.808939346 -18.73682038 -34.85550635 -57.681086 -87.14032626)
5(-10.80593498 -22.23578854 -39.90191108 -64.12305374 -93.36935842)
5(-13.04708696 -25.8140172 -44.88756949 -69.97313407 -98.67319517)
5(-15.41947924 -29.34502579 -49.64162863 -74.84362493 -102.3989517)
5(-17.81405643 -32.62613888 -53.80834895 -78.25741562 -103.6753739)
5(-20.12060146 -35.46250539 -56.96567115 -79.79168962 -102.1364712)
5(-22.11337689 -37.58791767 -58.68293402 -79.00419729 -97.31003889)
5(-23.79941339 -38.80927951 -58.70731212 -75.72196511 -89.18731328)
5(-24.93551113 -38.94716095 -56.84005252 -69.7961565 -77.88696654)
5(-25.43420836 -37.74647248 -52.85044245 -61.06195503 -63.48663169)
5(-24.96109223 -35.04994049 -46.64503551 -49.68205157 -46.08007804)
5(-23.66864053 -30.77712598 -38.18142951 -35.64230996 -26.25585779)
5(-21.04367734 -24.86087413 -27.53410369 -19.38430613 -4.002601159)
5(-17.3368885 -17.27954455 -14.79010707 -1.007919028 20.03452662)
5(-12.65856541 -8.177215333 -0.366636867 18.9307452 44.95420244)
5(-6.610580254 2.290141532 15.72513406 40.19412514 70.64234467)
5(0.9611941227 14.08049283 32.90975548 62.0533614 96.29405092)
5(9.35254224 26.96476204 51.01436312 84.12396093 122.1341206)
5(18.677557 40.69211689 69.52665012 105.8827119 145.627199)
5(28.84738852 54.75796938 88.22828106 126.9915211 167.3615138)
5(39.7598373 69.27381948 106.3175738 146.6112016 187.6133143)
5(51.26751655 83.95471804 123.7859647 164.25435 202.8061349)
5(63.02973178 98.31260415 140.3189241 180.1273291 217.5552761)
5(75.04823122 112.1681938 155.4902281 193.2765416 226.365612)
5(87.34806721 125.4298897 168.5031729 204.0841541 233.9062873)
5(99.54457498 137.8527088 180.8259846 213.0575798 236.6760978)
5(111.4909405 150.236819 191.3344349 218.6335263 237.4091512)
5(123.8406443 161.8972896 201.178934 223.1431356 233.4410076)
5(135.7949677 174.179549 209.9436872 227.6465367 231.0251226)
5(148.4879822 184.8820695 218.3210242 230.7817035 227.3078589)
5(163.4649063 197.4720988 226.9246711 233.8445277 218.1726575)
5(178.7841583 210.1214723 236.4290669 236.7127462 215.2600327)
5(194.0820531 222.5584684 247.8051264 237.5237494 198.8429958)
5(211.138462 239.8133886 254.4710951 236.7918378 191.7544848)
5(226.2777576 254.0601075 257.0145807 232.1366085 174.7135716)
5(240.1577239 261.1753262 254.2463268 218.997718 146.00193)
5(246.6033791 257.0515267 242.338225 190.7341558 113.9764935)
5(246.6121218 243.0167602 218.057885 152.3278841 77.70930221)
5(230.5518438 213.6038042 175.9397758 105.7015303 51.10132778)
5(192.4848755 165.3850432 125.178655 58.94123562 15.62236191)
5(143.6601559 113.4089419 57.32638109 19.70137794 -17.31462321)
5(54.78998524 53.71472762 3.147480967 -14.43671092 -29.69641266)
5(5.145512069 -14.35652416 -36.02221182 -39.95390425 -51.95278994)
5(-67.31379724 -78.25034858 -69.41543761 -61.77177007 -65.68309829)
5(-152.0254873 -118.8529674 -90.04523343 -66.18263173 -46.41348863)
5(-192.5585472 -142.5362273 -103.3353545 -71.2476492 -54.99048794)
5(-231.8754431 -154.1343363 -109.9662288 -71.18823418 -62.11739826)
5(-224.7538564 -161.4407673 -110.2875788 -67.85728223 -55.66371383)
5(-259.5451113 -155.4105552 -104.1918478 -70.51457279 -43.7703169)
5(-227.8606347 -153.6852697 -98.17463702 -61.44984165 -42.68727971)
5(-198.8785476 -138.6566274 -96.04915744 -66.04514381 -44.30538422)
5(-172.6908625 -118.918643 -78.14033276 -73.34898699 -47.41110131)
5(-149.6288897 -150.3333493 -24.36373961 -793.6264413 -596.6099297)
)


60
(
5(-3.604942822 -6.631949137 -29.61900514 -59.68846036 -146.849341)
5(-3.023526262 -7.280220276 -22.25525113 -47.58115758 -97.75430037)
5(-3.653514648 -9.804717782 -22.3292908 -47.30703088 -85.4970508)
5(-4.902265766 -13.01136388 -26.6667691 -53.22424509 -89.40678032)
5(-6.80573632 -16.82593714 -33.50921433 -62.38666474 -101.7386204)
5(-9.350973043 -21.2942301 -41.54644087 -72.87586738 -116.3950127)
5(-12.1834616 -26.20506892 -49.66236408 -83.28527169 -128.6735002)
5(-15.18424873 -31.34136053 -57.40613609 -92.93420514 -137.8780683)
5(-18.38415058 -36.64281529 -64.75334615 -101.6599662 -145.2599389)
5(-21.82464602 -41.95550541 -71.74396696 -109.1155937 -150.6280066)
5(-25.45413282 -47.0746776 -78.19484429 -114.926812 -153.7721529)
5(-29.08249139 -51.73243968 -83.53607853 -118.4666124 -153.1609662)
5(-32.40990916 -55.61327371 -87.1961248 -119.1650561 -148.5837882)
5(-35.4032075 -58.39673153 -88.72932406 -116.5776564 -139.5222453)
5(-37.65660817 -59.80069091 -87.76249701 -110.5616253 -126.3842649)
5(-39.07996451 -59.52426245 -84.13472954 -100.9167335 -109.1104954)
5(-39.58186247 -57.33769772 -77.52627018 -87.60040449 -87.97889861)
5(-38.69644108 -53.01279295 -67.93385677 -70.84622831 -63.04425283)
5(-36.40926453 -46.48166904 -55.36848632 -50.62683363 -35.01320131)
5(-32.53306762 -37.70933766 -39.85876485 -27.5253419 -4.123553839)
5(-27.00076813 -26.77367654 -21.64810717 -1.707313178 29.04132134)
5(-19.62898743 -13.67837942 -1.083364423 26.23243872 63.69147973)
5(-10.73633849 1.358649498 21.44337165 55.74622469 99.58595183)
5(-0.1305866547 18.31077863 45.68875011 86.26938608 135.8673248)
5(11.9371199 36.90719983 71.35533749 117.4640164 171.3503514)
5(25.52481475 56.48524258 97.94766864 148.6552254 205.7777959)
5(40.36304067 76.82411655 124.7400661 179.2493771 238.8716818)
5(56.07928094 97.83615726 151.0310159 208.401134 269.0160458)
5(73.13547838 119.1770455 176.8292255 236.012759 295.4913065)
5(89.9630579 140.7644365 201.7114808 260.9710551 318.1301496)
5(108.2154571 162.3371994 225.1570202 283.2711132 336.943635)
5(126.9132481 182.5264731 246.5079361 303.0758846 350.056611)
5(145.2523905 202.4490234 266.6867924 319.9646718 362.1093072)
5(163.8534009 221.450372 285.7310382 333.2110571 367.6757485)
5(181.8301588 240.5367967 301.7664111 343.9187034 369.8238941)
5(200.5677579 259.6028957 317.3371506 352.4340189 369.468414)
5(220.0021639 276.5235777 333.213232 359.3261269 367.943363)
5(238.6872097 294.9073542 349.0612048 367.3570687 366.0774265)
5(260.4679868 316.9927976 365.2778964 374.0894477 359.3730397)
5(283.4656866 337.9298802 378.9539603 379.2987712 353.3717054)
5(309.3009043 360.4528455 391.9573201 384.0854307 340.2698699)
5(333.1055974 378.6198095 401.6205811 382.510134 310.3058552)
5(352.3505616 391.0578606 402.8721187 370.9124625 288.7362924)
5(364.267776 397.2025071 395.5489405 340.7984671 250.3977877)
5(364.6727343 384.2918139 375.2153882 294.8829876 205.0570247)
5(364.9378572 355.0457307 328.9841273 235.7798885 144.3836873)
5(329.1835617 311.3165838 257.3304367 166.1813411 86.31051198)
5(279.5515117 243.0982893 173.3457005 95.17926661 32.81182613)
5(203.9263756 158.418384 83.89468145 36.40760125 -13.26445745)
5(109.2011008 51.63194423 1.367785371 -25.29486604 -42.54465201)
5(2.740946753 -51.12718869 -67.64794569 -71.15460432 -61.78657752)
5(-108.4627745 -136.4148005 -121.3599154 -105.6948042 -75.18450284)
5(-197.9167234 -203.4323299 -163.8312065 -121.5002866 -123.5406575)
5(-290.1893425 -254.5706695 -185.7996414 -130.2064743 -86.4510246)
5(-346.2493428 -286.2627383 -200.2139317 -132.556368 -88.94997127)
5(-386.1118564 -300.3012621 -207.1088711 -130.6513047 -97.08314814)
5(-397.0865575 -307.6134341 -195.1639385 -128.33332 -90.73214769)
5(-381.0743425 -289.283209 -196.1198437 -129.5728702 -93.40744485)
5(-354.2763807 -274.3594499 -189.8567458 -125.7948864 -117.5817711)
5(-339.2312155 -287.5217297 -251.611981 -181.4872918 -153.4073436)
)


60
(
5(-5.720004888 -11.39110659 -46.61403246 -96.82840745 -222.0972513)
5(-5.139619539 -12.41437006 -36.50852247 -77.9724609 -155.5969301)
5(-6.160152108 -16.28073578 -36.95945652 -76.61996301 -136.9591413)
5(-8.207211932 -20.99410918 -43.15981768 -84.07883187 -141.6277883)
5(-11.14708581 -26.50172979 -52.64322795 -95.99366282 -155.9743572)
5(-14.87433823 -32.87924467 -63.5421107 -109.558563 -172.901861)
5(-19.0639836 -39.80944851 -74.45613321 -122.8909215 -187.3391983)
5(-23.35376037 -46.99932184 -84.77988925 -134.9827432 -197.3109608)
5(-27.97021808 -54.28913605 -94.48851255 -145.6459609 -204.8470181)
5(-32.79357929 -61.48814515 -103.5021854 -154.4873511 -209.82766)
5(-37.87071782 -68.32568395 -111.5325659 -160.8733999 -211.315034)
5(-42.66370759 -74.38963685 -117.8806191 -164.0761121 -208.1954305)
5(-47.23977423 -79.30581032 -121.8731216 -163.5243615 -199.8447805)
5(-51.08679401 -82.69274107 -122.914249 -158.7246827 -186.1634177)
5(-54.1169147 -84.11005279 -120.6561858 -149.5304798 -167.5203899)
5(-55.86206454 -83.30806264 -114.8874273 -135.8315647 -143.7642206)
5(-56.15401448 -79.96909552 -105.4303451 -117.6952574 -115.6377037)
5(-54.78935968 -73.90882413 -92.25820998 -95.21208441 -82.98790427)
5(-51.4164378 -65.00400932 -75.29762561 -68.74021553 -46.69098789)
5(-46.1569841 -53.24497613 -54.82056564 -38.62852241 -6.779199148)
5(-38.61056419 -38.64268328 -31.04844328 -5.338876468 35.81647091)
5(-28.77340789 -21.40067333 -4.310168188 30.5645162 80.12776957)
5(-16.89675976 -1.624730938 25.05130058 68.63211877 126.2011997)
5(-2.998117761 20.43630818 56.63031349 108.3302071 173.0985376)
5(13.14868513 44.43376998 89.93253599 148.9671052 220.3978756)
5(30.8829744 70.21691833 124.4156301 189.9097385 265.9154763)
5(50.43306902 97.21041406 159.4623715 230.6039776 310.0537593)
5(71.26262167 125.2875867 194.9674471 270.0505557 351.5597343)
5(93.97104324 153.8922059 230.0934647 307.940759 389.9746727)
5(117.1254973 183.0640925 264.3685793 343.8799398 424.3588497)
5(141.5118869 211.9798049 297.4339388 376.9663282 454.2350115)
5(166.2585414 240.5966254 329.2789805 406.6743701 478.576119)
5(191.7679589 269.4728837 358.8963776 433.0027796 498.1245463)
5(217.7854986 296.7034458 386.3356417 455.8568507 516.3352631)
5(244.5186596 323.5338706 411.3575695 475.2734022 524.5342383)
5(270.8029457 350.0354023 435.1654584 492.0354536 529.5671273)
5(295.580486 376.4147094 458.8078852 507.8830434 533.6816961)
5(323.8137708 404.982723 481.486359 521.8791054 536.4929508)
5(351.7327521 432.5040654 504.9616035 535.5666564 534.2617438)
5(383.6915893 458.4218904 529.5070152 548.9250569 532.0674731)
5(415.7898248 488.4874946 550.0517737 561.6284271 520.5040468)
5(445.4870424 515.5228897 567.520226 565.51781 502.1468854)
5(476.7191545 537.3431112 574.2363994 557.6994234 472.6176815)
5(499.6913659 555.3599652 577.6895682 532.2183214 431.1564167)
5(512.738377 553.6030208 561.3908663 485.1186539 370.6321663)
5(518.5713669 533.675444 516.9788393 417.8859428 302.557448)
5(500.5912923 493.6726268 438.4109698 336.5378387 215.4914098)
5(455.8875587 427.1400462 333.6857715 238.9530406 128.1882488)
5(379.0427303 329.2478464 218.0138732 140.0961846 56.32699328)
5(282.1224963 194.2215768 93.78648495 48.59155912 -1.686826724)
5(163.7678423 60.9274862 -22.08003365 -38.62507952 -74.02852488)
5(19.34216134 -95.84768215 -123.7348541 -111.1643787 -101.3951518)
5(-107.640175 -195.9125149 -221.2261543 -158.9280012 -128.8076701)
5(-235.3370177 -304.0674105 -282.3574546 -209.3817785 -143.7338881)
5(-356.7172624 -395.7971709 -332.4821845 -224.507972 -156.6795543)
5(-450.6503949 -449.4129499 -354.764425 -236.4685098 -211.600872)
5(-513.6174503 -505.6533083 -378.6882512 -242.8485203 -160.5541143)
5(-582.1736177 -510.0774187 -386.8600708 -260.4331124 -182.3422467)
5(-557.219633 -506.7690323 -385.4227341 -265.6703573 -212.5094461)
5(-543.8994093 -505.6304834 -419.2152238 -349.6874982 -282.1940141)
)


60
(
5(-8.575009881 -17.99595409 -68.76917544 -145.2494327 -315.2673963)
5(-8.043508047 -19.41819573 -55.26848283 -117.4760815 -228.2638859)
5(-9.712942509 -24.8186816 -55.91222163 -114.1617744 -202.0023172)
5(-12.60665061 -31.252337 -64.09379316 -122.5486677 -203.9034159)
5(-16.79650347 -38.68309641 -76.32033781 -136.6677911 -219.9065263)
5(-21.86444868 -47.19626831 -90.16570396 -153.0358985 -238.5026726)
5(-27.57573996 -56.31483147 -103.9705664 -169.1431513 -254.0406591)
5(-33.44472195 -65.74523515 -116.9426539 -183.6034121 -264.5194548)
5(-39.55215132 -75.20448228 -128.98408 -195.949307 -271.6749766)
5(-46.02674327 -84.38206624 -139.9376758 -205.7124723 -275.7810073)
5(-52.51281171 -92.93861599 -149.3911421 -212.3345213 -274.934447)
5(-58.73690419 -100.414938 -156.4906344 -214.8664361 -268.645589)
5(-64.52961382 -106.3432198 -160.5907462 -212.6111331 -256.1802286)
5(-69.41017368 -110.1533527 -160.9440287 -205.2453662 -237.4655064)
5(-73.01686127 -111.4979082 -157.1998118 -192.6486943 -212.9685366)
5(-74.99606707 -110.0338367 -149.155254 -174.707707 -182.8585415)
5(-75.12819934 -105.4686701 -136.665967 -151.5933861 -147.4146023)
5(-73.00825218 -97.53323024 -119.7049485 -123.399768 -107.0894695)
5(-68.77653914 -86.0707864 -98.31818779 -90.63501296 -62.13994582)
5(-61.61937775 -71.18794704 -72.86657164 -53.58643118 -13.75742143)
5(-51.96964803 -52.91212849 -43.43535357 -12.80597685 38.16961722)
5(-39.77895288 -31.53896772 -10.52177512 31.12909593 92.58400166)
5(-24.60638988 -7.012800009 25.5418256 77.72593683 148.6107328)
5(-7.071427352 20.39706099 64.18257652 126.3018283 206.1307009)
5(12.67594474 50.14146641 105.0536141 176.6966789 263.7115002)
5(35.23087386 81.64961677 147.7196366 228.0791324 322.229185)
5(59.60948425 115.3817458 191.7322081 279.2892133 378.0979025)
5(86.49517519 150.723691 236.7834874 329.5822946 431.5647206)
5(115.0015869 187.1574025 281.0305751 378.9161351 483.506094)
5(143.277154 224.1056955 324.8699437 426.8993897 529.4540793)
5(173.7275685 261.7785639 368.1014527 470.9113406 574.3202557)
5(206.7936958 299.9030438 410.1661318 511.9288039 613.6882391)
5(239.95607 337.0893726 450.432826 549.8184709 642.0532938)
5(272.7417884 373.5100732 488.6577726 584.2697635 668.0221567)
5(306.7022245 409.4988814 525.6911144 615.224108 690.7548312)
5(341.5648834 444.5567043 559.3738118 643.6960895 706.2744398)
5(376.9468897 480.8141219 592.3867204 669.8750658 719.4390539)
5(412.7333424 516.0180145 625.1031115 692.4468984 727.7483339)
5(450.8430625 552.5719086 658.581821 712.5383985 736.0929577)
5(488.4260673 591.1404961 691.1192074 733.300855 736.9593974)
5(530.9902006 630.8091333 719.8984854 754.9314085 730.3455949)
5(573.0919216 669.2407458 746.2448939 766.8978483 713.884525)
5(613.235985 701.9419283 771.6357883 769.4623699 686.3998613)
5(649.5825342 729.2419748 783.5805844 749.5929789 651.5861148)
5(675.979134 744.7175584 775.1120083 707.8993457 585.9811915)
5(689.5883553 739.3606001 739.2236315 644.6623166 519.0712455)
5(687.4586097 704.2614989 669.1018666 555.8750808 410.4271767)
5(662.2509713 651.1898171 567.852353 441.0173144 313.3925244)
5(597.2420992 558.5819952 430.7729744 314.2096136 179.4696251)
5(501.9177802 424.8708532 274.4118252 173.0476255 80.78021155)
5(394.0149346 268.6513152 108.578671 37.81007487 -8.266345929)
5(255.52941 97.98324812 -53.30599163 -90.89219045 -88.88995538)
5(86.57830788 -66.6999843 -220.5170935 -188.1264853 -151.410576)
5(-85.66593026 -239.5874636 -327.54943 -282.9521621 -229.4560684)
5(-250.5402468 -398.4562423 -459.0397831 -344.6212633 -265.4140827)
5(-394.4975105 -514.396747 -541.0748824 -391.1211383 -259.7525716)
5(-517.4735205 -619.6253612 -592.8680034 -439.101446 -330.4895768)
5(-605.232122 -688.1597911 -647.3505609 -472.903257 -318.2339297)
5(-654.4580954 -725.0734131 -660.3240211 -525.8919433 -344.7792428)
5(-587.422648 -748.8039575 -807.8396139 -619.0911176 -520.5825021)
)


60
(
5(-12.22711669 -26.77140375 -96.25261612 -205.2388594 -426.8024352)
5(-11.82992767 -28.53863333 -78.70558353 -166.3036317 -315.6987365)
5(-14.23532605 -35.65009282 -79.48084421 -159.901076 -280.0916922)
5(-18.1796964 -43.9872396 -89.70352519 -168.7174813 -278.7756821)
5(-23.72927822 -53.48505507 -104.6986723 -184.8077356 -294.5948819)
5(-30.4791887 -64.25285294 -121.4580976 -203.5499001 -313.7578051)
5(-37.77102218 -75.79387999 -138.1168121 -221.8995471 -329.2396012)
5(-45.33148567 -87.56746317 -153.7504067 -238.3144584 -339.7994457)
5(-53.18738663 -99.28263804 -168.1404229 -252.0641071 -345.8707594)
5(-61.33988541 -110.5367735 -180.92579 -262.6194922 -347.9601301)
5(-69.51694977 -120.8640249 -191.591143 -268.9999907 -344.3471464)
5(-77.27695889 -129.7193432 -199.3638862 -270.4458882 -334.4677337)
5(-84.18568208 -136.5371672 -203.1702361 -266.2944606 -317.5871812)
5(-89.89528343 -140.7560005 -202.6134411 -256.2427724 -293.5126113)
5(-94.14556544 -141.8783934 -197.1429205 -239.9542067 -262.9653219)
5(-96.21088231 -139.6166373 -186.6425381 -217.6001867 -226.118902)
5(-96.34788282 -133.5785431 -170.9042957 -189.2839625 -183.5231426)
5(-93.27223313 -123.5849646 -150.0944327 -155.3839425 -135.46347)
5(-87.95613819 -109.4620177 -124.2296582 -116.2665196 -82.66269634)