/*--------------------------------*- C++ -*----------------------------------*\
| =========                 |                                                 |
| \\      /  F ield         | OpenFOAM: The Open Source CFD Toolbox           |
|  \\    /   O peration     | Version:  2.3.1                                 |
|   \\  /    A nd           | Web:      www.OpenFOAM.org                      |
|    \\/     M anipulation  |                                                 |
\*---------------------------------------------------------------------------*/
FoamFile
{
    version     2.0;
    format      ascii;
    class       dictionary;
    location    "constant";
    object      rHO2;
}
// * * * * * * * * * * * * * * * * * * * * * * * * * * * * * * * * * * * * * //

rHO2_table
60
(

60
(
5(-0.8713605282 -0.4325642993 -2.584513728 -2.080415017 -4.170434173)
5(-0.2709496408 -0.04280858184 -0.7037300409 -0.6368206793 -1.35409639)
5(16.92717322 -0.0892133819 -0.2316366103 -0.1921334252 0.0006299932521)
5(48.4097554 -0.09603717993 -0.2438591963 -0.06276220006 -0.5170654065)
5(37.16957855 -0.06801862248 -0.1920244235 -0.1447837267 -0.2807067686)
5(17.5162222 -0.042585676 -0.03793048605 -0.09703191284 -0.08218362018)
5(-0.03789956465 -0.03005726172 -0.009342590247 -0.03395372504 -0.1305325314)
5(-0.01362831615 -0.02842054527 -0.0469903359 -0.04090772007 -0.02385739307)
5(12.09497167 -0.02826460197 0.1236072237 -0.04847546371 -0.06290062524)
5(15.04569847 0.3913886826 0.1509124498 0.01193770927 -0.03994581026)
5(13.7423293 0.6045391177 0.1083694961 0.08629457397 -0.01564705138)
5(5.393444904 0.002396246859 0.05230293027 0.02932277036 0.139133996)
5(0.0004106675744 0.0214133545 0.043322878 0.08599929394 0.1232404968)
5(0.01525096139 0.04332223858 0.0746622119 0.09294440679 0.154003268)
5(0.02220483227 0.05966977989 0.09646551359 0.1383956585 0.1555629431)
5(0.4416707011 0.6057836049 0.3442245018 0.3410120685 0.2447842019)
5(0.4162433878 0.4790176754 0.4331045753 0.254190993 0.2107864281)
5(0.1941103274 0.3477557881 0.1843943284 0.1940717106 0.2064728973)
5(0.0737981739 0.2074177473 0.1731832482 0.18319135 0.2479458442)
5(0.08621929536 0.1247065891 0.1701333823 0.1714628997 0.1946156964)
5(0.08518384753 0.109715969 0.1449357106 0.1293817149 0.1091986288)
5(0.08089457117 0.09141891966 0.1202697346 0.08836527717 0.06410550076)
5(0.07010254976 0.07098750493 0.07842157242 0.05182252316 0.03285288948)
5(0.05221742012 0.04317591007 0.0389538615 0.006735962525 -0.01468004397)
5(0.03700452698 0.008806569499 -0.001651512627 -0.03364509493 -0.06202102436)
5(0.0178005246 -0.009149186927 -0.04280974139 -0.06875848531 -0.06955746275)
5(-0.01124382369 -0.03814023656 -0.06625310707 -0.08939615768 -0.0809530463)
5(-0.03020145606 -0.05919190572 -0.08826416346 -0.1048620138 -0.09124961671)
5(-0.047493204 -0.07618063621 -0.09844931601 -0.1063330348 -0.1008623656)
5(-0.06407229915 -0.09178282224 -0.1091470257 -0.09705692132 -0.08994265208)
5(-0.07730105722 -0.1008672849 -0.1140104122 -0.115592961 -0.07460032084)
5(-0.08722658663 -0.1029508509 -0.1028780814 -0.1018421654 -0.04565740729)
5(-0.08577122128 -0.1009319717 -0.09371620715 -0.08554308732 -0.04334108554)
5(-0.08933343133 -0.09723167792 -0.08560806342 -0.07065152205 -0.0492714098)
5(-0.08878664075 -0.08616075434 -0.06801375016 -0.05853834025 -0.0952479339)
5(-0.08321361919 -0.08288876343 -0.07677485384 -0.04708773315 -0.05749890621)
5(-0.07330282863 -0.06427244889 -0.05469888045 -0.03948776652 -0.00408560779)
5(-0.05837932715 -0.05374378662 -0.0420174486 -0.02222099566 0.0601804957)
5(-0.04903509828 -0.0471070123 -0.01600083221 -0.01364267005 0.08797094409)
5(-0.03795493177 -0.04141257699 -0.05254160091 -0.0169873065 0.0377413484)
5(-0.03245615586 -0.03194549374 -0.07540720794 0.0288485749 0.07386025204)
5(-0.03935282337 -0.02722841915 -0.07605009783 0.681303015 -1.484553719e-05)
5(-0.04667075782 -0.04595377648 -0.0233429202 -9.367034092e-06 -1.117051511e-05)
5(-0.0555318714 -0.07360582199 0.01276641875 1.30474227e-05 -0.1237807307)
5(-0.06475215533 -0.08786727179 0.1383981808 -2.928026273e-05 -0.02797970803)
5(-0.07284808065 -0.04821068711 0.01625983547 3.532099121e-05 -1.549758722e-05)
5(-0.07602704373 0.09245384561 0.2789122201 -0.01830811708 -3.776050053e-05)
5(-0.3412475142 0.00468107187 0.01316536801 0.0001767138177 2.273968903e-06)
5(-0.06385970248 0.0007823151778 -0.002204048445 0.000232528867 0.0002012483407)
5(-0.01944271058 0.013009695 -8.102764756e-05 6.352103659e-05 0.0001106811096)
5(0.00142903496 8.348696779e-05 -0.000147965957 -1.387320228e-05 0.0003355839457)
5(0.215449371 -6.225150605e-05 -0.000201179751 -0.0001709801941 -9.484648038e-06)
5(0.03781105787 0.0001576243891 -0.0002880807703 -0.0003144077736 -3.071275817e-05)
5(-0.0002361299045 -0.0001521454505 -0.0001659321714 8.126790835e-05 -8.288187351e-06)
5(-0.0001654348675 -0.0004296189195 -0.0004314616599 -0.000530628193 -0.0003214694789)
5(0.0648595809 -0.000595662822 -0.0006664210575 -0.0002925751228 -0.0006986341091)
5(0.1323796223 -0.0007100552854 -0.0007907945038 -0.0006135001828 -0.0007634085151)
5(0.04028965339 0.0594035614 -0.001219379415 0.0002747910736 0.005144225286)
5(-0.06501079634 0.03968246896 0.04415753915 -0.000293168608 -0.002382662649)
5(-0.001497496641 -0.001865382526 -0.002216651791 -0.002508198001 -0.002544757732)
)


60
(
5(-1.918474864 -1.85639452 -5.092016843 -5.066506955 -5.166941049)
5(-1.177197603 -1.449099701 -2.873970001 -3.179781064 -3.877325792)
5(-0.8036472363 -1.11701571 -1.80491825 -1.990962176 -2.320162782)
5(-0.6248981943 -0.8201972688 -1.204464213 -1.050663471 -1.159195069)
5(-0.4907482775 -0.5320419595 -0.6824329886 -0.2387054551 -0.02768570691)
5(-0.3740413386 -0.2300458001 -0.1313844174 0.5732504832 1.113611882)
5(-0.206978698 0.09643198323 0.4288243969 1.260423723 1.893506452)
5(-0.01112106159 0.4347566243 0.939629047 1.80309844 2.341316548)
5(0.2006016375 0.76824947 1.399381989 2.225099621 2.560574143)
5(0.3896428747 1.063320889 1.746535318 2.433265181 2.685643849)
5(0.6365122275 1.314373941 2.014123718 2.481590717 2.452571224)
5(0.818986574 1.517087734 2.144396629 2.385790837 2.024551777)
5(0.9881290141 1.635648384 2.157164783 2.173750462 1.641282335)
5(1.12865604 1.6756264 2.057620843 1.801813734 1.112495078)
5(1.207100083 1.628751223 1.846418982 1.390349015 0.5903330047)
5(1.192991528 1.470157948 1.509370954 0.9285898393 0.1245839206)
5(1.170389876 1.244640333 1.102840474 0.4389362283 -0.2752526899)
5(1.041547439 0.9501805719 0.6795582994 0.0138027271 -0.6450554291)
5(0.8507103802 0.642762997 0.2580817332 -0.3758607164 -0.9023032764)
5(0.6148447585 0.3060714831 -0.1213521023 -0.7011044749 -1.148026413)
5(0.3654010452 -0.01910659059 -0.4661211179 -0.9183801036 -1.215368516)
5(0.1181590779 -0.3307430466 -0.7265241053 -1.126742471 -1.279117189)
5(-0.1597220139 -0.5835673378 -0.9340820639 -1.246835245 -1.322449164)
5(-0.4491587068 -0.7978468441 -1.113970052 -1.26290789 -1.29001556)
5(-0.6200490577 -0.938216159 -1.188765884 -1.292756035 -1.246536533)
5(-0.8401658742 -1.054409157 -1.304140734 -1.303439933 -1.193321805)
5(-0.9775879793 -1.092593936 -1.315613958 -1.28720755 -1.116799203)
5(-1.067515276 -1.165235279 -1.291967858 -1.237754807 -0.996223599)
5(-1.106979415 -1.206200217 -1.278500163 -1.158090762 -0.9855411201)
5(-1.172887713 -1.188575239 -1.234707223 -1.110758099 -0.8656827487)
5(-1.165662837 -1.150643549 -1.189463943 -1.037642907 -0.8281374817)
5(-1.142639658 -1.109458822 -1.081786278 -0.9680196451 -0.753630663)
5(-1.100357343 -1.05888054 -1.042919548 -0.8856543026 -0.659434991)
5(-1.070349167 -0.9933788447 -0.952526767 -0.8066862048 -0.5831354773)
5(-0.9584503132 -0.9271349045 -0.8774016125 -0.7153125736 -0.5320604396)
5(-0.9432119426 -0.8366067508 -0.7675924543 -0.6421561159 -0.4243981403)
5(-0.744103124 -0.7231970041 -0.6720339634 -0.5061443461 -0.3414195816)
5(-0.7120999935 -0.6604302205 -0.6024716216 -0.4329481723 -0.2833461923)
5(-0.6211089544 -0.4869023269 -0.5232551311 -0.4124803967 -0.2407109156)
5(-0.4573057322 -0.4435693156 -0.4503714538 -0.3602910849 -0.2366034189)
5(-0.3193009436 -0.26632324 -0.2934113852 -0.3561442432 -0.186907237)
5(-0.1250710069 -0.3617013652 -0.3334549246 -0.3755366385 -0.1935098409)
5(-0.1987494458 -0.379197217 -0.3507472234 -0.3878152461 -0.1682845056)
5(-0.1928637489 -0.2801402418 -0.4181031069 -0.354070127 -0.1585372521)
5(-0.2354495871 -0.4035798259 -0.4409478068 -0.2818440451 -0.146687485)
5(-0.1733314983 -0.463850338 -0.5086776046 -0.2199231535 -0.1411170675)
5(-0.1657713802 -0.5283610131 -0.4653185694 -0.1809510142 -0.1136925935)
5(-0.1798364301 -0.5037812716 -0.3677318901 -0.1470642066 -0.06930907059)
5(-0.4177858995 -0.5251262679 -0.254885677 -0.1081406883 -0.06607043152)
5(-0.2476396722 -0.4143149756 -0.1765281815 -0.08421211556 -0.05067553463)
5(-0.2887324415 -0.2575648648 -0.1220207531 -0.06380478161 -0.03404990584)
5(-0.08508357188 -0.1353645163 -0.07121515232 -0.05738232355 -0.04044176296)
5(-0.1827274811 -0.1127709447 -0.08617642735 -0.05606090559 0.01748049226)
5(-0.1358832996 -0.05197234954 -0.06362670852 -0.03753719702 -0.02380505871)
5(-0.02091332648 -0.07773719239 -0.06122074471 -0.03847935822 -0.01751538085)
5(-0.02536288345 -0.05875125887 -0.04753229897 -0.03161717238 -0.02653478341)
5(-0.0159392109 -0.03881910021 -0.0351226638 -0.02946007324 -0.01428838725)
5(-0.04233433258 -0.03242728512 -0.02368819378 -0.01978424262 -0.01407889401)
5(0.03853171345 -0.04450544905 -0.02522590217 -0.01830839584 -0.02178825752)
5(-0.03038899846 -0.02389834748 0.7380513514 -0.01790925446 -0.01726252864)
)


60
(
5(-3.165960308 -3.574338977 -7.353732988 -6.963228098 -2.885094852)
5(-2.260036219 -2.949932545 -4.666169096 -4.596233043 -3.821141788)
5(-1.673225295 -2.130396453 -3.076071844 -2.577269349 -1.982066241)
5(-1.238899474 -1.318714198 -1.693206426 -0.6306890856 0.3879923317)
5(-0.8541083303 -0.5381330586 -0.3696656241 1.11006365 2.279074241)
5(-0.4300218111 0.2327950657 0.932210737 2.548978283 3.78229042)
5(0.04511182533 0.9900381303 2.094643925 3.574667036 4.378130696)
5(0.5304723638 1.663028521 2.953692276 4.153438235 4.427592373)
5(0.9633240758 2.231098706 3.50887907 4.317713499 4.093706338)
5(1.39184573 2.653440892 3.782648303 4.128411078 3.331941677)
5(1.760762268 2.914986919 3.774392419 3.637466525 2.416615843)
5(2.081242253 3.00768407 3.540546718 2.955224051 1.431895902)
5(2.225592525 2.906648943 3.089918254 2.128814897 0.4470582092)
5(2.258574074 2.643882742 2.498238108 1.251548211 -0.4678048202)
5(2.189029717 2.244203718 1.773759864 0.3927566163 -1.178345721)
5(2.041403396 1.734001415 1.022607028 -0.4071712377 -1.779595894)
5(1.675881293 1.161302633 0.242221451 -1.117367981 -2.234255196)
5(1.242860657 0.5479923735 -0.4525142678 -1.683042651 -2.492592049)
5(0.7725715548 -0.05933669076 -1.094114578 -2.095126481 -2.642638043)
5(0.2721948214 -0.6150837786 -1.579984827 -2.390378362 -2.702243959)
5(-0.1863949789 -1.116409819 -1.972591271 -2.558791525 -2.714918482)
5(-0.6807791297 -1.531593449 -2.22157294 -2.603592898 -2.596061312)
5(-1.104327364 -1.848740123 -2.411319739 -2.616055809 -2.484888249)
5(-1.408491601 -2.060979132 -2.497672989 -2.549223288 -2.347808396)
5(-1.65174044 -2.175696876 -2.515542105 -2.452027485 -2.22115802)
5(-1.867444514 -2.23727118 -2.47855718 -2.359399052 -2.018609159)
5(-1.986505934 -2.214200326 -2.377173715 -2.210176651 -1.91298468)
5(-1.958189801 -2.211481224 -2.29318719 -2.100488918 -1.752323788)
5(-2.063620436 -2.130724649 -2.165633332 -1.931531002 -1.6397479)
5(-1.985479468 -2.035972772 -2.059912218 -1.821064602 -1.472119012)
5(-2.009617381 -1.975318237 -1.938948857 -1.679890668 -1.377231572)
5(-1.954156029 -1.861036505 -1.774323243 -1.537481787 -1.249775549)
5(-1.880671173 -1.708882313 -1.663172602 -1.419177006 -1.124115995)
5(-1.817130582 -1.633668158 -1.52775031 -1.281358713 -0.9775632345)
5(-1.689926363 -1.485775328 -1.339724659 -1.137388707 -0.8633519449)
5(-1.332531775 -1.343988301 -1.216024012 -0.9826961335 -0.7937485576)
5(-1.161238793 -1.158424172 -1.055624759 -0.8248701919 -0.6078759565)
5(-1.178818081 -0.9796061814 -0.8894523805 -0.6911340289 -0.5420653841)
5(-0.9854543021 -0.805136771 -0.7134571365 -0.5744527013 -0.449982419)
5(-0.7712452191 -0.5821994964 -0.5342464657 -0.468139463 -0.3441279362)
5(-0.4811454006 -0.4293612778 -0.4511720763 -0.4004305238 -0.3110677309)
5(-0.4196559215 -0.3635927164 -0.3719435909 -0.3897187057 -0.2790543708)
5(-0.2951080689 -0.3087996688 -0.3583059879 -0.3839226217 -0.2790696587)
5(-0.2727331077 -0.3322834738 -0.392573285 -0.3795341056 -0.2420293259)
5(-0.2804479366 -0.3264015909 -0.4318615044 -0.4097400642 -0.2992523703)
5(-0.3592881051 -0.4555855285 -0.5511038318 -0.4114281874 -0.2642556308)
5(-0.4830376096 -0.5906100032 -0.5937352456 -0.408417935 -0.233985252)
5(-0.5749153204 -0.6740986478 -0.5638361415 -0.3787442694 -0.1970370804)
5(-0.615615754 -0.625436661 -0.4783961129 -0.3125320345 -0.162389331)
5(-0.6524380019 -0.5966667744 -0.4060723526 -0.2371307575 -0.1337031466)
5(-0.6056623682 -0.4648085165 -0.3092604382 -0.1906611858 -0.106586664)
5(-0.474893983 -0.3390512282 -0.2357470703 -0.1510772831 -0.09432225598)
5(-0.3388374734 -0.2436971461 -0.1878916048 -0.1307127713 -0.08636483552)
5(-0.1663352888 -0.2167555159 -0.1530794763 -0.0986138934 -0.01955811653)
5(-0.2062091021 -0.1681526472 -0.1268320844 -0.09194189065 -0.0588758441)
5(-0.1251397484 -0.1471269784 -0.1065292436 -0.07452447771 -0.04973353717)
5(-0.1028460467 -0.123952037 -0.1047779563 -0.06427483714 -0.04232723697)
5(-0.07291859372 -0.09705035078 -0.06991480218 -0.05304489937 -0.03231025265)
5(-0.09451293468 -0.1149584976 -0.07119999113 -0.05401600991 -0.03496920358)
5(-0.1019145349 -0.07303269078 0.9551538176 -0.04472383229 -0.05008333887)
)


60
(
5(-4.563084038 -5.49949827 -9.018942497 -7.083490428 3.116978727)
5(-3.520277946 -4.562758493 -6.139584935 -4.924621809 -1.285002882)
5(-2.593448634 -3.034412228 -3.758907014 -2.099763013 0.3345704709)
5(-1.800783713 -1.50716816 -1.415946621 0.7672962912 2.950214352)
5(-1.009332306 -0.1045746452 0.7749857446 3.146306137 4.953291892)
5(-0.1656232007 1.193845015 2.726679452 4.892003463 6.092571542)
5(0.6733552354 2.370083135 4.25057798 5.917069382 6.079708356)
5(1.444109458 3.300240275 5.179333876 6.15209791 5.287736106)
5(2.114738175 3.972150971 5.565600103 5.768626932 4.136811657)
5(2.707961605 4.345930641 5.483897339 4.914574137 2.667921935)
5(3.142863316 4.439613036 5.004454404 3.759581985 1.134638492)
5(3.392543167 4.237184928 4.229505677 2.447141942 -0.4000761363)
5(3.448746124 3.792891839 3.251485607 1.086809791 -1.675810511)
5(3.247902523 3.126313426 2.130495613 -0.2275044994 -2.697597644)
5(2.903300584 2.315912564 0.9613354871 -1.37665879 -3.529810117)
5(2.392347486 1.408039155 -0.1801854027 -2.333102195 -4.078021456)
5(1.798208656 0.4818766068 -1.208800035 -3.112612149 -4.394777178)
5(1.031347085 -0.3967048009 -2.059108877 -3.636431859 -4.560218889)
5(0.3606768604 -1.218097542 -2.770036546 -3.995852487 -4.501662752)
5(-0.4442615135 -1.91681281 -3.271056407 -4.156050387 -4.400877735)
5(-1.117796496 -2.466433655 -3.644552851 -4.222716642 -4.229639123)
5(-1.561346467 -2.915133028 -3.836328284 -4.147380219 -3.931075884)
5(-2.009026447 -3.189259289 -3.919103621 -4.040451215 -3.677012606)
5(-2.533554428 -3.346536097 -3.855378997 -3.872627184 -3.402696948)
5(-2.76360232 -3.405569506 -3.794777741 -3.672140157 -3.238296381)
5(-2.922949637 -3.433807015 -3.66931203 -3.45473404 -2.952582213)
5(-2.991161236 -3.379315304 -3.519875128 -3.245484046 -2.702734874)
5(-3.034183271 -3.301267204 -3.339417685 -3.032781816 -2.540535373)
5(-2.996151242 -3.199061435 -3.156220533 -2.813170204 -2.26981574)
5(-2.920275692 -3.067973984 -2.976338087 -2.631435607 -2.153871545)
5(-2.845376001 -2.910974753 -2.789809749 -2.432956473 -1.914551108)
5(-2.756068816 -2.753373712 -2.548264259 -2.239283821 -1.780064197)
5(-2.627148184 -2.582125732 -2.41432841 -2.049887055 -1.598902768)
5(-2.507749467 -2.416993105 -2.217658301 -1.863667923 -1.45551634)
5(-2.346202254 -2.233060788 -2.013322498 -1.677884744 -1.211398417)
5(-2.168089943 -2.042591589 -1.796516292 -1.491456725 -1.112205121)
5(-1.983969613 -1.80185631 -1.549249367 -1.289538304 -0.9545860883)
5(-1.778346128 -1.566929375 -1.336465538 -1.0815797 -0.7159790873)
5(-1.572146772 -1.306394863 -1.1045131 -0.8848661859 -0.6502871156)
5(-1.292346612 -1.041844082 -0.8996044217 -0.7082471167 -0.4471333465)
5(-0.9606433719 -0.8308189883 -0.7044820919 -0.5803344486 -0.450859024)
5(-0.7431282223 -0.6424610856 -0.5490684312 -0.494618803 -0.3968194175)
5(-0.5033128179 -0.5076257254 -0.4589839761 -0.4666191549 -0.3736627603)
5(-0.3684876809 -0.4400265489 -0.4630547117 -0.4681087194 -0.3728737505)
5(-0.3231673326 -0.4705162062 -0.5522489089 -0.5082193709 -0.3609059726)
5(-0.4006327662 -0.5641074826 -0.6251458092 -0.5463183454 -0.4055476107)
5(-0.4659831045 -0.685153119 -0.7316165744 -0.5773056756 -0.3947091899)
5(-0.6785859727 -0.8178967271 -0.7406401856 -0.5725000552 -0.2997812514)
5(-0.498758 -0.8867647744 -0.7172634791 -0.5169987786 -0.3034514867)
5(-0.8677124437 -0.8519323776 -0.6470342736 -0.4309061631 -0.2035666347)
5(-0.8660802302 -0.7243905864 -0.518530436 -0.3297287091 -0.1477696198)
5(-0.5974809313 -0.5753519303 -0.4025669688 -0.2715902509 -0.17162158)
5(-0.5095329023 -0.4533677961 -0.3140903089 -0.2194324975 -0.1284579513)
5(-0.3826402813 -0.3624927407 -0.2535805166 -0.1895258887 -0.06485251943)
5(-0.3701073071 -0.2898932959 -0.2042418068 -0.1500905188 -0.07164720949)
5(-0.1773900321 -0.2487757867 -0.1731516509 -0.1196772012 -0.1012414144)
5(-0.1895475739 -0.2226254304 -0.1630839097 -0.1127788254 -0.08041772948)
5(-0.2226811143 -0.1969101617 -0.1402546746 -0.09557678348 -0.07161148722)
5(-0.1965291505 -0.1566060485 -0.1173888936 -0.1009461997 -0.07759947304)
5(-0.2028577902 0.07991948904 -1.605355507 -1.103452754 -0.9979558371)
)


60
(
5(-6.048544786 -7.453825338 -9.793516571 -4.965149895 13.19234764)
5(-4.853904714 -6.183285091 -7.001925336 -3.857089597 3.83649966)
5(-3.480932046 -3.771919307 -3.806737076 -0.6333821697 4.09395565)
5(-2.199394648 -1.37120945 -0.5251179137 2.846311673 6.02619139)
5(-0.9532785344 0.7242040419 2.452356405 5.577696967 7.552183124)
5(0.3460231011 2.54036799 4.873738711 7.239357766 7.792423837)
5(1.575359601 4.061583814 6.519301436 7.880122505 6.903365308)
5(2.641344423 5.140760187 7.323711822 7.543798532 5.15913976)
5(3.502153326 5.782880782 7.352523081 6.500124994 3.197067164)
5(4.14466471 5.988841351 6.742467857 4.895388438 0.9524350864)
5(4.551641445 5.759904377 5.675969681 3.054682918 -1.03747434)
5(4.686610567 5.18045442 4.298179419 1.140332047 -2.916705032)
5(4.473505211 4.306360711 2.7233092 -0.6516001413 -4.373289058)
5(4.074189627 3.195262464 1.136834988 -2.272599001 -5.518061827)
5(3.343783364 1.973279801 -0.4261553741 -3.600157855 -6.234395656)
5(2.45379945 0.6886365244 -1.80452888 -4.638807325 -6.640409809)
5(1.545331295 -0.5321596447 -3.02421243 -5.381848571 -6.763577607)
5(0.5145355742 -1.656606925 -3.993885621 -5.820459845 -6.721933536)
5(-0.4689479566 -2.634440336 -4.693182428 -6.096605475 -6.500233088)
5(-1.381487395 -3.403276399 -5.166751298 -6.139831989 -6.195601585)
5(-2.175245848 -3.981249001 -5.44816637 -6.041302117 -5.830789131)
5(-2.880899347 -4.393873689 -5.530309335 -5.841736048 -5.411340138)
5(-3.375197839 -4.625092355 -5.473494555 -5.567206326 -5.051988348)
5(-3.730541592 -4.730763819 -5.335747278 -5.240789719 -4.660147453)
5(-3.921272041 -4.743268917 -5.152418727 -4.922364536 -4.30094696)
5(-4.086592549 -4.623876225 -4.922293322 -4.606639298 -3.955734275)
5(-4.112961392 -4.518857423 -4.670857229 -4.299959347 -3.670695852)
5(-4.02659448 -4.352760005 -4.394496569 -4.000746355 -3.408743496)
5(-3.946598412 -4.163607397 -4.137256109 -3.737713642 -3.111976607)
5(-3.800279879 -3.97619866 -3.894443687 -3.48409093 -2.858817984)
5(-3.692017869 -3.803637576 -3.647954107 -3.221025549 -2.632982912)
5(-3.57354548 -3.586497462 -3.38671822 -2.983205101 -2.313308708)
5(-3.435389695 -3.39080262 -3.154503068 -2.75009695 -2.213136239)
5(-3.305266161 -3.178863858 -2.933466426 -2.51763012 -1.974619819)
5(-3.098709056 -2.952191625 -2.680555524 -2.283622394 -1.755328719)
5(-2.886563595 -2.714788716 -2.43051732 -2.039071483 -1.554298712)
5(-2.642525644 -2.440224679 -2.164531328 -1.769967659 -1.345536349)
5(-2.369800235 -2.15696149 -1.880327697 -1.509699322 -1.160823254)
5(-2.100195312 -1.880577394 -1.589661855 -1.257258449 -0.9228367513)
5(-1.814135798 -1.573225465 -1.289115879 -1.022293851 -0.7931881771)
5(-1.559542052 -1.279585772 -1.022441101 -0.8220064872 -0.6054512579)
5(-1.237125529 -0.9913034254 -0.7945596147 -0.6660977279 -0.4249099032)
5(-0.8585448116 -0.7475163853 -0.626268427 -0.5865904126 -0.4553824089)
5(-0.5952134715 -0.5986380814 -0.5631642372 -0.5448297319 -0.4545638549)
5(-0.3566675208 -0.5306553482 -0.6009127721 -0.5760082087 -0.5313340282)
5(-0.4948966836 -0.5756627376 -0.6953936761 -0.6398989916 -0.5376238301)
5(-0.4885060613 -0.7205866983 -0.8021841987 -0.7146566516 -0.5427058322)
5(-0.6589881256 -0.8803353137 -0.8859782566 -0.7288072456 -0.5227528326)
5(-0.8220133807 -1.018445718 -0.9104672376 -0.7305762123 -0.466349505)
5(-0.9699203416 -1.042922532 -0.8724748811 -0.6468438806 -0.3714116515)
5(-1.019736119 -0.9878784877 -0.765089136 -0.5392429779 -0.3115033613)
5(-0.9712184901 -0.8548752102 -0.6224588794 -0.4305792723 -0.2808914547)
5(-0.9433435426 -0.6956087974 -0.4898445266 -0.3284527278 -0.09445488867)
5(-0.7156575144 -0.5535847163 -0.3908362061 -0.2718285443 -0.2071626347)
5(-0.5469187308 -0.4527102741 -0.3284263831 -0.2352820017 -0.1687172565)
5(-0.4519318389 -0.3831334555 -0.2827715608 -0.2014648112 -0.1213438654)
5(-0.3895048093 -0.3470376975 -0.2508139888 -0.1879228233 -0.1118545905)
5(-0.3524500849 -0.2966704113 -0.2154663471 -0.1556956292 -0.1027524664)
5(-0.3250079231 -0.2563173947 -0.1936607755 -0.1406348802 -0.1157858854)
5(-0.3276597677 -0.2756274433 0.3454507311 -0.1604625378 -0.127857592)
)


60
(
5(-7.558315398 -9.246508771 -9.449624401 -0.02398603864 27.56411884)
5(-6.194229198 -7.68992704 -7.132631861 -1.247933877 11.29372708)
5(-4.381752647 -4.270484464 -3.237565823 1.757460583 8.728148468)
5(-2.484838734 -0.9728320736 0.8710400441 5.400285908 9.95717136)
5(-0.6571012162 1.811180116 4.477410648 8.11453871 10.2480391)
5(1.115375932 4.109912183 7.150060019 9.436830087 9.066491865)
5(2.76629327 5.905048583 8.720060035 9.478730205 7.141731211)
5(4.05090567 7.040419363 9.15985768 8.370114225 4.218451638)
5(5.052772238 7.548589976 8.7007914 6.516067263 1.374526117)
5(5.668036281 7.449540635 7.475798076 4.181950062 -1.431657098)
5(5.986917789 6.85391291 5.792205565 1.69052151 -3.906786525)
5(5.801798779 5.804980118 3.794615418 -0.7401189222 -6.036955925)
5(5.354668978 4.456528162 1.716755867 -2.901383332 -7.558777282)
5(4.531720407 2.900764179 -0.3302888456 -4.738735023 -8.662000327)
5(3.538725298 1.256451902 -2.205476115 -6.180038566 -9.200399716)
5(2.31800403 -0.34736791 -3.833436405 -7.245417255 -9.499201343)
5(1.01561996 -1.846072237 -5.158318232 -7.905761255 -9.348773145)
5(-0.2518572704 -3.134165952 -6.127442541 -8.267208109 -9.102460472)
5(-1.501838228 -4.215810019 -6.808259058 -8.35179139 -8.656161287)
5(-2.508089768 -5.051782865 -7.193439467 -8.231887713 -8.19564948)
5(-3.408220945 -5.639118878 -7.342532733 -7.964974044 -7.655505997)
5(-4.180284227 -6.006376167 -7.314541222 -7.592575355 -7.019039051)
5(-4.667803583 -6.18535131 -7.143557421 -7.162806968 -6.480914192)
5(-4.9638954 -6.213545917 -6.88879676 -6.72078112 -5.984918183)
5(-5.19980213 -6.128992364 -6.589423873 -6.282860309 -5.552265188)
5(-5.237494035 -5.992603819 -6.248983424 -5.853209915 -5.097785183)
5(-5.197557842 -5.746797773 -5.875702321 -5.451709535 -4.696974937)
5(-5.064180986 -5.495237519 -5.544219739 -5.065262139 -4.335432666)
5(-4.973366148 -5.228174181 -5.207586078 -4.7150938 -3.988668017)
5(-4.779557957 -4.980737295 -4.877562391 -4.399378026 -3.70426704)
5(-4.558713203 -4.703505267 -4.571628265 -4.10435082 -3.405496137)
5(-4.360800628 -4.444399518 -4.296483583 -3.792623941 -3.098227276)
5(-4.202798261 -4.224137874 -4.044214222 -3.503008812 -2.834309234)
5(-4.062053492 -3.984521546 -3.743651648 -3.22652109 -2.732876625)
5(-3.938671469 -3.728246908 -3.431782615 -2.949000081 -2.355315775)
5(-3.662133525 -3.452040401 -3.131275233 -2.650255173 -2.070027972)
5(-3.388026959 -3.170839197 -2.844870942 -2.358618871 -1.842949743)
5(-3.121733887 -2.887397139 -2.533441565 -2.05716108 -1.606878675)
5(-2.841667131 -2.544956015 -2.175486476 -1.762837589 -1.296549946)
5(-2.556908701 -2.161361084 -1.817666568 -1.456506216 -1.066009693)
5(-2.217388918 -1.800854322 -1.465439724 -1.180669198 -0.9540554558)
5(-1.739122586 -1.435497388 -1.15559242 -0.9558355999 -0.6867731656)
5(-1.364804529 -1.106746381 -0.8925183046 -0.7868531339 -0.6410922336)
5(-0.9910466788 -0.8749328776 -0.7553236261 -0.6834647153 -0.5549365343)
5(-0.7008732335 -0.7152537352 -0.7186042274 -0.6732285843 -0.5911666896)
5(-0.6285054139 -0.6801355252 -0.7646981131 -0.7243111798 -0.646928404)
5(-0.8141309457 -0.764767161 -0.8635331492 -0.8272479435 -0.6334636998)
5(-0.677509065 -0.9243480267 -0.9561631087 -0.9072133862 -0.6801164926)
5(-0.7448253848 -1.094632812 -1.074093514 -0.9329347951 -0.6771918685)
5(-1.080637139 -1.178773178 -1.095981823 -0.8968333148 -0.6341762808)
5(-1.124314628 -1.222473984 -1.032417074 -0.7817075862 -0.4144837245)
5(-1.138765497 -1.107042163 -0.8997863366 -0.64105918 -0.3946508596)
5(-1.231353121 -1.01060324 -0.7203427684 -0.5153783782 -0.3069418663)
5(-1.140193625 -0.825763945 -0.5772077911 -0.4090582986 -0.2582963721)
5(-0.9154914406 -0.6593785202 -0.4700603149 -0.3428009288 -0.2035511747)
5(-0.7924562947 -0.551630035 -0.4076678533 -0.3043045305 -0.1041033049)
5(-0.605350224 -0.4748752824 -0.3569638426 -0.2701782583 -0.1781365668)
5(-0.4209692622 -0.4243864562 -0.3235389816 -0.2458134476 -0.1895913896)
5(-0.4714515584 -0.388793488 -0.2871776495 -0.2151086339 -0.1532103446)
5(-0.416366778 -0.4052407533 0.2953047712 -0.2548640252 -0.1774308406)
)


60
(
5(-9.015882484 -10.73060158 -7.683107631 8.047548848 46.58556712)
5(-7.490788598 -8.943303844 -6.308647688 3.029637559 21.18104503)
5(-5.081969838 -4.500588534 -2.02148002 5.136465899 14.83408386)
5(-2.575503281 -0.2628148711 2.748919704 8.386427718 13.27287711)
5(-0.1025866124 3.202111503 6.766122371 10.62219685 12.27956721)
5(2.121135029 5.918219322 9.486242957 11.31109698 9.632150611)
5(4.148584272 7.864698167 10.80047051 10.62553525 6.324691942)
5(5.670540925 8.958577237 10.75499652 8.705492782 2.480941433)
5(6.670380759 9.237113202 9.68543708 6.029268949 -1.171028802)
5(7.259130195 8.755047777 7.783975262 2.925793121 -4.395168012)
5(7.295731822 7.675441497 5.438534117 -0.1732467831 -7.274797739)
5(6.84950049 6.115151926 2.819987332 -3.063425236 -9.545509771)
5(6.035109514 4.274509581 0.2553048746 -5.555331024 -11.20204319)
5(4.889052018 2.239743743 -2.189895769 -7.580700468 -12.10212126)
5(3.475007506 0.226978088 -4.329987465 -9.075771476 -12.58303708)
5(1.892921103 -1.701157716 -6.124325305 -10.09739479 -12.52721255)
5(0.2970771384 -3.403027473 -7.497209187 -10.6802103 -12.2077441)
5(-1.295865679 -4.855415975 -8.472009035 -10.90661617 -11.67760017)
5(-2.586775307 -6.018675788 -9.07791874 -10.80550257 -11.09321268)
5(-3.874977276 -6.878561654 -9.354507993 -10.50703091 -10.29690402)
5(-4.846254953 -7.475107329 -9.399258221 -10.0643557 -9.584406694)
5(-5.52036905 -7.747079183 -9.227917474 -9.521587079 -8.842553589)
5(-6.125600155 -7.843746054 -8.929669715 -8.948517784 -8.086224877)
5(-6.375407242 -7.81038385 -8.528017609 -8.337581506 -7.433985389)
5(-6.464611936 -7.613791328 -8.074459769 -7.773870187 -6.804425829)
5(-6.541725186 -7.308551573 -7.619367259 -7.247583304 -6.357024603)
5(-6.367477334 -6.995102667 -7.168623335 -6.737786096 -5.791549728)
5(-6.227637084 -6.661522565 -6.763337423 -6.251584264 -5.328510089)
5(-6.186277152 -6.340328383 -6.329604891 -5.820568909 -4.979471137)
5(-5.719167908 -6.013730728 -5.923425458 -5.445381471 -4.569686706)
5(-5.474782698 -5.695237702 -5.547342269 -5.057564823 -4.261579895)
5(-5.283580821 -5.425579988 -5.215591038 -4.698406381 -4.083972926)
5(-5.173264557 -5.166619746 -4.904438232 -4.352552926 -3.594724066)
5(-4.898094682 -4.872903473 -4.561431244 -4.029609617 -3.329596388)
5(-4.626303668 -4.560580726 -4.259427218 -3.721261974 -3.040554623)
5(-4.400762112 -4.25826133 -3.943411657 -3.392384388 -2.736024262)
5(-4.174132201 -3.973800347 -3.611381677 -3.059758019 -2.399741101)
5(-3.881655156 -3.640045673 -3.236524638 -2.71450661 -2.083981065)
5(-3.577663693 -3.278353507 -2.847257345 -2.359056099 -1.848418207)
5(-3.226123854 -2.885433872 -2.445381736 -1.986839222 -1.469565212)
5(-2.836485526 -2.476121979 -2.028381752 -1.645454946 -1.183318132)
5(-2.444399568 -2.051952969 -1.632382252 -1.334150635 -1.008001776)
5(-2.065018983 -1.629471669 -1.309215386 -1.086287341 -0.7575909224)
5(-1.553892133 -1.276358804 -1.057110067 -0.9036483563 -0.753266095)
5(-1.11909061 -1.022511233 -0.9104010956 -0.8120701172 -0.6384856311)
5(-0.8277839203 -0.8797730505 -0.8788301108 -0.8272232729 -0.7801116248)
5(-0.7271670331 -0.8418155176 -0.937805404 -0.9171061739 -0.7608172317)
5(-0.82451887 -0.9431771463 -1.07431565 -1.021032493 -0.9307111468)
5(-0.7861972805 -1.111768703 -1.205715382 -1.117154665 -0.8578926307)
5(-1.013270293 -1.250692965 -1.290657578 -1.117639918 -0.8197594703)
5(-1.339927489 -1.379423506 -1.288975408 -1.043980319 -0.7423855994)
5(-1.585490354 -1.410439654 -1.195772159 -0.9019897982 -0.5803348802)
5(-1.552028035 -1.35538783 -1.001638754 -0.7352635042 -0.4671416038)
5(-1.459189916 -1.190010438 -0.8448314841 -0.5888730607 -0.3204484949)
5(-1.319794061 -0.9919101663 -0.6668792627 -0.4846462836 -0.2942168883)
5(-1.133036707 -0.820479252 -0.5507554885 -0.4213610645 -0.3055356767)
5(-0.9063708203 -0.676442682 -0.4908322952 -0.3816332778 -0.2478995147)
5(-0.7775916927 -0.5905540234 -0.4476861068 -0.3395442472 -0.2468008565)