/*--------------------------------*- C++ -*----------------------------------*\
| =========                 |                                                 |
| \\      /  F ield         | OpenFOAM: The Open Source CFD Toolbox           |
|  \\    /   O peration     | Version:  2.3.1                                 |
|   \\  /    A nd           | Web:      www.OpenFOAM.org                      |
|    \\/     M anipulation  |                                                 |
\*---------------------------------------------------------------------------*/
FoamFile
{
    version     2.0;
    format      ascii;
    class       dictionary;
    location    "constant";
    object      YC;
}
// * * * * * * * * * * * * * * * * * * * * * * * * * * * * * * * * * * * * * //

YC_table
60
(

60
(
5(0.04048784152 0.04185798304 0.04354435069 0.04490877745 0.04647809143)
5(0.04037661839 0.04165866327 0.04339667076 0.04478863515 0.04631217493)
5(0.04011165496 0.04174660165 0.04330950677 0.0446926209 0.04603333932)
5(0.04013404181 0.04177233703 0.04334244687 0.04460873369 0.04629954556)
5(0.04012055663 0.04175024215 0.04332387768 0.04468887326 0.04619325699)
5(0.04022156439 0.04172547322 0.04318373678 0.04468087918 0.04611558673)
5(0.04027697283 0.0417099048 0.04320022681 0.04463263454 0.04619702735)
5(0.04019705484 0.04170937614 0.04325797029 0.04465481233 0.04606943834)
5(0.04024168214 0.04171704886 0.04323971492 0.04466311541 0.04612448769)
5(0.04023023058 0.04172517189 0.04327183731 0.04465300679 0.04613646027)
5(0.04023629645 0.04172366839 0.04326760013 0.04465510271 0.04613642751)
5(0.04023814556 0.04172330691 0.04324488637 0.04465445469 0.04612025117)
5(0.04022555216 0.04172514313 0.04323803156 0.04466422808 0.04612740105)
5(0.04024474295 0.04172767236 0.0432407265 0.04464856325 0.04611844635)
5(0.0402288344 0.04172073713 0.04323321489 0.04465602736 0.04611644165)
5(0.04023424776 0.04172222043 0.0432376115 0.04465688257 0.04611768242)
5(0.04023408933 0.04172063716 0.04323681841 0.0446567379 0.04612313421)
5(0.04023327303 0.04171984872 0.04323614913 0.04466086857 0.04612422284)
5(0.0402310353 0.04172041647 0.04323567428 0.04465817102 0.04612322946)
5(0.04023660495 0.04172758845 0.04324026597 0.04466660523 0.04612036512)
5(0.04023427764 0.04172143613 0.04323315883 0.04466239967 0.04611812166)
5(0.04023463583 0.04172005843 0.04323512486 0.04464355429 0.04610555553)
5(0.04024031554 0.04172219453 0.04323288513 0.04465414247 0.04611448324)
5(0.04023732974 0.04172829212 0.04323299955 0.04465322668 0.04611064497)
5(0.04024042823 0.04172862663 0.04323532574 0.04465741785 0.04611290734)
5(0.04024118168 0.04172759112 0.04324194834 0.0446632607 0.04611005394)
5(0.04024352149 0.04172488936 0.04323446336 0.04466423524 0.0461081732)
5(0.04024225567 0.04172524923 0.04323816297 0.04466349785 0.04610411982)
5(0.04024945728 0.04172856508 0.04323340796 0.04465799469 0.04610139194)
5(0.04025168476 0.04173328415 0.04323047487 0.04464783805 0.04609333234)
5(0.04025747858 0.04173693696 0.04323432413 0.04465009625 0.0460893368)
5(0.04025988872 0.04173508147 0.04322670172 0.04463522889 0.04606284125)
5(0.04026080222 0.04173703409 0.04322703716 0.04463018435 0.04607369683)
5(0.0402647652 0.04174025193 0.04322988895 0.04462086519 0.04604363597)
5(0.04026871539 0.04173788722 0.04322284413 0.0446129891 0.04603514836)
5(0.04027105653 0.04174424027 0.04323327352 0.04460648327 0.04602389761)
5(0.04027320958 0.04173046217 0.04320100779 0.04458562676 0.04601198703)
5(0.04027407605 0.04173456469 0.04319308145 0.04457963593 0.04595387674)
5(0.04027740167 0.04172835537 0.04319096623 0.04456133377 0.04598035716)
5(0.04028572486 0.04172542428 0.04319158219 0.04455241108 0.04582500929)
5(0.04028367312 0.04171049669 0.0431630441 0.04453024907 0.04582502585)
5(0.04027587394 0.04170056947 0.04314373249 0.04446854497 0.04582308485)
5(0.04027089117 0.0416799758 0.04311641167 0.04434890581 0.04582683262)
5(0.04026669486 0.04167552219 0.04314301736 0.04434656758 0.04583467689)
5(0.04025994102 0.04165473356 0.04310612904 0.04434843726 0.04582860904)
5(0.0402382888 0.04164206457 0.04305721118 0.04435186121 0.04582615279)
5(0.04021726144 0.0416068101 0.04292838226 0.04435390234 0.0458250827)
5(0.04019163014 0.04153466519 0.04288328295 0.04435259849 0.04582415382)
5(0.04016622259 0.04152371145 0.04287812149 0.04435079143 0.04582223222)
5(0.04013502019 0.04139107909 0.04287745782 0.0443485561 0.04581828452)
5(0.04009333168 0.04138723463 0.04287638289 0.04434640532 0.04581284637)
5(0.03997262735 0.04138851722 0.04287461151 0.04434351896 0.04580610371)
5(0.03992534819 0.04138941106 0.04287224777 0.04434004768 0.04579886828)
5(0.03991938226 0.04138901109 0.04286980308 0.04433542048 0.04579152563)
5(0.03992596743 0.04138851428 0.04286751511 0.04433007035 0.04578237864)
5(0.03994605014 0.04138923922 0.04286638072 0.04432264571 0.04577088199)
5(0.03998397329 0.04139314911 0.04286781973 0.04431421055 0.04575220089)
5(0.04001630822 0.04141664941 0.04287468557 0.04430351171 0.04572573391)
5(0.04003890213 0.0414497837 0.04291043102 0.04421549654 0.0456905521)
5(0.04005509679 0.04150320805 0.04300152592 0.04450131909 0.04590668418)
)


60
(
5(0.04058006255 0.04202820287 0.04365009671 0.04505813306 0.04659771707)
5(0.04054925074 0.04203241441 0.04359900707 0.0450257255 0.04652408616)
5(0.04053365292 0.04203674772 0.04357301113 0.04501266555 0.04648496706)
5(0.04053278885 0.0420417989 0.04357215821 0.04501363396 0.04648095791)
5(0.04054130109 0.04204804348 0.04358636793 0.04502182448 0.0464976385)
5(0.04055375178 0.04205406534 0.04359881851 0.04502953431 0.04651539656)
5(0.04056135473 0.04205969919 0.04360384394 0.04503604208 0.04652343116)
5(0.04056477745 0.04206382632 0.04360760514 0.0450400552 0.04652522868)
5(0.0405672403 0.04206696389 0.04360936114 0.04504234495 0.046525806)
5(0.04057172358 0.04207140753 0.04361275584 0.04504650904 0.04652828002)
5(0.04057550891 0.04207628417 0.0436171791 0.0450509657 0.04653315817)
5(0.04058103803 0.0420807549 0.04362283925 0.04505539295 0.04653878965)
5(0.04058596126 0.04208568616 0.04362780512 0.04505979116 0.04654314058)
5(0.04059068194 0.04209049747 0.04363251245 0.04506511431 0.04654733902)
5(0.04059554969 0.04209511929 0.04363707026 0.04506941623 0.04655156325)
5(0.04060103688 0.04210069437 0.04364245682 0.04507415623 0.04655574641)
5(0.04060645143 0.04210635737 0.04364832748 0.04507957764 0.04656015509)
5(0.04061245388 0.04211264645 0.04365425232 0.04508472109 0.0465645883)
5(0.04061904094 0.04211873606 0.04366040148 0.04509030515 0.04656900129)
5(0.04062597709 0.04212566271 0.04366674657 0.04509612452 0.04657392681)
5(0.04063362246 0.04213294273 0.04367372092 0.04510173027 0.04657812053)
5(0.04064168241 0.04214078769 0.04368059696 0.04510794943 0.04658244161)
5(0.04065023802 0.04214885582 0.04368799251 0.04511371763 0.04658688163)
5(0.04066000176 0.04215791724 0.0436960979 0.04511903754 0.0465906887)
5(0.04067018564 0.04216716198 0.04370365609 0.04512521211 0.04659452454)
5(0.04068146987 0.04217731563 0.0437130555 0.04513158723 0.04659803233)
5(0.04069356394 0.04218732189 0.04372165597 0.04513786365 0.04660100643)
5(0.04070633885 0.04219876767 0.04373038836 0.04514360333 0.04660307603)
5(0.04072015927 0.04221057689 0.04373980328 0.04514877646 0.04660503571)
5(0.04073505392 0.04222241647 0.04374869925 0.04515378704 0.04660528224)
5(0.04075080469 0.04223477593 0.04375778948 0.04515793157 0.04660489021)
5(0.04076740409 0.04224742208 0.0437658642 0.04516136055 0.0466027248)
5(0.04078475109 0.0422601123 0.04377417638 0.04516330273 0.04659875677)
5(0.04080279808 0.04227272208 0.04378131311 0.04516391291 0.04659253611)
5(0.04082113394 0.04228509914 0.04378762768 0.0451626094 0.04658408271)
5(0.04084021378 0.04229685728 0.04379263266 0.04515974039 0.04657300532)
5(0.0408584624 0.04230726163 0.04379585698 0.045153484 0.0465597363)
5(0.04087683411 0.04231681088 0.04379647636 0.04514527156 0.04654392869)
5(0.04089401005 0.04232331594 0.04379449546 0.04513467548 0.0465239238)
5(0.0409090867 0.04232904887 0.0437898654 0.04511986195 0.04649808706)
5(0.04092169412 0.04232961819 0.0437801447 0.04510134218 0.04646521267)
5(0.04093009276 0.04232921525 0.04376849729 0.04507710447 0.04642663908)
5(0.04093534337 0.04232263179 0.04375171838 0.04504587664 0.04638452204)
5(0.04093458139 0.04230913124 0.04373108408 0.04500883533 0.04634136594)
5(0.0409267021 0.04229254263 0.04370380078 0.04496555243 0.04629619688)
5(0.04091014005 0.04226891038 0.04366874508 0.04491816988 0.0462489669)
5(0.04088490776 0.04223834134 0.04362284245 0.04486829107 0.04620148562)
5(0.04084989931 0.04219761412 0.04356925402 0.04481667985 0.04615428427)
5(0.04080569332 0.04214788891 0.04350950447 0.04476345804 0.04610851634)
5(0.04074879697 0.04208634592 0.04344537945 0.04470983951 0.04606480533)
5(0.04068175959 0.04201612885 0.0433787302 0.04465730689 0.04602274329)
5(0.04060254852 0.04193950187 0.04331074893 0.04460726831 0.04598342874)
5(0.04051459854 0.04186035349 0.0432436803 0.04455856916 0.04594534868)
5(0.04041863257 0.0417792264 0.04317719298 0.04451065211 0.04590975389)
5(0.04031795809 0.04169986452 0.04311243481 0.04446540996 0.04587517177)
5(0.04021703474 0.04162049076 0.04304848711 0.04442095358 0.04584146781)
5(0.04011686764 0.04154154712 0.04298615432 0.04437650502 0.04580769208)
5(0.04001925467 0.04146480698 0.04292398881 0.0443317747 0.04577321371)
5(0.0399241516 0.04138808639 0.04285918743 0.04428642149 0.04573826771)
5(0.03981178766 0.04130193772 0.04274393589 0.04424003807 0.04570633428)
)


60
(
5(0.04063811815 0.04211014369 0.04371957732 0.04514707042 0.04668076235)
5(0.04062823878 0.04212427686 0.04369223379 0.0451321096 0.04663591909)
5(0.04062559215 0.04213315121 0.04368240023 0.04512828738 0.04661652199)
5(0.04062881719 0.04213993674 0.04368652372 0.04513264332 0.04661783646)
5(0.04063776423 0.04214691749 0.04369815095 0.04514139052 0.04663164831)
5(0.04064770829 0.042153971 0.04370892938 0.04514955222 0.04664571759)
5(0.04065495291 0.0421597674 0.04371591747 0.04515642701 0.04665383389)
5(0.04066001192 0.04216544759 0.04372063121 0.04516141072 0.04665792847)
5(0.04066498166 0.04217106887 0.04372519186 0.04516642322 0.04666122252)
5(0.040670395 0.0421768497 0.04373007753 0.04517186918 0.04666675738)
5(0.04067620113 0.04218305271 0.04373675712 0.04517819362 0.04667285604)
5(0.04068260986 0.0421891994 0.04374340435 0.04518446349 0.04667931955)
5(0.04068949706 0.04219616495 0.04375045409 0.04519105939 0.04668567357)
5(0.04069629629 0.04220321244 0.04375731451 0.04519774835 0.04669173708)
5(0.04070356385 0.04221054075 0.04376486994 0.04520437243 0.04669793974)
5(0.04071101506 0.04221838634 0.04377220916 0.04521156273 0.04670425861)
5(0.04071948276 0.04222647347 0.04378069836 0.04521929834 0.04671098716)
5(0.04072828614 0.04223539829 0.04378895654 0.04522731014 0.04671759491)
5(0.04073782618 0.04224485888 0.04379851166 0.04523538504 0.04672479896)
5(0.0407480675 0.04225482592 0.04380782763 0.04524414544 0.04673204404)
5(0.04075878794 0.04226570482 0.04381812262 0.04525302269 0.04673955494)
5(0.04077098087 0.04227727205 0.04382837866 0.04526187511 0.04674682902)
5(0.04078356812 0.04228946398 0.04383994657 0.04527186948 0.04675433607)
5(0.0407974264 0.04230250451 0.04385179127 0.04528142969 0.04676180781)
5(0.04081203943 0.042316253 0.0438643075 0.04529144694 0.04676921837)
5(0.04082812074 0.04233099734 0.04387719167 0.04530205579 0.04677642663)
5(0.04084518839 0.04234602092 0.04389028686 0.04531225435 0.04678374744)
5(0.04086311897 0.04236287959 0.04390464003 0.04532338963 0.0467903179)
5(0.04088290099 0.04237961573 0.04391859875 0.04533316867 0.04679667892)
5(0.0409034654 0.04239719662 0.04393343961 0.04534386067 0.04680206338)
5(0.04092541454 0.04241621318 0.04394840504 0.04535342895 0.04680679147)
5(0.04094840021 0.04243495449 0.04396263175 0.04536236053 0.04681005662)
5(0.04097245221 0.04245369532 0.04397746168 0.04537077705 0.0468116026)
5(0.04099733542 0.04247388542 0.04399163303 0.04537786497 0.04681141894)
5(0.04102264104 0.04249293759 0.04400412258 0.04538334485 0.04680889372)
5(0.04104709867 0.04251187492 0.0440167447 0.04538696268 0.04680409739)
5(0.04107271987 0.04252939784 0.04402703093 0.0453882707 0.04679681278)
5(0.04109706802 0.04254580711 0.04403520964 0.04538713466 0.04678665886)
5(0.04111970686 0.04256025308 0.04404063097 0.04538295598 0.04677192429)
5(0.0411395785 0.04257098407 0.04404235988 0.04537476437 0.04675121186)
5(0.04115502071 0.04257871416 0.04404121808 0.04536210433 0.04672369403)
5(0.04116673449 0.0425823835 0.04403487656 0.04534432957 0.04669009477)
5(0.04117160291 0.04257997958 0.04402394523 0.0453192999 0.04665146885)
5(0.04116897351 0.04257125736 0.04400725693 0.04528660173 0.04660866751)
5(0.04115754294 0.04255386108 0.04398250075 0.04524705692 0.04656233761)
5(0.04113601867 0.04252982729 0.04394985214 0.04520063611 0.04651206817)
5(0.041103523 0.04249707978 0.04390633341 0.04514902573 0.04645837071)
5(0.04105968891 0.04245321163 0.0438524083 0.04509233254 0.04640161015)
5(0.04100434652 0.04239656709 0.04378873168 0.04503036449 0.04634278197)
5(0.04093751357 0.042330094 0.04371742162 0.04496436632 0.04628347096)
5(0.04085911296 0.0422514201 0.04363931795 0.04489579668 0.04622492487)
5(0.04076978461 0.04216360195 0.04355616375 0.04482540078 0.04616598144)
5(0.04067048812 0.042068381 0.04346842748 0.04475432436 0.04610780551)
5(0.04056323083 0.04196902345 0.04337822915 0.04468290579 0.04605117104)
5(0.04044988442 0.04186463376 0.04328643342 0.04461197495 0.04599602563)
5(0.04033221701 0.04175813361 0.04319394328 0.04454068715 0.04594145232)
5(0.04021169155 0.04165032543 0.0431009035 0.04446945724 0.04588668393)
5(0.04008967453 0.04154148133 0.04300645302 0.04439806102 0.04583107016)
5(0.03996404172 0.04143094289 0.04290969168 0.0443232918 0.04577218062)
5(0.03979499883 0.04128841703 0.04274309558 0.04422539179 0.04569989451)
)


60
(
5(0.04068013265 0.04216596822 0.0437712372 0.04521162147 0.04674493618)
5(0.04068054516 0.04218404453 0.04375662858 0.04520515285 0.04671569395)
5(0.04068302641 0.04219488566 0.04375383679 0.04520577475 0.04670545597)
5(0.04068832601 0.04220258095 0.04376027804 0.04521183492 0.04670990522)
5(0.04069675652 0.04220995916 0.04377076724 0.0452206318 0.04672215236)
5(0.04070596003 0.04221720858 0.04378087483 0.04522940059 0.04673493181)
5(0.04071339032 0.04222416439 0.04378858147 0.04523655332 0.04674337177)
5(0.04071951543 0.04223070118 0.04379463048 0.04524271745 0.04674900991)
5(0.040725356 0.04223712968 0.04380059018 0.0452491153 0.04675415261)
5(0.0407318722 0.04224439813 0.04380717112 0.04525607662 0.04676068842)
5(0.04073911628 0.04225161421 0.04381471966 0.04526336744 0.04676788583)
5(0.04074669855 0.04225955444 0.04382273249 0.04527091945 0.0467756271)
5(0.04075463415 0.04226766589 0.04383107112 0.04527906152 0.04678330249)
5(0.0407631584 0.04227633681 0.04383972503 0.04528750236 0.04679066564)
5(0.04077224923 0.0422853332 0.04384887679 0.04529587059 0.04679868616)
5(0.04078182198 0.04229512269 0.04385863686 0.04530473342 0.04680669074)
5(0.04079197963 0.04230556626 0.04386892627 0.0453145888 0.04681523087)
5(0.04080321368 0.04231652194 0.04387946311 0.0453240534 0.04682405345)
5(0.04081498165 0.04232855491 0.04389118921 0.04533490971 0.04683304962)
5(0.04082779168 0.0423410973 0.04390285568 0.04534550707 0.04684256924)
5(0.04084151541 0.04235430777 0.04391603816 0.04535748406 0.04685219419)
5(0.04085620977 0.04236913531 0.04392938498 0.04536894293 0.04686220292)
5(0.04087206579 0.04238425434 0.04394381227 0.04538178293 0.04687258019)
5(0.04088925915 0.04240040672 0.04395826053 0.04539481495 0.0468830923)
5(0.0409075963 0.0424174385 0.0439746583 0.04540816429 0.04689414637)
5(0.04092713069 0.04243621919 0.04399125866 0.04542209309 0.04690490133)
5(0.04094810808 0.04245542297 0.04400865049 0.04543658229 0.04691565572)
5(0.04097027474 0.04247581732 0.04402666778 0.04545136802 0.04692666626)
5(0.04099407651 0.04249728592 0.04404542266 0.04546583836 0.04693681102)
5(0.04101917375 0.04251962606 0.04406473691 0.04548118302 0.04694729773)
5(0.04104550816 0.04254284929 0.04408456986 0.04549582866 0.04695654473)
5(0.04107310419 0.0425667731 0.04410352032 0.04551025274 0.04696532906)
5(0.0411017931 0.04259115259 0.04412431538 0.04552405713 0.04697262261)
5(0.04113104892 0.0426159108 0.04414372816 0.0455370567 0.04697851399)
5(0.04116094723 0.04264039158 0.04416257236 0.04554869745 0.04698198371)
5(0.04119065703 0.04266456986 0.04418049455 0.04555891048 0.04698375017)
5(0.04121966384 0.04268733224 0.04419618254 0.04556693929 0.04698284407)
5(0.04124727945 0.04270853742 0.04421081828 0.04557223282 0.04697879381)
5(0.04127225536 0.04272723561 0.04422209822 0.04557439221 0.04697083775)
5(0.04129364757 0.04274231843 0.04422989998 0.04557271672 0.04695654451)
5(0.04131022337 0.04275328772 0.04423333728 0.04556665182 0.04693586807)
5(0.04131977559 0.04275863671 0.0442315657 0.04555439719 0.04690888111)
5(0.04132164156 0.04275718867 0.04422381357 0.045535284 0.04687582048)
5(0.04131392564 0.04274768491 0.04420948456 0.04550801941 0.04683778945)
5(0.04129560627 0.04272931532 0.04418711256 0.04547316428 0.04679453757)
5(0.04126555211 0.04270082598 0.04415400485 0.04543036446 0.04674549564)
5(0.0412227161 0.04266167553 0.04411119716 0.04538049376 0.04669063715)
5(0.04116887108 0.04261156475 0.04405635503 0.04532346518 0.04662994072)
5(0.04110161531 0.04254974002 0.0439917391 0.0452590482 0.04656493011)
5(0.0410260297 0.04247640811 0.04391733853 0.04518734138 0.0464958101)
5(0.04093871194 0.04239179423 0.04383309867 0.04510861462 0.04642417788)
5(0.04084168208 0.04229716479 0.04374036933 0.04502530085 0.04635052365)
5(0.0407370781 0.04219436571 0.0436400676 0.04493680847 0.04627564605)
5(0.04062499655 0.04208341631 0.04353316748 0.04484548169 0.04619968561)
5(0.04050627192 0.04196533688 0.04342160623 0.04475198093 0.04612421753)
5(0.04038155394 0.04184276856 0.04330667971 0.0446567893 0.04604912039)
5(0.04025227439 0.04171630098 0.04318958901 0.0445607311 0.04597132759)
5(0.04011833776 0.04158706239 0.04306949964 0.044461121 0.0458912098)
5(0.0399752693 0.04145288668 0.04294435628 0.04435644863 0.04580703174)
5(0.03977246062 0.04126098246 0.04274972911 0.04421782057 0.04569156825)
)


60
(
5(0.04071239083 0.04220780991 0.04381207487 0.04526226239 0.04679717904)
5(0.04071851329 0.04222785988 0.04380526268 0.04526075944 0.04677787781)
5(0.04072376992 0.04223983528 0.04380645547 0.04526418666 0.04677312301)
5(0.04072991627 0.04224773185 0.04381392643 0.04527112849 0.04677917801)
5(0.04073815716 0.04225530845 0.04382412767 0.04528004917 0.04679094221)
5(0.04074702517 0.04226308325 0.04383390165 0.04528897984 0.04680303076)
5(0.04075454299 0.04227037405 0.04384207771 0.04529663809 0.04681175945)
5(0.04076129147 0.04227760023 0.04384902159 0.04530400821 0.04681847154)
5(0.04076811655 0.0422851694 0.04385607863 0.04531107784 0.04682482827)
5(0.04077550242 0.04229275068 0.0438636905 0.04531902619 0.04683224448)
5(0.04078364962 0.04230149556 0.04387234505 0.0453272733 0.04684048262)
5(0.04079226477 0.04231023035 0.0438814048 0.04533633977 0.04684911696)
5(0.0408014999 0.0423195367 0.04389118647 0.04534530975 0.0468578643)
5(0.0408110166 0.04232976894 0.04390099878 0.04535508475 0.04686673611)
5(0.04082161353 0.04234027481 0.04391174235 0.04536494923 0.0468758053)
5(0.04083287342 0.04235179095 0.04392248983 0.04537558214 0.04688531244)
5(0.0408448478 0.04236368742 0.04393477158 0.04538678217 0.04689545579)
5(0.04085776491 0.04237665839 0.04394756487 0.04539788632 0.04690589789)
5(0.04087167149 0.0423905716 0.04396074403 0.04541094356 0.04691683687)
5(0.04088653782 0.04240518436 0.04397495642 0.04542365787 0.04692824665)
5(0.04090254508 0.04242089334 0.04399019037 0.04543723525 0.04694022479)
5(0.04091981436 0.04243781057 0.04400599575 0.04545183362 0.0469524286)
5(0.04093814776 0.04245550686 0.04402273163 0.04546664825 0.04696528022)
5(0.040957853 0.04247455112 0.04404056067 0.04548223745 0.04697853947)
5(0.04097911618 0.04249488501 0.04405946435 0.04549876099 0.04699221057)
5(0.04100152479 0.04251552044 0.04407912979 0.04551597775 0.04700632173)
5(0.04102571203 0.0425388323 0.04409975828 0.04553363878 0.04702089151)
5(0.04105126686 0.042562304 0.04412130933 0.04555190811 0.04703541307)
5(0.04107841073 0.04258704089 0.04414379636 0.0455707189 0.04704994109)
5(0.04110666748 0.0426130219 0.04416694389 0.04558970705 0.04706430375)
5(0.04113656504 0.0426401625 0.04419052552 0.04560885803 0.0470783436)
5(0.04116775229 0.04266798676 0.04421455383 0.04562780858 0.04709162276)
5(0.04119981116 0.04269656785 0.04423884931 0.04564664482 0.04710438348)
5(0.04123252862 0.04272486543 0.04426312011 0.04566464587 0.04711564668)
5(0.04126530603 0.04275343535 0.04428669575 0.04568172909 0.04712520254)
5(0.04129775631 0.04278142993 0.04430952349 0.04569739502 0.04713278968)
5(0.0413292317 0.04280780954 0.04433036057 0.04571085994 0.04713805148)
5(0.04135845134 0.04283232287 0.04434898744 0.04572193055 0.04714025554)
5(0.04138443722 0.04285409206 0.04436459239 0.04572973308 0.04713871562)
5(0.0414056975 0.04287149666 0.04437623731 0.0457338524 0.04713150204)
5(0.04142058153 0.04288353386 0.04438305691 0.04573288 0.04711751045)
5(0.04142753261 0.04288866796 0.04438408646 0.04572569082 0.04709703084)
5(0.04142450943 0.0428857342 0.04437768889 0.04571141213 0.04707073327)
5(0.04141037996 0.04287331724 0.04436371267 0.04568868857 0.04703843628)
5(0.0413837341 0.04285019045 0.04433976681 0.04565776638 0.04700002688)
5(0.04134524075 0.04281591131 0.04430627335 0.04561831979 0.04695451167)
5(0.04129335357 0.04276954575 0.04426098838 0.04557072514 0.04690185457)
5(0.0412297465 0.04271145963 0.04420393182 0.04551393846 0.0468419303)
5(0.04115398907 0.04264173024 0.04413579103 0.04544935595 0.04677500667)
5(0.04106793462 0.04256111632 0.04405812171 0.04537475477 0.04670108308)
5(0.04097281555 0.04247099895 0.0439696405 0.04529122356 0.04662126513)
5(0.04086992919 0.04237124876 0.04387076184 0.04519902269 0.04653599712)
5(0.04076018921 0.04226347779 0.04376284804 0.04509879494 0.04644645821)
5(0.0406442476 0.04214735077 0.04364644819 0.04499321024 0.04635391923)
5(0.04052279928 0.04202347463 0.04352255842 0.04488196997 0.04625872711)
5(0.04039555414 0.04189269859 0.04339233281 0.04476580556 0.0461614438)
5(0.04026242998 0.04175629913 0.04325779578 0.04464609235 0.04606040908)
5(0.04012223141 0.04161462081 0.04311827138 0.04452231524 0.04595533624)
5(0.03996892724 0.04146361565 0.04297161131 0.04439218114 0.04584370872)
5(0.03974597927 0.04124746074 0.04272488313 0.04419699469 0.0456719855)
)


60
(
5(0.04073819367 0.04224092004 0.04384555908 0.04530361704 0.04684115273)
5(0.04074762776 0.04226177177 0.04384381993 0.04530547459 0.04682868025)
5(0.04075448076 0.04227419627 0.04384751435 0.04531061272 0.04682759513)
5(0.04076105857 0.04228251255 0.04385571958 0.04531817935 0.04683465875)
5(0.04076906275 0.0422902592 0.04386568922 0.04532725533 0.04684610086)
5(0.04077764712 0.04229802366 0.04387543086 0.0453362296 0.04685785176)
5(0.04078546538 0.04230572703 0.04388370117 0.04534443769 0.04686687942)
5(0.04079266264 0.04231368615 0.04389166278 0.04535237239 0.0468743296)
5(0.04080018524 0.04232165003 0.04389928589 0.04536037523 0.04688156658)
5(0.04080831267 0.0423305283 0.04390810002 0.04536898076 0.04688984909)
5(0.04081720812 0.04233953118 0.0439172508 0.04537817951 0.0468987741)
5(0.04082676473 0.04234956317 0.04392753952 0.04538799152 0.04690833688)
5(0.04083693971 0.04235994317 0.04393805764 0.04539816596 0.04691791895)
5(0.0408479194 0.04237110532 0.04394933252 0.04540895661 0.04692798886)
5(0.04085958145 0.04238304747 0.04396113182 0.04542012295 0.04693826878)
5(0.0408721223 0.04239567325 0.04397365764 0.04543214536 0.04694920104)
5(0.04088565717 0.04240948506 0.04398716154 0.04544449008 0.04696056086)
5(0.04090014699 0.04242378967 0.0440012139 0.04545799452 0.04697256544)
5(0.04091583313 0.04243941997 0.04401654552 0.04547185091 0.04698521518)
5(0.04093256303 0.04245595906 0.04403244539 0.04548669118 0.04699835067)
5(0.04095057906 0.04247351149 0.04404941602 0.04550238452 0.04701218068)
5(0.04096985185 0.04249241725 0.04406766156 0.0455185747 0.04702667596)
5(0.04099039396 0.04251247672 0.04408647771 0.04553581981 0.04704181818)
5(0.04101247872 0.04253364831 0.04410665918 0.04555385292 0.04705754914)
5(0.04103608981 0.04255621705 0.04412811165 0.0455727849 0.0470739169)
5(0.04106109502 0.04258022963 0.04415029711 0.04559276826 0.04709081316)
5(0.0410876428 0.04260527746 0.04417370909 0.04561355316 0.0471082106)
5(0.04111586857 0.04263177734 0.04419828044 0.04563470641 0.04712583676)
5(0.04114580208 0.04265961908 0.0442239409 0.04565672795 0.04714404287)
5(0.0411769528 0.04268879439 0.04425015981 0.04567950925 0.04716239126)
5(0.04120955105 0.04271860114 0.04427717211 0.0457022188 0.04718056324)
5(0.04124316553 0.04274931598 0.04430496991 0.04572524382 0.04719844738)
5(0.04127778368 0.04278102793 0.04433287848 0.04574813891 0.04721566436)
5(0.04131301462 0.04281283924 0.04436068377 0.04577063087 0.04723156394)
5(0.04134794351 0.04284430663 0.04438782938 0.04579228192 0.0472464819)
5(0.04138222093 0.04287477415 0.04441409456 0.04581220621 0.04725941252)
5(0.04141455348 0.04290372747 0.04443885255 0.04583030676 0.04727020169)
5(0.04144428401 0.04293038689 0.04446078851 0.04584606632 0.04727821583)
5(0.04146968633 0.04295351061 0.04447938619 0.04585854083 0.04728216959)
5(0.04148941558 0.04297148569 0.04449358389 0.04586629027 0.04728081671)
5(0.04150169627 0.0429832427 0.04450195769 0.04586926211 0.04727256189)
5(0.04150444905 0.04298696679 0.04450366604 0.0458658055 0.04725832107)
5(0.04149616192 0.04298113104 0.04449722296 0.045854299 0.04723734983)
5(0.04147610773 0.04296433207 0.04448156027 0.04583419333 0.04721008759)
5(0.04144330389 0.04293581651 0.04445480146 0.04580545958 0.047176066)
5(0.04139706626 0.04289477456 0.04441668448 0.04576726599 0.04713474987)
5(0.04133752473 0.04284063039 0.04436663621 0.04572015715 0.04708489687)
5(0.04126531247 0.04277367025 0.04430345768 0.04566332479 0.04702655275)
5(0.04118186833 0.04269535136 0.04423201436 0.04559660243 0.0469597639)
5(0.04108828625 0.04260713004 0.04414848934 0.04551990648 0.04688410659)
5(0.04098574497 0.04251033668 0.04405474657 0.04543218467 0.04679866039)
5(0.04087586927 0.04240544175 0.04395140283 0.04533460529 0.04670691408)
5(0.04076050781 0.04229304897 0.04383817197 0.0452269239 0.04660654401)
5(0.04063999752 0.04217287693 0.04371584343 0.04510973269 0.0464991182)
5(0.04051505325 0.04204585902 0.04358508556 0.04498520553 0.04638630725)
5(0.0403847092 0.0419113806 0.04344689447 0.04485363561 0.04626806122)
5(0.04024892469 0.04176959894 0.04330161132 0.04471520604 0.04614506214)
5(0.04010463247 0.04162043144 0.04314904353 0.0445708081 0.04601612707)
5(0.03994564039 0.04145829271 0.04298372672 0.04441690077 0.04587739397)
5(0.03971045146 0.04122172516 0.04271108217 0.04418527602 0.04566465521)
)


60
(
5(0.04075933422 0.04226800551 0.04387373225 0.04533844497 0.04687886737)
5(0.04077082079 0.04228900535 0.04387549062 0.04534260187 0.04687138764)
5(0.04077856235 0.04230174456 0.0438809328 0.04534889764 0.04687289346)
5(0.04078526811 0.04231023148 0.04388950037 0.04535696952 0.04688077195)
5(0.0407931575 0.04231810313 0.04389935069 0.04536598223 0.04689195757)
5(0.04080161993 0.04232590516 0.04390907844 0.04537529109 0.04690341766)
5(0.04080960261 0.04233404301 0.04391761623 0.04538367739 0.04691283781)
5(0.04081723426 0.04234234794 0.04392619656 0.04539235635 0.04692077393)
5(0.04082539365 0.04235103532 0.04393451019 0.04540079499 0.04692883911)
5(0.04083412059 0.04236042436 0.04394408771 0.04541031197 0.04693774185)
5(0.04084376872 0.04237031646 0.04395395355 0.04542003877 0.04694741743)
5(0.0408540624 0.04238114854 0.04396514174 0.04543074613 0.04695763001)
5(0.04086527896 0.04239235548 0.04397645325 0.04544174458 0.04696817606)
5(0.04087722037 0.04240485556 0.04398892889 0.04545357976 0.0469790649)
5(0.04089008947 0.04241765599 0.04400165902 0.0454657667 0.04699050877)
5(0.04090394446 0.04243182355 0.04401558198 0.04547894863 0.04700260834)
5(0.0409187668 0.04244650756 0.04403020133 0.04549257873 0.04701526845)
5(0.0409348158 0.04246254982 0.04404581604 0.04550748379 0.04702864614)
5(0.04095201078 0.04247964849 0.04406252579 0.04552275008 0.04704267015)
5(0.04097042688 0.04249766309 0.04407997976 0.04553934138 0.04705750778)
5(0.04099012686 0.04251732217 0.04409898243 0.04555647993 0.0470730987)
5(0.04101132105 0.04253766251 0.04411854312 0.04557469312 0.04708939906)
5(0.04103392419 0.0425596848 0.04413970525 0.04559395578 0.04710652428)
5(0.04105804176 0.04258304879 0.04416190405 0.04561394297 0.04712442862)
5(0.04108359826 0.04260764663 0.04418521226 0.04563536266 0.04714313312)
5(0.04111096289 0.04263370611 0.04421009529 0.04565744354 0.04716269432)
5(0.04113985266 0.04266139175 0.044235889 0.04568053115 0.04718283625)
5(0.04117049096 0.04269009452 0.04426289379 0.04570491301 0.04720351455)
5(0.04120236167 0.04272040201 0.04429107003 0.04572970977 0.04722486419)
5(0.04123583782 0.04275201573 0.04432018462 0.04575521046 0.04724624887)
5(0.04127038669 0.0427842639 0.04434990376 0.04578121176 0.0472681286)
5(0.04130652573 0.04281768868 0.04438052499 0.04580770146 0.04728954134)
5(0.04134299479 0.04285165289 0.04441162146 0.04583382481 0.04731086916)
5(0.04137955212 0.04288563933 0.04444210131 0.04585988238 0.04733113622)
5(0.04141576241 0.04291925293 0.04447237267 0.04588528753 0.04735052133)
5(0.04145064075 0.04295168336 0.04450138056 0.04590912441 0.04736825811)
5(0.04148312653 0.04298240965 0.04452884675 0.04593083964 0.04738369116)
5(0.04151207967 0.04300997574 0.04455300153 0.045950218 0.04739643919)
5(0.04153588282 0.04303332017 0.04457351881 0.04596605288 0.0474053207)
5(0.04155296639 0.04305095991 0.04458894581 0.04597692796 0.04740860768)
5(0.04156161024 0.04306100394 0.04459786579 0.04598261249 0.04740553156)
5(0.04156027895 0.04306202921 0.04459895429 0.04598095232 0.04739571592)