/*--------------------------------*- C++ -*----------------------------------*\
| =========                 |                                                 |
| \\      /  F ield         | OpenFOAM: The Open Source CFD Toolbox           |
|  \\    /   O peration     | Version:  2.3.1                                 |
|   \\  /    A nd           | Web:      www.OpenFOAM.org                      |
|    \\/     M anipulation  |                                                 |
\*---------------------------------------------------------------------------*/
FoamFile
{
    version     2.0;
    format      ascii;
    class       dictionary;
    location    "constant";
    object      Z;
}
// * * * * * * * * * * * * * * * * * * * * * * * * * * * * * * * * * * * * * //

Z_table
60
(

60
(
5(0.07960465988 0.08184067821 0.0856963731 0.08808705651 0.09141639638)
5(0.07898275747 0.08082567562 0.08489396633 0.08744717147 0.09051170442)
5(0.07746200555 0.08126224396 0.0844381939 0.08694873061 0.08869707787)
5(0.07672526718 0.08139098081 0.08459668577 0.0865214525 0.09043161993)
5(0.07724472447 0.08128169875 0.08451015462 0.0869300222 0.08988788989)
5(0.07818743655 0.08115940494 0.08382385783 0.0868922948 0.08949254323)
5(0.07846525878 0.08108258397 0.08390731589 0.08664932886 0.08991138044)
5(0.07806705988 0.0810808517 0.08419176536 0.0867616253 0.08925735463)
5(0.07829242761 0.08111997142 0.08410103497 0.08680357947 0.08953989276)
5(0.07823467231 0.0811622725 0.08425796073 0.08675349598 0.08960196821)
5(0.07826672049 0.08115655889 0.08423786037 0.08676538074 0.08960299599)
5(0.0782769419 0.081156217 0.08412845867 0.08676409823 0.08952194423)
5(0.07821480929 0.08116706967 0.08409736028 0.08681489117 0.08956040193)
5(0.07831177906 0.08118098991 0.08411393051 0.08673969525 0.08951537169)
5(0.07823446411 0.08114815071 0.08407781248 0.08677861703 0.08950752095)
5(0.07826319322 0.08115815447 0.08410161461 0.08678345423 0.0895131599)
5(0.0782647512 0.08115197157 0.08410060752 0.08678477074 0.0895425282)
5(0.07826311463 0.08114977903 0.08410050734 0.08680775872 0.08955154873)
5(0.07825460139 0.08115438573 0.0841008614 0.08679827396 0.08954922977)
5(0.07828423229 0.08119171842 0.084125715 0.08684368703 0.08953849415)
5(0.07827551413 0.08116496154 0.08409439142 0.08682803558 0.08953086125)
5(0.07828019352 0.08116108687 0.08410664108 0.08673430212 0.08946875395)
5(0.0783102337 0.08117445313 0.0840983922 0.08678868165 0.08951662652)
5(0.07829854849 0.0812070665 0.08410134888 0.08678519675 0.08950158763)
5(0.07831573499 0.08121154895 0.08411567111 0.08680898228 0.08951673762)
5(0.07832153418 0.08120881773 0.08414996849 0.08684146631 0.08950618004)
5(0.07833470819 0.08119848985 0.08411857806 0.08685080404 0.08950100323)
5(0.07833080184 0.08120278984 0.08413867277 0.0868515418 0.08948684139)
5(0.07836599315 0.08122046142 0.08411930438 0.08682929928 0.08947949544)
5(0.07837778854 0.08124439117 0.08410853604 0.08678501137 0.08944689522)
5(0.07840509667 0.08126294875 0.08412930696 0.08680133464 0.08943426123)
5(0.07841662708 0.08125665014 0.084097494 0.08673780255 0.08930987792)
5(0.07842097903 0.08126715889 0.08410252086 0.08672002475 0.08937278364)
5(0.07843798359 0.08128268875 0.08411907227 0.08668325867 0.08923109428)
5(0.07845395397 0.08127409252 0.08409224485 0.08665395609 0.0891944347)
5(0.0784622226 0.08130172134 0.08414196471 0.08663224075 0.08914878454)
5(0.07846877499 0.08124598199 0.08401051002 0.08654366341 0.08910592736)
5(0.07846925522 0.0812635955 0.08398337717 0.08652644628 0.08881050406)
5(0.07847835636 0.08123951937 0.08397971135 0.08645173483 0.08897098009)
5(0.07850461463 0.08122847939 0.08399095876 0.08642312536 0.08805544947)
5(0.07849093196 0.08117041001 0.08388042404 0.08632571435 0.08806374555)
5(0.07845644844 0.08113185897 0.08380464524 0.08598124124 0.08804218003)
5(0.07843208538 0.08105254766 0.08369799309 0.08529218264 0.08805619462)
5(0.07841034328 0.0810379191 0.0838219862 0.08527745001 0.08810419259)
5(0.07838011042 0.08096083923 0.08366935962 0.08531093503 0.08806982798)
5(0.07830083331 0.08091618054 0.08347133028 0.08531286397 0.0880715141)
5(0.07822461921 0.08077437791 0.08272125431 0.08532331698 0.08807968422)
5(0.07811628043 0.080474283 0.08246140116 0.08532884284 0.08808172955)
5(0.0780422931 0.08043969455 0.08243524274 0.0853322301 0.08808149014)
5(0.07793366987 0.07961673322 0.08244200049 0.0853453147 0.08808591126)
5(0.07775555071 0.07961927108 0.08245027528 0.08533916961 0.0880786578)
5(0.07708398767 0.07962725394 0.08245783212 0.08534350769 0.0880748155)
5(0.07684533737 0.07963240497 0.08246400937 0.08534713294 0.08807944526)
5(0.07680295048 0.07964253268 0.08246016859 0.08535103125 0.08807002448)
5(0.07683766789 0.07965381289 0.08246577356 0.08534576006 0.08806601501)
5(0.07689746711 0.07966568421 0.08247417821 0.08534784431 0.08806018794)
5(0.07705201232 0.07968438597 0.08249659936 0.08533958899 0.08798645359)
5(0.07720473549 0.07979373619 0.08252718862 0.08528106844 0.08796922656)
5(0.0773316016 0.07995013915 0.08266593104 0.08479157086 0.0877689825)
5(0.07748818449 0.08031793644 0.08312558328 0.0861603986 0.08857490123)
)


60
(
5(0.08018265368 0.08280571553 0.0863399732 0.08895062939 0.09212419193)
5(0.07998093054 0.08283085316 0.08601035555 0.0887524156 0.09168102013)
5(0.07988135437 0.08285635254 0.0858567159 0.08867192517 0.09145429397)
5(0.07987454296 0.08288449592 0.08585421911 0.08867568681 0.09142980087)
5(0.07992668439 0.08291991357 0.08593189408 0.08872361175 0.09152155562)
5(0.08000058294 0.08295432835 0.08600634611 0.08876734708 0.09161894636)
5(0.0800435645 0.0829824589 0.08603509308 0.08879818182 0.09165952358)
5(0.08005966683 0.08300146026 0.08604756483 0.08881352753 0.09166320675)
5(0.08006868739 0.08301458262 0.08604993931 0.0888197796 0.09165932256)
5(0.08008764072 0.08303233149 0.08606113305 0.0888341614 0.0916654115)
5(0.08010297821 0.08305139005 0.08607728972 0.08885008221 0.09168314755)
5(0.08012583536 0.08306738795 0.08609813619 0.08886515324 0.09170334005)
5(0.08014421107 0.08308371548 0.08611482994 0.08887765105 0.09171569586)
5(0.08015983948 0.08309792147 0.08612791015 0.08889203438 0.09172576413)
5(0.08017411442 0.08311032566 0.08613877766 0.08890140247 0.0917333644)
5(0.08018984492 0.08312462423 0.08615174143 0.08891078934 0.09174012843)
5(0.08020344158 0.08313809863 0.08616510805 0.0889212506 0.09174645832)
5(0.08021799197 0.08315189388 0.08617701554 0.08892915317 0.09175174784)
5(0.08023303857 0.08316337094 0.08618787537 0.08893716706 0.09175539029)
5(0.08024744933 0.08317598887 0.08619754014 0.08894439551 0.09175902901)
5(0.08026195745 0.08318822101 0.0862072243 0.08894869328 0.09175799688)
5(0.08027557852 0.08320039955 0.08621449451 0.08895337306 0.09175584934)
5(0.08028941098 0.08321071299 0.08622133532 0.08895443572 0.09175250732)
5(0.08030504933 0.08322155566 0.08622810371 0.08895146723 0.09174513283)
5(0.08031850107 0.08323045901 0.08623083541 0.08894954062 0.09173575081)
5(0.08033319381 0.08323937322 0.08623678727 0.08894608944 0.09172321383)
5(0.08034686058 0.08324481634 0.08623729351 0.0889399855 0.09170704632)
5(0.08035916184 0.08325167147 0.08623477599 0.08892962955 0.0916860847)
5(0.08037066644 0.08325621401 0.08623111628 0.08891462138 0.09166375433)
5(0.08038168357 0.0832569649 0.08622299846 0.08889681561 0.09163387986)
5(0.08039027046 0.083255112 0.08621174766 0.08887375215 0.09160127686)
5(0.08039657501 0.0832499645 0.08619409829 0.08884638729 0.09156183204)
5(0.08039997145 0.08324098318 0.08617437125 0.08881278166 0.0915158859)
5(0.08040022524 0.08322741936 0.08614780741 0.08877348838 0.09146313874)
5(0.08039546291 0.0832088351 0.08611596803 0.08872762655 0.09140400998)
5(0.08038763992 0.08318472015 0.08607770844 0.0886763065 0.09133768849)
5(0.08037167047 0.08315325879 0.08603289521 0.08861506918 0.09126650609)
5(0.0803516233 0.0831165242 0.08598019912 0.08854916649 0.09118994747)
5(0.08032392959 0.08306974898 0.08592031503 0.0884783826 0.09110382284)
5(0.08028748228 0.08301927612 0.08585364143 0.08839858935 0.091004719)
5(0.08024307195 0.08295656526 0.08577625416 0.08831227881 0.09088962772)
5(0.08018880916 0.08289319875 0.08569753665 0.08821587212 0.09076442051)
5(0.08012874101 0.08281851243 0.08561081398 0.08810737317 0.09063239733)
5(0.08005889494 0.08273273305 0.08551934657 0.08798845588 0.09049909502)
5(0.07998005319 0.08264647274 0.08541848049 0.08785925036 0.09036347873)
5(0.07989124982 0.08255237104 0.08530724821 0.0877235202 0.09022491719)
5(0.07979383795 0.0824508242 0.08518065725 0.08758388633 0.09008324052)
5(0.07968665478 0.08233667106 0.08504202711 0.08744100093 0.08993977951)
5(0.07957069042 0.08221164062 0.08489229988 0.08729459182 0.0897986788)
5(0.07943896875 0.08206883773 0.08473416661 0.08714657484 0.08966055661)
5(0.07929379986 0.08190977443 0.08456890178 0.0869966693 0.08952659534)
5(0.07912826169 0.08173744366 0.08439714487 0.08684760972 0.08939913037)
5(0.07894434746 0.08155631656 0.08422291085 0.08669955992 0.0892732502)
5(0.07873913969 0.0813639013 0.08404389762 0.08655222174 0.08915598778)
5(0.07851321184 0.08116583565 0.08386050394 0.08640652058 0.08903888494)
5(0.07826983461 0.0809557639 0.08367005013 0.08625732213 0.08892132617)
5(0.07800556548 0.08073006156 0.08346944435 0.08609934545 0.08879485246)
5(0.07771498983 0.08048226277 0.0832462256 0.08592190096 0.08864873451)
5(0.077371124 0.08018584112 0.08297806739 0.08569931093 0.0884549139)
5(0.07644991568 0.07940945848 0.081777821 0.08482367112 0.08787146831)
)


60
(
5(0.08059407586 0.08333671207 0.0868122815 0.08952455345 0.09266005597)
5(0.08051995369 0.08343336015 0.08661443622 0.08941982402 0.09236428234)
5(0.0804974767 0.08349256114 0.08654867248 0.08939301208 0.09223854228)
5(0.08051759999 0.08353547635 0.08657352051 0.08941733983 0.09224322527)
5(0.08057640942 0.08357822875 0.08664481563 0.08946775383 0.09232272054)
5(0.08064126024 0.08361926582 0.08670947358 0.08951427139 0.09240277428)
5(0.08068421766 0.08364968421 0.08674543988 0.08954618439 0.09244303499)
5(0.08070882219 0.08367561286 0.08676367335 0.08956546597 0.09245592554)
5(0.08072951139 0.08369866875 0.08677723246 0.08958165948 0.09246191497)
5(0.08075115399 0.08372070084 0.08679324498 0.08959914843 0.09247806141)
5(0.08077351514 0.08374228862 0.08681521435 0.08961852544 0.0924966069)
5(0.08079638531 0.08376183592 0.08683616549 0.08963606772 0.09251478218)
5(0.08081892864 0.08378171378 0.08685558915 0.08965202925 0.09252924455)
5(0.08083802679 0.08379970921 0.08687140351 0.08966568846 0.09253989694)
5(0.08085627329 0.08381602522 0.08688672914 0.08967714286 0.09254805272)
5(0.08087245524 0.08383171724 0.08689953707 0.08968746625 0.09255460544)
5(0.08089055802 0.08384582483 0.08691341114 0.08969743009 0.09256039233)
5(0.08090710611 0.08386004893 0.08692438164 0.08970568739 0.09256316075)
5(0.08092306278 0.08387367648 0.08693629667 0.08971179769 0.09256473142)
5(0.08093868445 0.08388589724 0.08694472986 0.08971696983 0.09256412423)
5(0.08095229133 0.08389790597 0.08695290604 0.08971959596 0.0925617725)
5(0.0809679211 0.0839090512 0.08695795901 0.08971890861 0.09255518409)
5(0.08098124559 0.08391856669 0.08696349594 0.08971801441 0.09254672345)
5(0.08099451278 0.08392673482 0.08696635354 0.08971287682 0.09253529604)
5(0.08100610186 0.08393306507 0.08696726217 0.08970562737 0.09252063104)
5(0.08101805764 0.08393812275 0.08696521428 0.08969638195 0.0925014669)
5(0.0810281634 0.08393968506 0.08695961583 0.0896828235 0.09247988965)
5(0.08103543646 0.08394171821 0.08695322607 0.08966755186 0.09245302429)
5(0.08104362621 0.08393865352 0.08694124322 0.08964488896 0.09242253266)
5(0.08104771964 0.08393295077 0.08692657748 0.08962037892 0.09238560053)
5(0.08105030201 0.08392565586 0.08690763308 0.08958927501 0.09234489548)
5(0.08104917174 0.08391204352 0.08688199775 0.08955251487 0.0922971703)
5(0.08104449393 0.08389290697 0.08685307378 0.08951066434 0.09224282135)
5(0.08103538398 0.08387197401 0.08681737796 0.08946238324 0.09218128079)
5(0.08102096058 0.08384255555 0.08677315813 0.08940684943 0.09211284437)
5(0.08099828266 0.08380748784 0.0867252698 0.08934388318 0.09203789621)
5(0.08097191598 0.08376448595 0.08666827206 0.08927357947 0.09195626756)
5(0.08093888493 0.08371468121 0.08660368445 0.08919669085 0.0918691958)
5(0.08089652925 0.08365698116 0.08653126326 0.08911302175 0.09177290154)
5(0.08084543162 0.08358962901 0.0864499709 0.08902174022 0.09166559516)
5(0.08078402023 0.08351611447 0.08636378452 0.08892350625 0.09154813701)
5(0.08071533398 0.08343543432 0.08627004053 0.08881867175 0.09142258159)
5(0.08063629939 0.08334640057 0.08617122936 0.08870454611 0.09129290902)
5(0.08054796138 0.08325093108 0.08606712672 0.08858211581 0.09116054467)
5(0.08045070296 0.08314719373 0.08595582999 0.0884545938 0.09102736577)
5(0.08034455701 0.08304031989 0.08583938592 0.08832160261 0.09089043794)
5(0.08022946629 0.08292811187 0.0857127971 0.08818523287 0.09075019318)
5(0.08010544218 0.08280705698 0.0855764211 0.0880450093 0.09060663426)
5(0.07997195757 0.08267395137 0.08543091425 0.08789928556 0.0904604417)
5(0.07982781771 0.08253177132 0.08527810782 0.08774785944 0.09031268346)
5(0.07967077896 0.08237455489 0.08511576512 0.08759145068 0.09016393096)
5(0.07949884186 0.0822044917 0.08494409552 0.08743021614 0.09001437573)
5(0.07931054679 0.0820215942 0.08476358542 0.0872642088 0.08986402672)
5(0.07910471767 0.08182750649 0.0845729991 0.08709348571 0.08971158658)
5(0.07888067948 0.08161717843 0.08437166019 0.08691822208 0.08955850611)
5(0.07863449694 0.08139008951 0.08415726129 0.08673406467 0.08939934854)
5(0.07836056732 0.0811412015 0.0839231614 0.08653700544 0.08922897813)
5(0.07804540825 0.08085599067 0.08365824932 0.08631334697 0.08903435863)
5(0.07763083543 0.08048981715 0.08332182126 0.08603143381 0.08878538681)
5(0.0764158564 0.07940520678 0.08179939976 0.08475009135 0.08790885743)
)


60
(
5(0.08092733017 0.08374125116 0.08720067414 0.08998395796 0.09310957697)
5(0.08092912941 0.08388103091 0.08708006461 0.08993088253 0.0928987676)
5(0.08094562522 0.08396172502 0.08705892933 0.08993304901 0.09282344097)
5(0.08098295117 0.08401481626 0.08710060456 0.08996989301 0.09284711437)
5(0.0810438973 0.08406319345 0.08717029033 0.09002322697 0.09292164232)
5(0.08110848045 0.08410839709 0.08723318361 0.09007301802 0.09299663274)
5(0.08115432296 0.08414502628 0.08727307176 0.09010709385 0.09303830136)
5(0.0811850238 0.08417554088 0.08729733282 0.09013097564 0.09305733309)
5(0.08120982454 0.08420207145 0.08731651664 0.09015184478 0.09306985047)
5(0.08123565602 0.08422860565 0.08733757921 0.09017319429 0.09308777444)
5(0.08126248917 0.08425272959 0.08736091533 0.09019379204 0.0931072075)
5(0.08128776824 0.08427609173 0.08738364059 0.09021255798 0.0931261651)
5(0.08131113143 0.08429701372 0.08740402477 0.09022982236 0.09314097949)
5(0.08133308941 0.08431653058 0.08742155066 0.09024467052 0.09315078044)
5(0.08135364734 0.08433403206 0.08743742649 0.09025628666 0.09315956224)
5(0.08137254438 0.08435115996 0.08745220028 0.09026629513 0.09316527882)
5(0.08139005128 0.08436693124 0.08746538402 0.09027585899 0.09316949772)
5(0.08140828457 0.0843808808 0.08747599972 0.09028168041 0.09317137577)
5(0.08142401805 0.08439472389 0.08748648793 0.09028713369 0.09317010873)
5(0.08144005166 0.08440647965 0.08749329667 0.09028906139 0.09316710525)
5(0.08145466338 0.08441638081 0.08750042593 0.09029079403 0.09316103571)
5(0.08146746463 0.08442692314 0.08750418909 0.09028718694 0.09315100636)
5(0.08147981331 0.08443416915 0.08750639069 0.09028309958 0.09313895251)
5(0.08149256053 0.08443975662 0.08750440234 0.09027536265 0.0931231829)
5(0.08150278235 0.08444286763 0.08750308826 0.09026423109 0.09310542172)
5(0.08151142468 0.08444574226 0.0874976831 0.09025024219 0.09308205906)
5(0.08151857649 0.08444506091 0.08748904054 0.09023294494 0.09305455013)
5(0.08152359641 0.08444182836 0.08747677236 0.09021148967 0.09302378062)
5(0.08152672959 0.08443552724 0.087460781 0.0901843167 0.0929861809)
5(0.08152711189 0.08442551269 0.08744047457 0.09015416329 0.0929456948)
5(0.08152426223 0.08441149195 0.08741546724 0.09011735888 0.09289731984)
5(0.08151782062 0.08439288675 0.08738276609 0.09007492842 0.09284427196)
5(0.08150724328 0.0843691873 0.08734870484 0.09002597335 0.09278337318)
5(0.08149154178 0.08433997449 0.08730579175 0.08997107281 0.0927161958)
5(0.08147057717 0.08430425691 0.08725588685 0.08990859143 0.09263959362)
5(0.08144323661 0.08426201354 0.08719905216 0.08983881846 0.0925582573)
5(0.0814088093 0.0842119236 0.08713300059 0.08976130249 0.09246905786)
5(0.08136655466 0.08415406979 0.08706144674 0.08967565728 0.09237214149)
5(0.08131561377 0.08408798411 0.08698041148 0.08958250437 0.09226837908)
5(0.08125541617 0.08401317497 0.08689127832 0.08948225599 0.09215317288)
5(0.08118537039 0.08392997984 0.08679476589 0.08937550816 0.09202991185)
5(0.08110448657 0.08383839495 0.08669118469 0.08926074169 0.09189955033)
5(0.0810131022 0.08373877505 0.08658151974 0.08913933934 0.0917651477)
5(0.08091082616 0.08363152341 0.0864674043 0.08901121829 0.09162936223)
5(0.08079762038 0.08351752136 0.08634846742 0.0888787466 0.09149224352)
5(0.08067361739 0.0833969904 0.08622181866 0.08874265477 0.09135351913)
5(0.08053805312 0.0832705058 0.08609003759 0.08860464636 0.09121211103)
5(0.08039341396 0.08313682534 0.08595008669 0.08846342887 0.09106681166)
5(0.08023560506 0.08299434542 0.08580400741 0.08831758985 0.09091919579)
5(0.08007128012 0.08284186475 0.08565047436 0.08816587971 0.09076717796)
5(0.07989362006 0.08267785576 0.08548799195 0.088006922 0.09061184308)
5(0.07970236143 0.08250179682 0.08531494505 0.0878416567 0.09045301774)
5(0.07949896223 0.08231442222 0.08513090321 0.08766812496 0.09028975616)
5(0.07928101994 0.08211200719 0.08493408434 0.08748650131 0.0901217248)
5(0.07904572027 0.0818914301 0.08472192323 0.08729512527 0.08994883647)
5(0.07878813494 0.08165081742 0.08449231196 0.08709131016 0.08976734465)
5(0.07850078614 0.08138051051 0.08423867774 0.08687064491 0.08957082927)
5(0.07816066085 0.0810635377 0.08394232676 0.08661389739 0.08934527283)
5(0.07770230486 0.08064438602 0.08354885977 0.08628142699 0.08905078272)
5(0.07636984818 0.0790541094 0.08182325109 0.08495395347 0.08781654341)
)


60
(
5(0.08121259761 0.08407799719 0.08753781021 0.09037811102 0.09350481299)
5(0.08126784084 0.08425133443 0.08747116155 0.09036049699 0.09335317775)
5(0.08131170873 0.08434892036 0.0874799919 0.0903834255 0.09331148955)
5(0.08136020944 0.08440920795 0.08753327512 0.09042941483 0.09334738728)
5(0.08142489671 0.08446247594 0.08760485918 0.09048605696 0.09342206776)
5(0.08149115017 0.08451282242 0.08766791547 0.0905380713 0.0934951233)
5(0.08153948372 0.08455282572 0.08771088568 0.09057519751 0.09353832956)
5(0.08157423932 0.08458718881 0.08773947996 0.09060364162 0.09356168354)
5(0.08160389711 0.08461811255 0.08776285902 0.0906269256 0.09357823499)
5(0.08163305205 0.08464592604 0.08778699832 0.09065061942 0.09359793948)
5(0.08166236438 0.08467376762 0.08781256979 0.09067268075 0.09361854798)
5(0.08168980241 0.0846982618 0.08783660193 0.09069370845 0.09363758569)
5(0.0817155707 0.08472074718 0.0878586906 0.09071071612 0.09365200632)
5(0.08173761677 0.0847422092 0.08787655406 0.09072580624 0.09366283617)
5(0.08175998291 0.08476103006 0.08789318126 0.09073764037 0.0936699331)
5(0.08178049885 0.08477905984 0.08790646332 0.09074778764 0.09367479264)
5(0.08179915364 0.08479445426 0.08792014986 0.09075570014 0.09367770481)
5(0.08181705691 0.08480901518 0.08793140234 0.09075982332 0.0936778238)
5(0.08183376228 0.08482225487 0.0879396632 0.09076493388 0.09367514082)
5(0.08184902551 0.08483317596 0.08794633216 0.09076548907 0.09366933397)
5(0.0818631334 0.0848427774 0.0879512115 0.09076379971 0.09366092969)
5(0.08187630702 0.08485111529 0.08795308127 0.09075949965 0.09364838264)
5(0.08188755424 0.0848567596 0.08795257924 0.09075137835 0.09363357536)
5(0.08189733332 0.08486064522 0.08794998071 0.0907404618 0.09361461026)
5(0.08190599264 0.08486252813 0.08794479663 0.09072683172 0.09359263728)
5(0.08191271053 0.08486004774 0.0879358819 0.09070981524 0.09356587709)
5(0.08191782284 0.08485883223 0.08792380187 0.0906886249 0.09353554819)
5(0.08192006276 0.08485210092 0.08790822636 0.09066325587 0.09350042477)
5(0.08191998108 0.08484212252 0.08788874116 0.09063335512 0.09345974875)
5(0.08191679287 0.08482868757 0.08786450877 0.09059827631 0.09341372837)
5(0.08191060183 0.08481136146 0.08783494178 0.09055772043 0.09336195263)
5(0.08190073232 0.08478930843 0.0878001724 0.09051084881 0.09330252165)
5(0.08188642906 0.08476237555 0.08775960277 0.09045798013 0.09323878368)
5(0.08186706478 0.08472852083 0.08771264844 0.09039811211 0.09316611027)
5(0.08184159525 0.08468898577 0.08765871614 0.09033118216 0.09308595281)
5(0.0818098587 0.08464259489 0.08759771813 0.09025659102 0.09299850429)
5(0.08177129399 0.08458845977 0.08752787577 0.0901736067 0.09290365676)
5(0.08172470219 0.08452651216 0.08744998829 0.09008267654 0.09280096828)
5(0.08166924745 0.08445623323 0.0873637144 0.08998376602 0.09269015856)
5(0.08160399848 0.08437690806 0.08726928873 0.08987770075 0.09256969555)
5(0.08152789036 0.08428824346 0.0871666945 0.08976365044 0.09243925872)
5(0.08144020685 0.08419016386 0.08705680009 0.08964214579 0.0923026544)
5(0.08133958713 0.08408286754 0.08693955958 0.08951397998 0.09216307004)
5(0.08122594437 0.08396622902 0.08681730445 0.08937919004 0.09202178221)
5(0.08109821144 0.08384094202 0.08668812009 0.08924063336 0.09188004333)
5(0.08095769295 0.08370758247 0.08655436522 0.08909931769 0.09173707952)
5(0.08080285887 0.08356565605 0.08641349402 0.08895719354 0.09159269012)
5(0.08063551012 0.08341547557 0.08626598654 0.08881180433 0.09144623465)
5(0.08045475689 0.08325537005 0.08611251787 0.08866478692 0.09129695332)
5(0.08026216227 0.08308567915 0.08595391715 0.08851145823 0.09114360339)
5(0.08005783819 0.08290637485 0.085786473 0.08835160336 0.09098577897)
5(0.07984191828 0.0827148526 0.08560817631 0.08818306985 0.09082201261)
5(0.07961339238 0.08251250563 0.08541796121 0.08800406942 0.09065200647)
5(0.07937123439 0.08229543553 0.08521344333 0.08781583664 0.09047557032)
5(0.07911294064 0.08205992236 0.08499035564 0.08761413564 0.09029024932)
5(0.0788337557 0.08180080658 0.08474620793 0.08739554277 0.09009340819)
5(0.07852181389 0.08150888051 0.08447186701 0.08715346568 0.08987672015)
5(0.07815546943 0.08116364378 0.08414286208 0.08686950293 0.08962600574)
5(0.0776605238 0.080694305 0.08369414611 0.08648880005 0.08929115827)
5(0.07623583678 0.07908826812 0.0817304006 0.08489733306 0.08769760712)
)


60
(
5(0.08146554291 0.08437192125 0.08783951512 0.09072828714 0.09386206444)
5(0.08156205237 0.08457292028 0.08781409112 0.09073855176 0.09375565373)
5(0.08162739406 0.08468406946 0.08784569837 0.09077735921 0.09373952702)
5(0.08168478009 0.0847516655 0.0879088651 0.09083116897 0.09378471171)
5(0.08175265601 0.0848095678 0.08798283244 0.09089121797 0.09386037903)
5(0.08182069464 0.08486333648 0.08804716553 0.0909452665 0.09393317153)
5(0.08187242251 0.0849068418 0.08809223832 0.09098546048 0.09397812324)
5(0.08191050897 0.08494499735 0.08812519821 0.09101660141 0.09400460749)
5(0.08194370348 0.08497813212 0.08815119725 0.09104281854 0.09402406426)
5(0.08197574155 0.0850098071 0.08817859828 0.09106803062 0.09404561189)
5(0.08200689317 0.08503812906 0.08820493636 0.09109169671 0.09406667021)
5(0.08203657588 0.08506518189 0.08823084269 0.09111301077 0.09408597228)
5(0.08206343677 0.08508908378 0.08825292512 0.09113089469 0.09410020084)
5(0.08208839147 0.0851111018 0.08827226857 0.09114598909 0.09411086805)
5(0.08211061031 0.08513101584 0.08828866557 0.09115783207 0.09411741119)
5(0.08213170445 0.08514879776 0.08830303663 0.09116771597 0.09412192322)
5(0.08215133752 0.08516551076 0.08831569363 0.09117432168 0.0941230306)
5(0.08216921308 0.08517932034 0.0883254892 0.09117941299 0.09412183977)
5(0.08218631544 0.08519210497 0.0883338777 0.09118111004 0.09411725382)
5(0.08220119045 0.08520274071 0.08833902145 0.09118060129 0.09410960816)
5(0.08221482958 0.08521128924 0.08834201476 0.09117735329 0.09409899493)
5(0.0822273554 0.08521834776 0.08834312658 0.09117027861 0.09408460791)
5(0.08223736402 0.08522297796 0.08834041316 0.09116072208 0.09406715782)
5(0.0822461604 0.08522498305 0.08833558505 0.09114759752 0.09404582829)
5(0.08225352975 0.08522499629 0.08832827889 0.09113088377 0.09402049699)
5(0.08225842285 0.08522273064 0.08831683351 0.09111134879 0.0939914696)
5(0.08226093226 0.08521688896 0.08830230353 0.09108793444 0.09395781326)
5(0.08226150836 0.08520818283 0.0882841724 0.09105938044 0.09391914416)
5(0.08225982513 0.085196413 0.08826210456 0.0910264604 0.09387576899)
5(0.08225443138 0.08518112927 0.08823465562 0.09098890172 0.09382705479)
5(0.08224553148 0.08516061114 0.08820240826 0.0909450422 0.09377171115)
5(0.08223289917 0.08513560594 0.08816535808 0.09089563231 0.09371028928)
5(0.08221608275 0.08510622776 0.08812225207 0.09083977637 0.09364215449)
5(0.082194605 0.08507121132 0.08807246774 0.09077727305 0.09356616713)
5(0.08216700651 0.0850296336 0.08801555461 0.09070760499 0.093482627)
5(0.08213316993 0.08498087407 0.08795168053 0.0906294705 0.09339145262)
5(0.08209211758 0.08492483188 0.08788033271 0.0905434815 0.093292981)
5(0.08204317278 0.08486097612 0.08780026617 0.09044988529 0.09318662143)
5(0.08198504354 0.08478874708 0.0877115969 0.09034813181 0.09307096956)
5(0.08191666302 0.08470720767 0.08761427945 0.09023722128 0.0929457849)
5(0.08183676458 0.08461577152 0.08750833911 0.09011910161 0.09281135636)
5(0.08174359691 0.08451412073 0.08739427675 0.08999358193 0.09266978156)
5(0.08163599684 0.08440164662 0.08727278592 0.08985986947 0.09252463842)
5(0.08151354142 0.08427759306 0.08714387816 0.08971947697 0.09237736947)
5(0.08137519483 0.0841429002 0.08700709094 0.08957513362 0.09222985481)
5(0.08122004726 0.08399698123 0.08686301482 0.08942743212 0.09208198762)
5(0.08104884169 0.08383935903 0.0867114452 0.08927886321 0.09193323705)
5(0.08085992853 0.08366937469 0.08655055777 0.0891285415 0.09178368981)
5(0.08065673855 0.08348765409 0.08638722104 0.08897523631 0.09163223305)
5(0.08044018086 0.08329504027 0.08621466625 0.08881763812 0.09147741547)
5(0.08020822471 0.08309161562 0.08603370217 0.08865290914 0.0913167183)
5(0.07996366086 0.08287826994 0.08584289858 0.08848000543 0.09115111519)
5(0.0797064306 0.08265146212 0.08563886433 0.08829525661 0.09097635492)
5(0.07943513682 0.08240992452 0.08541844837 0.08809711751 0.09079174333)
5(0.07914794683 0.08215058452 0.08517845477 0.08788355461 0.09059613922)
5(0.0788378374 0.08186454505 0.08491340149 0.08764892528 0.09038476788)
5(0.07849558016 0.08154187775 0.08461028544 0.08738318299 0.09014999575)
5(0.07809446269 0.08116179834 0.08424531286 0.08706482392 0.08987012453)
5(0.07756518581 0.08065149169 0.0837288008 0.08661804698 0.08948569625)
5(0.07607742007 0.07893901442 0.08176974895 0.08489183707 0.08782266181)
)


60
(
5(0.08169454249 0.08463573777 0.08811493703 0.09104689883 0.09418994775)
5(0.08182549809 0.08486083741 0.08812322917 0.09108005522 0.09412049627)
5(0.08190823741 0.08498404016 0.08817360695 0.091131962 0.09412493085)
5(0.08197279621 0.08505768013 0.08824489299 0.09119272769 0.09417885572)
5(0.08204416975 0.08511978979 0.08832141574 0.09125557728 0.09425565334)
5(0.08211456669 0.08517698591 0.08838720969 0.09131244898 0.0943283363)
5(0.08216891922 0.08522379722 0.08843478637 0.09135471639 0.09437565157)
5(0.08221003018 0.08526453837 0.0884709052 0.09138886793 0.09440414979)
5(0.08224659609 0.08530058958 0.08849968663 0.09141683642 0.09442646149)
5(0.08228064026 0.08533400181 0.08852920758 0.0914440569 0.094448979)
5(0.08231401528 0.08536447433 0.08855686201 0.0914683503 0.09447099578)
5(0.08234472866 0.08539289322 0.08858391139 0.0914906465 0.09449011295)
5(0.08237346931 0.08541777051 0.08860644919 0.09150869482 0.0945045552)
5(0.08239906938 0.08544128155 0.08862660123 0.09152400829 0.09451467492)
5(0.08242263024 0.08546122868 0.08864284585 0.09153562808 0.09452103021)
5(0.08244440889 0.08548013003 0.08865756108 0.09154512052 0.09452452064)
5(0.08246421314 0.08549587186 0.08866942005 0.09155107406 0.09452494215)
5(0.08248305488 0.08551031382 0.0886790822 0.0915553221 0.09452225562)
5(0.08249926521 0.08552261506 0.08868634983 0.09155578514 0.09451643873)
5(0.08251448546 0.08553238424 0.08869048617 0.09155430518 0.09450712169)
5(0.08252747021 0.08554105133 0.08869303093 0.09154900272 0.0944949116)
5(0.0825389207 0.08554614044 0.08869152733 0.09154077361 0.09447846199)
5(0.08254913738 0.0855498118 0.08868820241 0.09152939906 0.09445914877)
5(0.0825563693 0.08555100479 0.08868169403 0.09151406875 0.09443561847)
5(0.08256215691 0.0855492939 0.08867187935 0.09149616939 0.09440827947)
5(0.08256640067 0.0855451487 0.08865952092 0.09147412275 0.09437725925)
5(0.08256731188 0.08553839441 0.08864291203 0.09144821208 0.09434099519)
5(0.08256638608 0.0855276231 0.08862250323 0.09141858128 0.09430041982)
5(0.08256283435 0.08551421291 0.08859839281 0.09138344394 0.09425507006)
5(0.08255563359 0.08549725332 0.08856959962 0.09134320551 0.09420344979)
5(0.08254487957 0.08547495802 0.08853538118 0.09129806414 0.09414632016)
5(0.08253124789 0.08544886146 0.08849660163 0.09124738773 0.09408300207)
5(0.08251304291 0.08541803773 0.08845251116 0.09118947387 0.0940128439)
5(0.08248933888 0.08538146431 0.08840092583 0.09112541754 0.09393501522)
5(0.08246030454 0.08533884957 0.08834322894 0.09105463478 0.09384985359)
5(0.08242507719 0.08528964857 0.08827866533 0.09097570788 0.09375725289)
5(0.08238267266 0.08523354809 0.08820704583 0.09088850887 0.09365633291)
5(0.08233218341 0.08516944036 0.08812627573 0.09079405923 0.09354799941)
5(0.08227221376 0.08509664167 0.08803743309 0.09069148505 0.09343087073)
5(0.08220141827 0.08501446358 0.08793978378 0.09057968059 0.09330312315)
5(0.08211823814 0.0849215512 0.08783314703 0.0904601802 0.0931661295)
5(0.08202114746 0.08481737658 0.08771747233 0.09033211368 0.09302187535)